MODEL 1
REMARK VINA RESULT:      -9.9      0.000      0.000
REMARK  5 active torsions:
REMARK  status: ('A' for Active; 'I' for Inactive)
REMARK    1  A    between atoms: O_1  and  C_2 
REMARK    2  A    between atoms: C_2  and  C_3 
REMARK    3  A    between atoms: C_2  and  C_9 
REMARK    4  A    between atoms: C_9  and  C_10 
REMARK    5  A    between atoms: C_9  and  O_16 
ROOT
HETATM    1  C   LIG     1      16.494  37.644  23.336  1.00  0.00     0.184 C 
ENDROOT
BRANCH   1   2
HETATM    2  O   LIG     1      15.145  37.901  23.653  1.00  0.00    -0.388 OA
HETATM    3  H   LIG     1      14.611  37.811  22.822  1.00  0.00     0.210 HD
ENDBRANCH   1   2
BRANCH   1   4
HETATM    4  C   LIG     1      17.165  36.890  24.470  1.00  0.00    -0.027 A 
HETATM    5  C   LIG     1      18.089  37.547  25.304  1.00  0.00     0.010 A 
HETATM    6  C   LIG     1      18.713  36.858  26.349  1.00  0.00     0.001 A 
HETATM    7  C   LIG     1      18.423  35.510  26.573  1.00  0.00     0.000 A 
HETATM    8  C   LIG     1      17.508  34.847  25.752  1.00  0.00     0.001 A 
HETATM    9  C   LIG     1      16.880  35.531  24.706  1.00  0.00     0.010 A 
ENDBRANCH   1   4
BRANCH   1  10
HETATM   10  C   LIG     1      16.631  36.897  21.987  1.00  0.00     0.184 C 
BRANCH  10  11
HETATM   11  C   LIG     1      17.757  37.480  21.157  1.00  0.00    -0.027 A 
HETATM   12  C   LIG     1      18.381  36.702  20.166  1.00  0.00     0.010 A 
HETATM   13  C   LIG     1      19.420  37.238  19.398  1.00  0.00     0.001 A 
HETATM   14  C   LIG     1      19.847  38.550  19.615  1.00  0.00     0.000 A 
HETATM   15  C   LIG     1      19.236  39.330  20.600  1.00  0.00     0.001 A 
HETATM   16  C   LIG     1      18.196  38.799  21.370  1.00  0.00     0.010 A 
ENDBRANCH  10  11
BRANCH  10  17
HETATM   17  O   LIG     1      16.876  35.535  22.229  1.00  0.00    -0.388 OA
HETATM   18  H   LIG     1      17.115  35.453  23.189  1.00  0.00     0.210 HD
ENDBRANCH  10  17
ENDBRANCH   1  10
TORSDOF 5
ENDMDL
MODEL 2
REMARK VINA RESULT:      -9.9      0.016      1.211
REMARK  5 active torsions:
REMARK  status: ('A' for Active; 'I' for Inactive)
REMARK    1  A    between atoms: O_1  and  C_2 
REMARK    2  A    between atoms: C_2  and  C_3 
REMARK    3  A    between atoms: C_2  and  C_9 
REMARK    4  A    between atoms: C_9  and  C_10 
REMARK    5  A    between atoms: C_9  and  O_16 
ROOT
HETATM    1  C   LIG     1      16.491  37.651  23.333  1.00  0.00     0.184 C 
ENDROOT
BRANCH   1   2
HETATM    2  O   LIG     1      15.142  37.903  23.652  1.00  0.00    -0.388 OA
HETATM    3  H   LIG     1      14.879  37.293  24.388  1.00  0.00     0.210 HD
ENDBRANCH   1   2
BRANCH   1   4
HETATM    4  C   LIG     1      17.165  36.897  24.465  1.00  0.00    -0.027 A 
HETATM    5  C   LIG     1      18.082  37.557  25.304  1.00  0.00     0.010 A 
HETATM    6  C   LIG     1      18.709  36.868  26.347  1.00  0.00     0.001 A 
HETATM    7  C   LIG     1      18.429  35.518  26.565  1.00  0.00     0.000 A 
HETATM    8  C   LIG     1      17.521  34.851  25.739  1.00  0.00     0.001 A 
HETATM    9  C   LIG     1      16.891  35.534  24.694  1.00  0.00     0.010 A 
ENDBRANCH   1   4
BRANCH   1  10
HETATM   10  C   LIG     1      16.627  36.905  21.983  1.00  0.00     0.184 C 
BRANCH  10  11
HETATM   11  C   LIG     1      17.754  37.487  21.154  1.00  0.00    -0.027 A 
HETATM   12  C   LIG     1      18.176  38.812  21.363  1.00  0.00     0.010 A 
HETATM   13  C   LIG     1      19.216  39.351  20.600  1.00  0.00     0.001 A 
HETATM   14  C   LIG     1      19.842  38.575  19.621  1.00  0.00     0.000 A 
HETATM   15  C   LIG     1      19.427  37.259  19.402  1.00  0.00     0.001 A 
HETATM   16  C   LIG     1      18.388  36.714  20.163  1.00  0.00     0.010 A 
ENDBRANCH  10  11
BRANCH  10  17
HETATM   17  O   LIG     1      16.870  35.542  22.223  1.00  0.00    -0.388 OA
HETATM   18  H   LIG     1      16.039  35.168  22.618  1.00  0.00     0.210 HD
ENDBRANCH  10  17
ENDBRANCH   1  10
TORSDOF 5
ENDMDL
MODEL 3
REMARK VINA RESULT:      -9.7      1.305      5.503
REMARK  5 active torsions:
REMARK  status: ('A' for Active; 'I' for Inactive)
REMARK    1  A    between atoms: O_1  and  C_2 
REMARK    2  A    between atoms: C_2  and  C_3 
REMARK    3  A    between atoms: C_2  and  C_9 
REMARK    4  A    between atoms: C_9  and  C_10 
REMARK    5  A    between atoms: C_9  and  O_16 
ROOT
HETATM    1  C   LIG     1      16.860  38.210  22.786  1.00  0.00     0.184 C 
ENDROOT
BRANCH   1   2
HETATM    2  O   LIG     1      15.891  39.221  22.634  1.00  0.00    -0.388 OA
HETATM    3  H   LIG     1      15.353  39.014  21.826  1.00  0.00     0.210 HD
ENDBRANCH   1   2
BRANCH   1   4
HETATM    4  C   LIG     1      17.736  38.133  21.549  1.00  0.00    -0.027 A 
HETATM    5  C   LIG     1      17.945  36.897  20.909  1.00  0.00     0.010 A 
HETATM    6  C   LIG     1      18.754  36.817  19.771  1.00  0.00     0.001 A 
HETATM    7  C   LIG     1      19.360  37.966  19.258  1.00  0.00     0.000 A 
HETATM    8  C   LIG     1      19.160  39.198  19.884  1.00  0.00     0.001 A 
HETATM    9  C   LIG     1      18.353  39.285  21.023  1.00  0.00     0.010 A 
ENDBRANCH   1   4
BRANCH   1  10
HETATM   10  C   LIG     1      17.697  38.412  24.073  1.00  0.00     0.184 C 
BRANCH  10  11
HETATM   11  C   LIG     1      17.771  37.131  24.877  1.00  0.00    -0.027 A 
HETATM   12  C   LIG     1      18.451  37.106  26.108  1.00  0.00     0.010 A 
HETATM   13  C   LIG     1      18.521  35.924  26.853  1.00  0.00     0.001 A 
HETATM   14  C   LIG     1      17.917  34.758  26.376  1.00  0.00     0.000 A 
HETATM   15  C   LIG     1      17.242  34.772  25.152  1.00  0.00     0.001 A 
HETATM   16  C   LIG     1      17.169  35.951  24.404  1.00  0.00     0.010 A 
ENDBRANCH  10  11
BRANCH  10  17
HETATM   17  O   LIG     1      18.993  38.831  23.727  1.00  0.00    -0.388 OA
HETATM   18  H   LIG     1      19.602  38.073  23.929  1.00  0.00     0.210 HD
ENDBRANCH  10  17
ENDBRANCH   1  10
TORSDOF 5
ENDMDL
MODEL 4
REMARK VINA RESULT:      -9.7      1.319      5.285
REMARK  5 active torsions:
REMARK  status: ('A' for Active; 'I' for Inactive)
REMARK    1  A    between atoms: O_1  and  C_2 
REMARK    2  A    between atoms: C_2  and  C_3 
REMARK    3  A    between atoms: C_2  and  C_9 
REMARK    4  A    between atoms: C_9  and  C_10 
REMARK    5  A    between atoms: C_9  and  O_16 
ROOT
HETATM    1  C   LIG     1      16.902  38.223  22.790  1.00  0.00     0.184 C 
ENDROOT
BRANCH   1   2
HETATM    2  O   LIG     1      15.950  39.249  22.638  1.00  0.00    -0.388 OA
HETATM    3  H   LIG     1      16.416  40.119  22.732  1.00  0.00     0.210 HD
ENDBRANCH   1   2
BRANCH   1   4
HETATM    4  C   LIG     1      17.767  38.121  21.547  1.00  0.00    -0.027 A 
HETATM    5  C   LIG     1      18.396  39.268  21.029  1.00  0.00     0.010 A 
HETATM    6  C   LIG     1      19.191  39.182  19.882  1.00  0.00     0.001 A 
HETATM    7  C   LIG     1      19.368  37.955  19.241  1.00  0.00     0.000 A 
HETATM    8  C   LIG     1      18.749  36.809  19.744  1.00  0.00     0.001 A 
HETATM    9  C   LIG     1      17.952  36.888  20.891  1.00  0.00     0.010 A 
ENDBRANCH   1   4
BRANCH   1  10
HETATM   10  C   LIG     1      17.754  38.421  24.069  1.00  0.00     0.184 C 
BRANCH  10  11
HETATM   11  C   LIG     1      17.818  37.142  24.880  1.00  0.00    -0.027 A 
HETATM   12  C   LIG     1      17.199  35.972  24.407  1.00  0.00     0.010 A 
HETATM   13  C   LIG     1      17.257  34.791  25.154  1.00  0.00     0.001 A 
HETATM   14  C   LIG     1      17.931  34.768  26.378  1.00  0.00     0.000 A 
HETATM   15  C   LIG     1      18.546  35.927  26.858  1.00  0.00     0.001 A 
HETATM   16  C   LIG     1      18.491  37.110  26.115  1.00  0.00     0.010 A 
ENDBRANCH  10  11
BRANCH  10  17
HETATM   17  O   LIG     1      19.052  38.820  23.710  1.00  0.00    -0.388 OA
HETATM   18  H   LIG     1      19.006  39.790  23.502  1.00  0.00     0.210 HD
ENDBRANCH  10  17
ENDBRANCH   1  10
TORSDOF 5
ENDMDL
MODEL 5
REMARK VINA RESULT:      -9.0      0.745      5.147
REMARK  5 active torsions:
REMARK  status: ('A' for Active; 'I' for Inactive)
REMARK    1  A    between atoms: O_1  and  C_2 
REMARK    2  A    between atoms: C_2  and  C_3 
REMARK    3  A    between atoms: C_2  and  C_9 
REMARK    4  A    between atoms: C_9  and  C_10 
REMARK    5  A    between atoms: C_9  and  O_16 
ROOT
HETATM    1  C   LIG     1      16.484  36.941  22.005  1.00  0.00     0.184 C 
ENDROOT
BRANCH   1   2
HETATM    2  O   LIG     1      16.015  37.859  22.965  1.00  0.00    -0.388 OA
HETATM    3  H   LIG     1      16.763  38.072  23.580  1.00  0.00     0.210 HD
ENDBRANCH   1   2
BRANCH   1   4
HETATM    4  C   LIG     1      17.619  37.554  21.205  1.00  0.00    -0.027 A 
HETATM    5  C   LIG     1      17.972  38.902  21.401  1.00  0.00     0.010 A 
HETATM    6  C   LIG     1      19.015  39.474  20.665  1.00  0.00     0.001 A 
HETATM    7  C   LIG     1      19.716  38.710  19.730  1.00  0.00     0.000 A 
HETATM    8  C   LIG     1      19.375  37.372  19.526  1.00  0.00     0.001 A 
HETATM    9  C   LIG     1      18.333  36.794  20.258  1.00  0.00     0.010 A 
ENDBRANCH   1   4
BRANCH   1  10
HETATM   10  C   LIG     1      16.896  35.597  22.654  1.00  0.00     0.184 C 
BRANCH  10  11
HETATM   11  C   LIG     1      17.344  35.803  24.087  1.00  0.00    -0.027 A 
HETATM   12  C   LIG     1      17.830  37.055  24.504  1.00  0.00     0.010 A 
HETATM   13  C   LIG     1      18.244  37.247  25.826  1.00  0.00     0.001 A 
HETATM   14  C   LIG     1      18.180  36.194  26.741  1.00  0.00     0.000 A 
HETATM   15  C   LIG     1      17.702  34.944  26.335  1.00  0.00     0.001 A 
HETATM   16  C   LIG     1      17.287  34.747  25.015  1.00  0.00     0.010 A 
ENDBRANCH  10  11
BRANCH  10  17
HETATM   17  O   LIG     1      15.809  34.708  22.621  1.00  0.00    -0.388 OA
HETATM   18  H   LIG     1      15.350  34.849  21.751  1.00  0.00     0.210 HD
ENDBRANCH  10  17
ENDBRANCH   1  10
TORSDOF 5
ENDMDL
MODEL 6
REMARK VINA RESULT:      -8.0      3.118      5.090
REMARK  5 active torsions:
REMARK  status: ('A' for Active; 'I' for Inactive)
REMARK    1  A    between atoms: O_1  and  C_2 
REMARK    2  A    between atoms: C_2  and  C_3 
REMARK    3  A    between atoms: C_2  and  C_9 
REMARK    4  A    between atoms: C_9  and  C_10 
REMARK    5  A    between atoms: C_9  and  O_16 
ROOT
HETATM    1  C   LIG     1      15.513  34.952  21.450  1.00  0.00     0.184 C 
ENDROOT
BRANCH   1   2
HETATM    2  O   LIG     1      14.855  36.192  21.334  1.00  0.00    -0.388 OA
HETATM    3  H   LIG     1      15.340  36.738  20.663  1.00  0.00     0.210 HD
ENDBRANCH   1   2
BRANCH   1   4
HETATM    4  C   LIG     1      15.394  34.171  20.154  1.00  0.00    -0.027 A 
HETATM    5  C   LIG     1      15.276  32.769  20.184  1.00  0.00     0.010 A 
HETATM    6  C   LIG     1      15.170  32.042  18.994  1.00  0.00     0.001 A 
HETATM    7  C   LIG     1      15.178  32.704  17.764  1.00  0.00     0.000 A 
HETATM    8  C   LIG     1      15.295  34.095  17.721  1.00  0.00     0.001 A 
HETATM    9  C   LIG     1      15.402  34.827  18.907  1.00  0.00     0.010 A 
ENDBRANCH   1   4
BRANCH   1  10
HETATM   10  C   LIG     1      16.990  35.130  21.882  1.00  0.00     0.184 C 
BRANCH  10  11
HETATM   11  C   LIG     1      17.527  36.475  21.434  1.00  0.00    -0.027 A 
HETATM   12  C   LIG     1      18.258  36.582  20.238  1.00  0.00     0.010 A 
HETATM   13  C   LIG     1      18.754  37.822  19.823  1.00  0.00     0.001 A 
HETATM   14  C   LIG     1      18.529  38.963  20.597  1.00  0.00     0.000 A 
HETATM   15  C   LIG     1      17.807  38.865  21.790  1.00  0.00     0.001 A 
HETATM   16  C   LIG     1      17.308  37.628  22.209  1.00  0.00     0.010 A 
ENDBRANCH  10  11
BRANCH  10  17
HETATM   17  O   LIG     1      17.085  35.023  23.280  1.00  0.00    -0.388 OA
HETATM   18  H   LIG     1      16.796  35.896  23.654  1.00  0.00     0.210 HD
ENDBRANCH  10  17
ENDBRANCH   1  10
TORSDOF 5
ENDMDL
MODEL 7
REMARK VINA RESULT:      -7.8      3.136      5.922
REMARK  5 active torsions:
REMARK  status: ('A' for Active; 'I' for Inactive)
REMARK    1  A    between atoms: O_1  and  C_2 
REMARK    2  A    between atoms: C_2  and  C_3 
REMARK    3  A    between atoms: C_2  and  C_9 
REMARK    4  A    between atoms: C_9  and  C_10 
REMARK    5  A    between atoms: C_9  and  O_16 
ROOT
HETATM    1  C   LIG     1      15.302  35.094  21.341  1.00  0.00     0.184 C 
ENDROOT
BRANCH   1   2
HETATM    2  O   LIG     1      14.128  35.870  21.407  1.00  0.00    -0.388 OA
HETATM    3  H   LIG     1      14.370  36.769  21.749  1.00  0.00     0.210 HD
ENDBRANCH   1   2
BRANCH   1   4
HETATM    4  C   LIG     1      15.312  34.263  20.071  1.00  0.00    -0.027 A 
HETATM    5  C   LIG     1      15.342  32.858  20.149  1.00  0.00     0.010 A 
HETATM    6  C   LIG     1      15.354  32.085  18.983  1.00  0.00     0.001 A 
HETATM    7  C   LIG     1      15.336  32.703  17.731  1.00  0.00     0.000 A 
HETATM    8  C   LIG     1      15.306  34.096  17.641  1.00  0.00     0.001 A 
HETATM    9  C   LIG     1      15.294  34.875  18.802  1.00  0.00     0.010 A 
ENDBRANCH   1   4
BRANCH   1  10
HETATM   10  C   LIG     1      16.572  35.972  21.465  1.00  0.00     0.184 C 
BRANCH  10  11
HETATM   11  C   LIG     1      16.950  36.177  22.918  1.00  0.00    -0.027 A 
HETATM   12  C   LIG     1      17.131  37.475  23.426  1.00  0.00     0.010 A 
HETATM   13  C   LIG     1      17.479  37.666  24.767  1.00  0.00     0.001 A 
HETATM   14  C   LIG     1      17.652  36.566  25.610  1.00  0.00     0.000 A 
HETATM   15  C   LIG     1      17.478  35.272  25.114  1.00  0.00     0.001 A 
HETATM   16  C   LIG     1      17.130  35.075  23.774  1.00  0.00     0.010 A 
ENDBRANCH  10  11
BRANCH  10  17
HETATM   17  O   LIG     1      17.635  35.357  20.781  1.00  0.00    -0.388 OA
HETATM   18  H   LIG     1      17.628  34.399  21.044  1.00  0.00     0.210 HD
ENDBRANCH  10  17
ENDBRANCH   1  10
TORSDOF 5
ENDMDL
MODEL 8
REMARK VINA RESULT:      -7.8      3.447      4.687
REMARK  5 active torsions:
REMARK  status: ('A' for Active; 'I' for Inactive)
REMARK    1  A    between atoms: O_1  and  C_2 
REMARK    2  A    between atoms: C_2  and  C_3 
REMARK    3  A    between atoms: C_2  and  C_9 
REMARK    4  A    between atoms: C_9  and  C_10 
REMARK    5  A    between atoms: C_9  and  O_16 
ROOT
HETATM    1  C   LIG     1      16.981  35.478  20.899  1.00  0.00     0.184 C 
ENDROOT
BRANCH   1   2
HETATM    2  O   LIG     1      17.848  36.204  20.059  1.00  0.00    -0.388 OA
HETATM    3  H   LIG     1      18.677  35.673  19.937  1.00  0.00     0.210 HD
ENDBRANCH   1   2
BRANCH   1   4
HETATM    4  C   LIG     1      17.036  36.029  22.312  1.00  0.00    -0.027 A 
HETATM    5  C   LIG     1      16.979  37.419  22.529  1.00  0.00     0.010 A 
HETATM    6  C   LIG     1      17.032  37.935  23.828  1.00  0.00     0.001 A 
HETATM    7  C   LIG     1      17.142  37.073  24.921  1.00  0.00     0.000 A 
HETATM    8  C   LIG     1      17.199  35.693  24.719  1.00  0.00     0.001 A 
HETATM    9  C   LIG     1      17.147  35.171  23.423  1.00  0.00     0.010 A 
ENDBRANCH   1   4
BRANCH   1  10
HETATM   10  C   LIG     1      15.535  35.456  20.345  1.00  0.00     0.184 C 
BRANCH  10  11
HETATM   11  C   LIG     1      15.299  34.224  19.495  1.00  0.00    -0.027 A 
HETATM   12  C   LIG     1      15.218  32.955  20.095  1.00  0.00     0.010 A 
HETATM   13  C   LIG     1      15.000  31.817  19.313  1.00  0.00     0.001 A 
HETATM   14  C   LIG     1      14.863  31.933  17.928  1.00  0.00     0.000 A 
HETATM   15  C   LIG     1      14.946  33.189  17.321  1.00  0.00     0.001 A 
HETATM   16  C   LIG     1      15.164  34.331  18.099  1.00  0.00     0.010 A 
ENDBRANCH  10  11
BRANCH  10  17
HETATM   17  O   LIG     1      14.624  35.477  21.414  1.00  0.00    -0.388 OA
HETATM   18  H   LIG     1      14.054  34.668  21.320  1.00  0.00     0.210 HD
ENDBRANCH  10  17
ENDBRANCH   1  10
TORSDOF 5
ENDMDL
MODEL 9
REMARK VINA RESULT:      -7.4      5.347      7.786
REMARK  5 active torsions:
REMARK  status: ('A' for Active; 'I' for Inactive)
REMARK    1  A    between atoms: O_1  and  C_2 
REMARK    2  A    between atoms: C_2  and  C_3 
REMARK    3  A    between atoms: C_2  and  C_9 
REMARK    4  A    between atoms: C_9  and  C_10 
REMARK    5  A    between atoms: C_9  and  O_16 
ROOT
HETATM    1  C   LIG     1      14.969  33.835  18.199  1.00  0.00     0.184 C 
ENDROOT
BRANCH   1   2
HETATM    2  O   LIG     1      15.866  34.805  17.710  1.00  0.00    -0.388 OA
HETATM    3  H   LIG     1      16.647  34.837  18.320  1.00  0.00     0.210 HD
ENDBRANCH   1   2
BRANCH   1   4
HETATM    4  C   LIG     1      14.762  32.743  17.165  1.00  0.00    -0.027 A 
HETATM    5  C   LIG     1      15.716  32.545  16.149  1.00  0.00     0.010 A 
HETATM    6  C   LIG     1      15.531  31.543  15.191  1.00  0.00     0.001 A 
HETATM    7  C   LIG     1      14.397  30.729  15.236  1.00  0.00     0.000 A 
HETATM    8  C   LIG     1      13.444  30.916  16.239  1.00  0.00     0.001 A 
HETATM    9  C   LIG     1      13.622  31.916  17.200  1.00  0.00     0.010 A 
ENDBRANCH   1   4
BRANCH   1  10
HETATM   10  C   LIG     1      15.436  33.260  19.559  1.00  0.00     0.184 C 
BRANCH  10  11
HETATM   11  C   LIG     1      15.700  34.371  20.555  1.00  0.00    -0.027 A 
HETATM   12  C   LIG     1      16.920  34.421  21.252  1.00  0.00     0.010 A 
HETATM   13  C   LIG     1      17.166  35.445  22.172  1.00  0.00     0.001 A 
HETATM   14  C   LIG     1      16.198  36.426  22.405  1.00  0.00     0.000 A 
HETATM   15  C   LIG     1      14.981  36.382  21.720  1.00  0.00     0.001 A 
HETATM   16  C   LIG     1      14.730  35.360  20.799  1.00  0.00     0.010 A 
ENDBRANCH  10  11
BRANCH  10  17
HETATM   17  O   LIG     1      14.452  32.394  20.064  1.00  0.00    -0.388 OA
HETATM   18  H   LIG     1      14.512  32.438  21.055  1.00  0.00     0.210 HD
ENDBRANCH  10  17
ENDBRANCH   1  10
TORSDOF 5
ENDMDL
MODEL 10
REMARK VINA RESULT:      -7.4      3.367      5.814
REMARK  5 active torsions:
REMARK  status: ('A' for Active; 'I' for Inactive)
REMARK    1  A    between atoms: O_1  and  C_2 
REMARK    2  A    between atoms: C_2  and  C_3 
REMARK    3  A    between atoms: C_2  and  C_9 
REMARK    4  A    between atoms: C_9  and  C_10 
REMARK    5  A    between atoms: C_9  and  O_16 
ROOT
HETATM    1  C   LIG     1      16.142  35.554  20.231  1.00  0.00     0.184 C 
ENDROOT
BRANCH   1   2
HETATM    2  O   LIG     1      17.550  35.574  20.279  1.00  0.00    -0.388 OA
HETATM    3  H   LIG     1      17.824  35.779  21.210  1.00  0.00     0.210 HD
ENDBRANCH   1   2
BRANCH   1   4
HETATM    4  C   LIG     1      15.662  34.359  19.428  1.00  0.00    -0.027 A 
HETATM    5  C   LIG     1      15.498  33.109  20.053  1.00  0.00     0.010 A 
HETATM    6  C   LIG     1      15.059  32.003  19.319  1.00  0.00     0.001 A 
HETATM    7  C   LIG     1      14.778  32.131  17.957  1.00  0.00     0.000 A 
HETATM    8  C   LIG     1      14.936  33.366  17.325  1.00  0.00     0.001 A 
HETATM    9  C   LIG     1      15.375  34.476  18.054  1.00  0.00     0.010 A 
ENDBRANCH   1   4
BRANCH   1  10
HETATM   10  C   LIG     1      15.523  35.580  21.650  1.00  0.00     0.184 C 
BRANCH  10  11
HETATM   11  C   LIG     1      16.302  36.505  22.564  1.00  0.00    -0.027 A 
HETATM   12  C   LIG     1      16.924  36.000  23.720  1.00  0.00     0.010 A 
HETATM   13  C   LIG     1      17.643  36.852  24.564  1.00  0.00     0.001 A 
HETATM   14  C   LIG     1      17.746  38.213  24.265  1.00  0.00     0.000 A 
HETATM   15  C   LIG     1      17.129  38.725  23.120  1.00  0.00     0.001 A 
HETATM   16  C   LIG     1      16.408  37.878  22.273  1.00  0.00     0.010 A 
ENDBRANCH  10  11
BRANCH  10  17
HETATM   17  O   LIG     1      14.187  36.008  21.571  1.00  0.00    -0.388 OA
HETATM   18  H   LIG     1      14.062  36.693  22.279  1.00  0.00     0.210 HD
ENDBRANCH  10  17
ENDBRANCH   1  10
TORSDOF 5
ENDMDL
MODEL 11
REMARK VINA RESULT:      -7.1      8.743     10.451
REMARK  5 active torsions:
REMARK  status: ('A' for Active; 'I' for Inactive)
REMARK    1  A    between atoms: O_1  and  C_2 
REMARK    2  A    between atoms: C_2  and  C_3 
REMARK    3  A    between atoms: C_2  and  C_9 
REMARK    4  A    between atoms: C_9  and  C_10 
REMARK    5  A    between atoms: C_9  and  O_16 
ROOT
HETATM    1  C   LIG     1      16.745  32.909  13.391  1.00  0.00     0.184 C 
ENDROOT
BRANCH   1   2
HETATM    2  O   LIG     1      17.233  31.872  12.573  1.00  0.00    -0.388 OA
HETATM    3  H   LIG     1      17.981  32.232  12.031  1.00  0.00     0.210 HD
ENDBRANCH   1   2
BRANCH   1   4
HETATM    4  C   LIG     1      15.902  32.337  14.516  1.00  0.00    -0.027 A 
HETATM    5  C   LIG     1      15.170  31.152  14.317  1.00  0.00     0.010 A 
HETATM    6  C   LIG     1      14.388  30.620  15.348  1.00  0.00     0.001 A 
HETATM    7  C   LIG     1      14.329  31.263  16.586  1.00  0.00     0.000 A 
HETATM    8  C   LIG     1      15.051  32.440  16.797  1.00  0.00     0.001 A 
HETATM    9  C   LIG     1      15.833  32.976  15.770  1.00  0.00     0.010 A 
ENDBRANCH   1   4
BRANCH   1  10
HETATM   10  C   LIG     1      17.892  33.800  13.927  1.00  0.00     0.184 C 
BRANCH  10  11
HETATM   11  C   LIG     1      18.949  34.019  12.864  1.00  0.00    -0.027 A 
HETATM   12  C   LIG     1      20.290  33.678  13.117  1.00  0.00     0.010 A 
HETATM   13  C   LIG     1      21.267  33.879  12.137  1.00  0.00     0.001 A 
HETATM   14  C   LIG     1      20.917  34.424  10.899  1.00  0.00     0.000 A 
HETATM   15  C   LIG     1      19.588  34.769  10.639  1.00  0.00     0.001 A 
HETATM   16  C   LIG     1      18.607  34.570  11.615  1.00  0.00     0.010 A 
ENDBRANCH  10  11
BRANCH  10  17
HETATM   17  O   LIG     1      17.370  35.038  14.339  1.00  0.00    -0.388 OA
HETATM   18  H   LIG     1      17.702  35.196  15.261  1.00  0.00     0.210 HD
ENDBRANCH  10  17
ENDBRANCH   1  10
TORSDOF 5
ENDMDL
MODEL 12
REMARK VINA RESULT:      -7.1      9.339     11.657
REMARK  5 active torsions:
REMARK  status: ('A' for Active; 'I' for Inactive)
REMARK    1  A    between atoms: O_1  and  C_2 
REMARK    2  A    between atoms: C_2  and  C_3 
REMARK    3  A    between atoms: C_2  and  C_9 
REMARK    4  A    between atoms: C_9  and  C_10 
REMARK    5  A    between atoms: C_9  and  O_16 
ROOT
HETATM    1  C   LIG     1      17.466  33.858  13.064  1.00  0.00     0.184 C 
ENDROOT
BRANCH   1   2
HETATM    2  O   LIG     1      17.197  35.240  13.007  1.00  0.00    -0.388 OA
HETATM    3  H   LIG     1      18.053  35.726  13.126  1.00  0.00     0.210 HD
ENDBRANCH   1   2
BRANCH   1   4
HETATM    4  C   LIG     1      18.815  33.560  12.435  1.00  0.00    -0.027 A 
HETATM    5  C   LIG     1      18.918  32.607  11.405  1.00  0.00     0.010 A 
HETATM    6  C   LIG     1      20.158  32.325  10.823  1.00  0.00     0.001 A 
HETATM    7  C   LIG     1      21.306  32.989  11.261  1.00  0.00     0.000 A 
HETATM    8  C   LIG     1      21.217  33.936  12.283  1.00  0.00     0.001 A 
HETATM    9  C   LIG     1      19.980  34.223  12.869  1.00  0.00     0.010 A 
ENDBRANCH   1   4
BRANCH   1  10
HETATM   10  C   LIG     1      17.374  33.319  14.513  1.00  0.00     0.184 C 
BRANCH  10  11
HETATM   11  C   LIG     1      16.253  32.307  14.643  1.00  0.00    -0.027 A 
HETATM   12  C   LIG     1      15.980  31.413  13.593  1.00  0.00     0.010 A 
HETATM   13  C   LIG     1      14.947  30.479  13.711  1.00  0.00     0.001 A 
HETATM   14  C   LIG     1      14.176  30.429  14.876  1.00  0.00     0.000 A 
HETATM   15  C   LIG     1      14.437  31.316  15.924  1.00  0.00     0.001 A 
HETATM   16  C   LIG     1      15.470  32.252  15.811  1.00  0.00     0.010 A 
ENDBRANCH  10  11
BRANCH  10  17
HETATM   17  O   LIG     1      18.595  32.722  14.869  1.00  0.00    -0.388 OA
HETATM   18  H   LIG     1      18.889  33.154  15.714  1.00  0.00     0.210 HD
ENDBRANCH  10  17
ENDBRANCH   1  10
TORSDOF 5
ENDMDL
