MODEL 1
REMARK VINA RESULT:      -6.6      0.000      0.000
REMARK  0 active torsions:
REMARK  status: ('A' for Active; 'I' for Inactive)
ROOT
HETATM    1  C   LIG     1      17.098  36.238  24.271  1.00  0.00     0.105 A 
HETATM    2  C   LIG     1      17.381  37.364  24.982  1.00  0.00     0.092 A 
HETATM    3  C   LIG     1      17.974  37.310  26.241  1.00  0.00     0.034 A 
HETATM    4  C   LIG     1      18.276  36.038  26.765  1.00  0.00     0.002 A 
HETATM    5  C   LIG     1      17.980  34.869  26.025  1.00  0.00     0.003 A 
HETATM    6  C   LIG     1      17.380  34.964  24.754  1.00  0.00     0.040 A 
HETATM    7  N   LIG     1      17.008  38.453  24.289  1.00  0.00    -0.234 NA
HETATM    8  C   LIG     1      16.499  37.908  23.153  1.00  0.00     0.259 A 
HETATM    9  O   LIG     1      16.550  36.584  23.138  1.00  0.00    -0.302 OA
ENDROOT
TORSDOF 0
ENDMDL
MODEL 2
REMARK VINA RESULT:      -6.0      1.398      2.082
REMARK  0 active torsions:
REMARK  status: ('A' for Active; 'I' for Inactive)
ROOT
HETATM    1  C   LIG     1      17.302  36.988  24.318  1.00  0.00     0.105 A 
HETATM    2  C   LIG     1      17.203  35.636  24.196  1.00  0.00     0.092 A 
HETATM    3  C   LIG     1      17.582  34.775  25.222  1.00  0.00     0.034 A 
HETATM    4  C   LIG     1      18.080  35.351  26.407  1.00  0.00     0.002 A 
HETATM    5  C   LIG     1      18.182  36.757  26.532  1.00  0.00     0.003 A 
HETATM    6  C   LIG     1      17.788  37.596  25.472  1.00  0.00     0.040 A 
HETATM    7  N   LIG     1      16.707  35.318  22.988  1.00  0.00    -0.234 NA
HETATM    8  C   LIG     1      16.525  36.540  22.423  1.00  0.00     0.259 A 
HETATM    9  O   LIG     1      16.880  37.541  23.214  1.00  0.00    -0.302 OA
ENDROOT
TORSDOF 0
ENDMDL
MODEL 3
REMARK VINA RESULT:      -5.8      1.605      3.015
REMARK  0 active torsions:
REMARK  status: ('A' for Active; 'I' for Inactive)
ROOT
HETATM    1  C   LIG     1      17.152  36.399  24.140  1.00  0.00     0.105 A 
HETATM    2  C   LIG     1      17.108  37.572  23.450  1.00  0.00     0.092 A 
HETATM    3  C   LIG     1      17.003  37.604  22.062  1.00  0.00     0.034 A 
HETATM    4  C   LIG     1      16.944  36.371  21.383  1.00  0.00     0.002 A 
HETATM    5  C   LIG     1      16.991  35.154  22.102  1.00  0.00     0.003 A 
HETATM    6  C   LIG     1      17.096  35.161  23.506  1.00  0.00     0.040 A 
HETATM    7  N   LIG     1      17.179  38.610  24.299  1.00  0.00    -0.234 NA
HETATM    8  C   LIG     1      17.266  37.987  25.505  1.00  0.00     0.259 A 
HETATM    9  O   LIG     1      17.251  36.666  25.414  1.00  0.00    -0.302 OA
ENDROOT
TORSDOF 0
ENDMDL
MODEL 4
REMARK VINA RESULT:      -5.8      3.922      5.240
REMARK  0 active torsions:
REMARK  status: ('A' for Active; 'I' for Inactive)
ROOT
HETATM    1  C   LIG     1      17.708  37.706  21.350  1.00  0.00     0.105 A 
HETATM    2  C   LIG     1      18.031  36.781  20.404  1.00  0.00     0.092 A 
HETATM    3  C   LIG     1      19.038  37.006  19.470  1.00  0.00     0.034 A 
HETATM    4  C   LIG     1      19.722  38.236  19.531  1.00  0.00     0.002 A 
HETATM    5  C   LIG     1      19.385  39.196  20.514  1.00  0.00     0.003 A 
HETATM    6  C   LIG     1      18.360  38.932  21.443  1.00  0.00     0.040 A 
HETATM    7  N   LIG     1      17.252  35.695  20.537  1.00  0.00    -0.234 NA
HETATM    8  C   LIG     1      16.469  36.032  21.595  1.00  0.00     0.259 A 
HETATM    9  O   LIG     1      16.738  37.233  22.084  1.00  0.00    -0.302 OA
ENDROOT
TORSDOF 0
ENDMDL
MODEL 5
REMARK VINA RESULT:      -5.7      3.030      4.339
REMARK  0 active torsions:
REMARK  status: ('A' for Active; 'I' for Inactive)
ROOT
HETATM    1  C   LIG     1      17.262  37.214  21.550  1.00  0.00     0.105 A 
HETATM    2  C   LIG     1      17.536  38.514  21.848  1.00  0.00     0.092 A 
HETATM    3  C   LIG     1      18.504  39.239  21.158  1.00  0.00     0.034 A 
HETATM    4  C   LIG     1      19.202  38.579  20.128  1.00  0.00     0.002 A 
HETATM    5  C   LIG     1      18.917  37.228  19.821  1.00  0.00     0.003 A 
HETATM    6  C   LIG     1      17.930  36.527  20.540  1.00  0.00     0.040 A 
HETATM    7  N   LIG     1      16.753  38.930  22.857  1.00  0.00    -0.234 NA
HETATM    8  C   LIG     1      16.019  37.818  23.127  1.00  0.00     0.259 A 
HETATM    9  O   LIG     1      16.321  36.790  22.348  1.00  0.00    -0.302 OA
ENDROOT
TORSDOF 0
ENDMDL
MODEL 6
REMARK VINA RESULT:      -5.6      3.895      4.723
REMARK  0 active torsions:
REMARK  status: ('A' for Active; 'I' for Inactive)
ROOT
HETATM    1  C   LIG     1      18.564  37.478  20.257  1.00  0.00     0.105 A 
HETATM    2  C   LIG     1      18.470  38.694  20.862  1.00  0.00     0.092 A 
HETATM    3  C   LIG     1      17.604  38.918  21.930  1.00  0.00     0.034 A 
HETATM    4  C   LIG     1      16.818  37.836  22.371  1.00  0.00     0.002 A 
HETATM    5  C   LIG     1      16.918  36.573  21.740  1.00  0.00     0.003 A 
HETATM    6  C   LIG     1      17.805  36.384  20.663  1.00  0.00     0.040 A 
HETATM    7  N   LIG     1      19.307  39.566  20.277  1.00  0.00    -0.234 NA
HETATM    8  C   LIG     1      19.886  38.804  19.312  1.00  0.00     0.259 A 
HETATM    9  O   LIG     1      19.445  37.555  19.297  1.00  0.00    -0.302 OA
ENDROOT
TORSDOF 0
ENDMDL
MODEL 7
REMARK VINA RESULT:      -5.4     10.402     11.274
REMARK  0 active torsions:
REMARK  status: ('A' for Active; 'I' for Inactive)
ROOT
HETATM    1  C   LIG     1      15.689  31.417  14.598  1.00  0.00     0.105 A 
HETATM    2  C   LIG     1      15.393  32.085  15.747  1.00  0.00     0.092 A 
HETATM    3  C   LIG     1      14.266  31.779  16.505  1.00  0.00     0.034 A 
HETATM    4  C   LIG     1      13.430  30.744  16.043  1.00  0.00     0.002 A 
HETATM    5  C   LIG     1      13.740  30.052  14.848  1.00  0.00     0.003 A 
HETATM    6  C   LIG     1      14.889  30.389  14.108  1.00  0.00     0.040 A 
HETATM    7  N   LIG     1      16.324  33.023  15.989  1.00  0.00    -0.234 NA
HETATM    8  C   LIG     1      17.167  32.867  14.934  1.00  0.00     0.259 A 
HETATM    9  O   LIG     1      16.791  31.909  14.100  1.00  0.00    -0.302 OA
ENDROOT
TORSDOF 0
ENDMDL
MODEL 8
REMARK VINA RESULT:      -5.3     10.254     11.222
REMARK  0 active torsions:
REMARK  status: ('A' for Active; 'I' for Inactive)
ROOT
HETATM    1  C   LIG     1      15.528  32.325  15.801  1.00  0.00     0.105 A 
HETATM    2  C   LIG     1      15.726  31.630  14.648  1.00  0.00     0.092 A 
HETATM    3  C   LIG     1      14.874  30.602  14.253  1.00  0.00     0.034 A 
HETATM    4  C   LIG     1      13.786  30.298  15.093  1.00  0.00     0.002 A 
HETATM    5  C   LIG     1      13.581  31.021  16.292  1.00  0.00     0.003 A 
HETATM    6  C   LIG     1      14.464  32.055  16.658  1.00  0.00     0.040 A 
HETATM    7  N   LIG     1      16.818  32.091  14.014  1.00  0.00    -0.234 NA
HETATM    8  C   LIG     1      17.237  33.078  14.849  1.00  0.00     0.259 A 
HETATM    9  O   LIG     1      16.469  33.221  15.919  1.00  0.00    -0.302 OA
ENDROOT
TORSDOF 0
ENDMDL
MODEL 9
REMARK VINA RESULT:      -5.2      9.946     10.934
REMARK  0 active torsions:
REMARK  status: ('A' for Active; 'I' for Inactive)
ROOT
HETATM    1  C   LIG     1      14.446  31.887  16.170  1.00  0.00     0.105 A 
HETATM    2  C   LIG     1      15.473  32.410  15.446  1.00  0.00     0.092 A 
HETATM    3  C   LIG     1      15.953  31.788  14.296  1.00  0.00     0.034 A 
HETATM    4  C   LIG     1      15.337  30.585  13.899  1.00  0.00     0.002 A 
HETATM    5  C   LIG     1      14.269  30.044  14.653  1.00  0.00     0.003 A 
HETATM    6  C   LIG     1      13.810  30.702  15.810  1.00  0.00     0.040 A 
HETATM    7  N   LIG     1      15.901  33.551  16.010  1.00  0.00    -0.234 NA
HETATM    8  C   LIG     1      15.079  33.664  17.086  1.00  0.00     0.259 A 
HETATM    9  O   LIG     1      14.208  32.671  17.185  1.00  0.00    -0.302 OA
ENDROOT
TORSDOF 0
ENDMDL
MODEL 10
REMARK VINA RESULT:      -5.2     10.674     11.512
REMARK  0 active torsions:
REMARK  status: ('A' for Active; 'I' for Inactive)
ROOT
HETATM    1  C   LIG     1      14.216  30.600  15.177  1.00  0.00     0.105 A 
HETATM    2  C   LIG     1      15.303  31.401  14.999  1.00  0.00     0.092 A 
HETATM    3  C   LIG     1      15.550  32.498  15.820  1.00  0.00     0.034 A 
HETATM    4  C   LIG     1      14.629  32.760  16.854  1.00  0.00     0.002 A 
HETATM    5  C   LIG     1      13.500  31.926  17.036  1.00  0.00     0.003 A 
HETATM    6  C   LIG     1      13.284  30.825  16.186  1.00  0.00     0.040 A 
HETATM    7  N   LIG     1      16.034  30.963  13.961  1.00  0.00    -0.234 NA
HETATM    8  C   LIG     1      15.324  29.879  13.549  1.00  0.00     0.259 A 
HETATM    9  O   LIG     1      14.237  29.659  14.273  1.00  0.00    -0.302 OA
ENDROOT
TORSDOF 0
ENDMDL
MODEL 11
REMARK VINA RESULT:      -5.2     10.716     11.619
REMARK  0 active torsions:
REMARK  status: ('A' for Active; 'I' for Inactive)
ROOT
HETATM    1  C   LIG     1      15.312  31.364  15.007  1.00  0.00     0.105 A 
HETATM    2  C   LIG     1      14.214  30.578  15.181  1.00  0.00     0.092 A 
HETATM    3  C   LIG     1      13.280  30.830  16.182  1.00  0.00     0.034 A 
HETATM    4  C   LIG     1      13.507  31.937  17.022  1.00  0.00     0.002 A 
HETATM    5  C   LIG     1      14.649  32.753  16.840  1.00  0.00     0.003 A 
HETATM    6  C   LIG     1      15.572  32.466  15.816  1.00  0.00     0.040 A 
HETATM    7  N   LIG     1      14.206  29.589  14.271  1.00  0.00    -0.234 NA
HETATM    8  C   LIG     1      15.343  29.839  13.568  1.00  0.00     0.259 A 
HETATM    9  O   LIG     1      16.006  30.898  14.005  1.00  0.00    -0.302 OA
ENDROOT
TORSDOF 0
ENDMDL
MODEL 12
REMARK VINA RESULT:      -5.2     10.066     11.059
REMARK  0 active torsions:
REMARK  status: ('A' for Active; 'I' for Inactive)
ROOT
HETATM    1  C   LIG     1      15.268  31.847  15.929  1.00  0.00     0.105 A 
HETATM    2  C   LIG     1      14.118  31.323  16.435  1.00  0.00     0.092 A 
HETATM    3  C   LIG     1      13.371  30.376  15.739  1.00  0.00     0.034 A 
HETATM    4  C   LIG     1      13.847  29.970  14.477  1.00  0.00     0.002 A 
HETATM    5  C   LIG     1      15.043  30.516  13.952  1.00  0.00     0.003 A 
HETATM    6  C   LIG     1      15.771  31.472  14.686  1.00  0.00     0.040 A 
HETATM    7  N   LIG     1      13.862  31.855  17.642  1.00  0.00    -0.234 NA
HETATM    8  C   LIG     1      14.910  32.704  17.809  1.00  0.00     0.259 A 
HETATM    9  O   LIG     1      15.752  32.702  16.787  1.00  0.00    -0.302 OA
ENDROOT
TORSDOF 0
ENDMDL
MODEL 13
REMARK VINA RESULT:      -4.4     10.206     11.230
REMARK  0 active torsions:
REMARK  status: ('A' for Active; 'I' for Inactive)
ROOT
HETATM    1  C   LIG     1      14.419  31.837  16.338  1.00  0.00     0.105 A 
HETATM    2  C   LIG     1      14.376  31.026  15.245  1.00  0.00     0.092 A 
HETATM    3  C   LIG     1      15.331  31.105  14.234  1.00  0.00     0.034 A 
HETATM    4  C   LIG     1      16.355  32.061  14.377  1.00  0.00     0.002 A 
HETATM    5  C   LIG     1      16.397  32.903  15.513  1.00  0.00     0.003 A 
HETATM    6  C   LIG     1      15.414  32.794  16.516  1.00  0.00     0.040 A 
HETATM    7  N   LIG     1      13.320  30.201  15.324  1.00  0.00    -0.234 NA
HETATM    8  C   LIG     1      12.757  30.569  16.506  1.00  0.00     0.259 A 
HETATM    9  O   LIG     1      13.411  31.547  17.114  1.00  0.00    -0.302 OA
ENDROOT
TORSDOF 0
ENDMDL
MODEL 14
REMARK VINA RESULT:      -4.4     12.337     13.566
REMARK  0 active torsions:
REMARK  status: ('A' for Active; 'I' for Inactive)
ROOT
HETATM    1  C   LIG     1      19.390  33.681  12.465  1.00  0.00     0.105 A 
HETATM    2  C   LIG     1      18.532  34.547  11.861  1.00  0.00     0.092 A 
HETATM    3  C   LIG     1      18.813  35.117  10.622  1.00  0.00     0.034 A 
HETATM    4  C   LIG     1      20.030  34.767  10.005  1.00  0.00     0.002 A 
HETATM    5  C   LIG     1      20.921  33.867  10.635  1.00  0.00     0.003 A 
HETATM    6  C   LIG     1      20.601  33.310  11.888  1.00  0.00     0.040 A 
HETATM    7  N   LIG     1      17.445  34.731  12.629  1.00  0.00    -0.234 NA
HETATM    8  C   LIG     1      17.714  33.937  13.699  1.00  0.00     0.259 A 
HETATM    9  O   LIG     1      18.875  33.308  13.605  1.00  0.00    -0.302 OA
ENDROOT
TORSDOF 0
ENDMDL
MODEL 15
REMARK VINA RESULT:      -4.1     12.280     13.194
REMARK  0 active torsions:
REMARK  status: ('A' for Active; 'I' for Inactive)
ROOT
HETATM    1  C   LIG     1      14.998  29.379  14.137  1.00  0.00     0.105 A 
HETATM    2  C   LIG     1      13.707  29.201  14.531  1.00  0.00     0.092 A 
HETATM    3  C   LIG     1      13.038  30.145  15.306  1.00  0.00     0.034 A 
HETATM    4  C   LIG     1      13.745  31.306  15.676  1.00  0.00     0.002 A 
HETATM    5  C   LIG     1      15.087  31.488  15.265  1.00  0.00     0.003 A 
HETATM    6  C   LIG     1      15.731  30.512  14.482  1.00  0.00     0.040 A 
HETATM    7  N   LIG     1      13.240  28.031  14.065  1.00  0.00    -0.234 NA
HETATM    8  C   LIG     1      14.314  27.544  13.388  1.00  0.00     0.259 A 
HETATM    9  O   LIG     1      15.366  28.347  13.429  1.00  0.00    -0.302 OA
ENDROOT
TORSDOF 0
ENDMDL
MODEL 16
REMARK VINA RESULT:      -4.1     12.317     13.273
REMARK  0 active torsions:
REMARK  status: ('A' for Active; 'I' for Inactive)
ROOT
HETATM    1  C   LIG     1      14.053  29.973  14.566  1.00  0.00     0.105 A 
HETATM    2  C   LIG     1      15.295  29.572  14.179  1.00  0.00     0.092 A 
HETATM    3  C   LIG     1      15.523  28.312  13.631  1.00  0.00     0.034 A 
HETATM    4  C   LIG     1      14.417  27.452  13.489  1.00  0.00     0.002 A 
HETATM    5  C   LIG     1      13.127  27.871  13.893  1.00  0.00     0.003 A 
HETATM    6  C   LIG     1      12.935  29.153  14.442  1.00  0.00     0.040 A 
HETATM    7  N   LIG     1      16.187  30.550  14.407  1.00  0.00    -0.234 NA
HETATM    8  C   LIG     1      15.409  31.528  14.942  1.00  0.00     0.259 A 
HETATM    9  O   LIG     1      14.133  31.187  15.039  1.00  0.00    -0.302 OA
ENDROOT
TORSDOF 0
ENDMDL
MODEL 17
REMARK VINA RESULT:      -4.1      6.892      7.670
REMARK  0 active torsions:
REMARK  status: ('A' for Active; 'I' for Inactive)
ROOT
HETATM    1  C   LIG     1      15.167  32.693  18.094  1.00  0.00     0.105 A 
HETATM    2  C   LIG     1      15.467  34.017  17.996  1.00  0.00     0.092 A 
HETATM    3  C   LIG     1      15.626  34.821  19.121  1.00  0.00     0.034 A 
HETATM    4  C   LIG     1      15.464  34.216  20.383  1.00  0.00     0.002 A 
HETATM    5  C   LIG     1      15.152  32.840  20.483  1.00  0.00     0.003 A 
HETATM    6  C   LIG     1      14.999  32.058  19.322  1.00  0.00     0.040 A 
HETATM    7  N   LIG     1      15.572  34.371  16.704  1.00  0.00    -0.234 NA
HETATM    8  C   LIG     1      15.320  33.198  16.065  1.00  0.00     0.259 A 
HETATM    9  O   LIG     1      15.078  32.193  16.892  1.00  0.00    -0.302 OA
ENDROOT
TORSDOF 0
ENDMDL
MODEL 18
REMARK VINA RESULT:      -3.9     12.659     12.817
REMARK  0 active torsions:
REMARK  status: ('A' for Active; 'I' for Inactive)
ROOT
HETATM    1  C   LIG     1      28.642  38.014  19.996  1.00  0.00     0.105 A 
HETATM    2  C   LIG     1      28.301  39.079  19.221  1.00  0.00     0.092 A 
HETATM    3  C   LIG     1      29.057  40.249  19.206  1.00  0.00     0.034 A 
HETATM    4  C   LIG     1      30.199  40.298  20.029  1.00  0.00     0.002 A 
HETATM    5  C   LIG     1      30.551  39.189  20.834  1.00  0.00     0.003 A 
HETATM    6  C   LIG     1      29.762  38.023  20.823  1.00  0.00     0.040 A 
HETATM    7  N   LIG     1      27.184  38.806  18.527  1.00  0.00    -0.234 NA
HETATM    8  C   LIG     1      26.896  37.542  18.934  1.00  0.00     0.259 A 
HETATM    9  O   LIG     1      27.765  37.065  19.813  1.00  0.00    -0.302 OA
ENDROOT
TORSDOF 0
ENDMDL
