REMARK  0 active torsions:
REMARK  status: ('A' for Active; 'I' for Inactive)
ROOT
HETATM    1  C   LIG     1       0.656  -0.630  -0.091  1.00  0.00     0.105 A 
HETATM    2  C   LIG     1       0.568   0.719   0.068  1.00  0.00     0.092 A 
HETATM    3  C   LIG     1      -0.659   1.368   0.178  1.00  0.00     0.034 A 
HETATM    4  C   LIG     1      -1.823   0.577   0.118  1.00  0.00     0.002 A 
HETATM    5  C   LIG     1      -1.729  -0.825  -0.048  1.00  0.00     0.003 A 
HETATM    6  C   LIG     1      -0.470  -1.446  -0.155  1.00  0.00     0.040 A 
HETATM    7  N   LIG     1       1.797   1.261   0.097  1.00  0.00    -0.234 NA
HETATM    8  C   LIG     1       2.594   0.170  -0.052  1.00  0.00     0.259 A 
HETATM    9  O   LIG     1       1.916  -0.962  -0.165  1.00  0.00    -0.302 OA
ENDROOT
TORSDOF 0
