REMARK  3 active torsions:
REMARK  status: ('A' for Active; 'I' for Inactive)
REMARK    1  A    between atoms: C_5  and  N_6 
REMARK    2  A    between atoms: N_10  and  C_11 
REMARK    3  A    between atoms: C_13  and  C_14 
ROOT
HETATM    1  O   LIG     1      -0.192   1.965  -0.451  1.00  0.00    -0.264 OA
HETATM    2  C   LIG     1      -0.825   0.884  -0.295  1.00  0.00     0.292 A 
HETATM    3  C   LIG     1      -2.203   0.846  -0.554  1.00  0.00     0.131 A 
HETATM    4 CL   LIG     1      -2.983   2.280  -1.219  1.00  0.00    -0.076 Cl
HETATM    5  C   LIG     1      -2.908  -0.353  -0.332  1.00  0.00     0.074 A 
HETATM    6  C   LIG     1      -2.194  -1.469   0.108  1.00  0.00     0.170 A 
HETATM    7  N   LIG     1      -0.861  -1.377   0.336  1.00  0.00    -0.174 NA
HETATM    8  N   LIG     1      -0.180  -0.245   0.141  1.00  0.00    -0.197 N 
ENDROOT
BRANCH   8   9
HETATM    9  C   LIG     1       1.235  -0.252   0.411  1.00  0.00     0.063 A 
HETATM   10  C   LIG     1       1.714  -0.794   1.613  1.00  0.00     0.032 A 
HETATM   11  C   LIG     1       3.086  -0.839   1.870  1.00  0.00     0.003 A 
HETATM   12  C   LIG     1       3.993  -0.345   0.930  1.00  0.00     0.016 A 
HETATM   13  C   LIG     1       3.535   0.211  -0.277  1.00  0.00     0.050 A 
HETATM   14  C   LIG     1       2.154   0.228  -0.540  1.00  0.00     0.048 A 
BRANCH  13  15
HETATM   15  C   LIG     1       4.515   0.687  -1.320  1.00  0.00     0.417 C 
HETATM   16  F   LIG     1       4.827  -0.363  -2.163  1.00  0.00    -0.166 F 
HETATM   17  F   LIG     1       5.677   1.149  -0.726  1.00  0.00    -0.166 F 
HETATM   18  F   LIG     1       3.971   1.718  -2.065  1.00  0.00    -0.166 F 
ENDBRANCH  13  15
ENDBRANCH   8   9
BRANCH   5  19
HETATM   19  N   LIG     1      -4.323  -0.480  -0.554  1.00  0.00    -0.392 N 
HETATM   20  C   LIG     1      -5.294   0.477  -0.034  1.00  0.00     0.146 C 
HETATM   21  H   LIG     1      -4.691  -1.426  -0.806  1.00  0.00     0.159 HD
ENDBRANCH   5  19
TORSDOF 3
