REMARK  2 active torsions:
REMARK  status: ('A' for Active; 'I' for Inactive)
REMARK    1  A    between atoms: C_3  and  N_4 
REMARK       I    between atoms: N_4  and  C_5 
REMARK    2  A    between atoms: C_5  and  C_6 
ROOT
HETATM    1  O   LIG     1       0.561   1.807   1.060  1.00  0.00    -0.285 OA
HETATM    2  C   LIG     1       0.041   0.878   0.383  1.00  0.00     0.211 A 
HETATM    3  C   LIG     1       0.907  -0.004  -0.432  1.00  0.00     0.112 A 
HETATM    4  C   LIG     1       0.368  -0.984  -1.185  1.00  0.00     0.115 A 
HETATM    5 CL   LIG     1       1.373  -1.962  -2.256  1.00  0.00    -0.077 Cl
HETATM    6  C   LIG     1      -1.424   0.664   0.411  1.00  0.00     0.031 A 
HETATM    7  C   LIG     1      -2.263   1.480   1.191  1.00  0.00     0.016 A 
HETATM    8  C   LIG     1      -3.642   1.260   1.207  1.00  0.00     0.001 A 
HETATM    9  C   LIG     1      -4.195   0.227   0.447  1.00  0.00     0.001 A 
HETATM   10  C   LIG     1      -3.372  -0.589  -0.332  1.00  0.00     0.016 A 
HETATM   11  C   LIG     1      -1.982  -0.377  -0.356  1.00  0.00     0.030 A 
HETATM   12  C   LIG     1      -1.091  -1.227  -1.178  1.00  0.00     0.207 A 
HETATM   13  O   LIG     1      -1.572  -2.159  -1.879  1.00  0.00    -0.286 OA
ENDROOT
BRANCH   3  14
HETATM   14  N   LIG     1       2.322   0.239  -0.439  1.00  0.00    -0.320 N 
HETATM   15  C   LIG     1       3.268  -0.714   0.072  1.00  0.00     0.255 C 
HETATM   16  O   LIG     1       2.868  -1.798   0.577  1.00  0.00    -0.270 OA
HETATM   17  H   LIG     1       2.652   1.208  -0.648  1.00  0.00     0.169 HD
BRANCH  15  18
HETATM   18  C   LIG     1       4.736  -0.417   0.038  1.00  0.00     0.270 C 
HETATM   19 CL   LIG     1       5.101   0.984   1.075  1.00  0.00    -0.098 Cl
HETATM   20 CL   LIG     1       5.255  -0.075  -1.631  1.00  0.00    -0.098 Cl
ENDBRANCH  15  18
ENDBRANCH   3  14
TORSDOF 2
