REMARK  2 active torsions:
REMARK  status: ('A' for Active; 'I' for Inactive)
REMARK    1  A    between atoms: C_6  and  O_8 
REMARK    2  A    between atoms: O_8  and  C_9 
ROOT
HETATM    1  O   LIG     1       0.027  -0.648  -0.640  1.00  0.00    -0.311 OA
ENDROOT
BRANCH   1   2
HETATM    2  C   LIG     1      -1.221  -0.061  -0.381  1.00  0.00     0.076 A 
HETATM    3  C   LIG     1      -1.346   1.293  -0.022  1.00  0.00     0.037 A 
HETATM    4  C   LIG     1      -2.608   1.844   0.212  1.00  0.00     0.003 A 
HETATM    5  C   LIG     1      -3.755   1.056   0.079  1.00  0.00     0.007 A 
HETATM    6  C   LIG     1      -3.644  -0.291  -0.298  1.00  0.00    -0.059 A 
HETATM    7  C   LIG     1      -4.866  -1.148  -0.455  1.00  0.00     0.048 C 
HETATM    8  C   LIG     1      -2.374  -0.841  -0.532  1.00  0.00     0.044 A 
ENDBRANCH   1   2
BRANCH   1   9
HETATM    9  C   LIG     1       1.237  -0.290  -0.028  1.00  0.00     0.076 A 
HETATM   10  C   LIG     1       1.290   0.181   1.296  1.00  0.00     0.037 A 
HETATM   11  C   LIG     1       2.516   0.519   1.874  1.00  0.00     0.003 A 
HETATM   12  C   LIG     1       3.699   0.375   1.144  1.00  0.00     0.007 A 
HETATM   13  C   LIG     1       3.664  -0.130  -0.165  1.00  0.00    -0.059 A 
HETATM   14  C   LIG     1       4.929  -0.257  -0.959  1.00  0.00     0.048 C 
HETATM   15  C   LIG     1       2.428  -0.452  -0.747  1.00  0.00     0.044 A 
ENDBRANCH   1   9
TORSDOF 2
