MODEL 1
REMARK VINA RESULT:      -7.9      0.000      0.000
REMARK  2 active torsions:
REMARK  status: ('A' for Active; 'I' for Inactive)
REMARK    1  A    between atoms: C_6  and  O_8 
REMARK    2  A    between atoms: O_8  and  C_9 
ROOT
HETATM    1  O   LIG     1      16.447  36.883  22.626  1.00  0.00    -0.311 OA
ENDROOT
BRANCH   1   2
HETATM    2  C   LIG     1      17.201  36.945  21.443  1.00  0.00     0.076 A 
HETATM    3  C   LIG     1      17.013  36.029  20.393  1.00  0.00     0.037 A 
HETATM    4  C   LIG     1      17.772  36.134  19.225  1.00  0.00     0.003 A 
HETATM    5  C   LIG     1      18.714  37.158  19.089  1.00  0.00     0.007 A 
HETATM    6  C   LIG     1      18.896  38.090  20.122  1.00  0.00    -0.059 A 
HETATM    7  C   LIG     1      19.896  39.201  19.987  1.00  0.00     0.048 C 
HETATM    8  C   LIG     1      18.131  37.981  21.294  1.00  0.00     0.044 A 
ENDBRANCH   1   2
BRANCH   1   9
HETATM    9  C   LIG     1      16.968  36.951  23.926  1.00  0.00     0.076 A 
HETATM   10  C   LIG     1      16.994  38.153  24.655  1.00  0.00     0.037 A 
HETATM   11  C   LIG     1      17.512  38.178  25.952  1.00  0.00     0.003 A 
HETATM   12  C   LIG     1      17.993  37.004  26.538  1.00  0.00     0.007 A 
HETATM   13  C   LIG     1      17.938  35.790  25.836  1.00  0.00    -0.059 A 
HETATM   14  C   LIG     1      18.480  34.536  26.453  1.00  0.00     0.048 C 
HETATM   15  C   LIG     1      17.432  35.774  24.527  1.00  0.00     0.044 A 
ENDBRANCH   1   9
TORSDOF 2
ENDMDL
MODEL 2
REMARK VINA RESULT:      -7.9      0.035      5.826
REMARK  2 active torsions:
REMARK  status: ('A' for Active; 'I' for Inactive)
REMARK    1  A    between atoms: C_6  and  O_8 
REMARK    2  A    between atoms: O_8  and  C_9 
ROOT
HETATM    1  O   LIG     1      16.450  36.824  22.606  1.00  0.00    -0.311 OA
ENDROOT
BRANCH   1   2
HETATM    2  C   LIG     1      16.968  36.918  23.907  1.00  0.00     0.076 A 
HETATM    3  C   LIG     1      16.981  38.132  24.617  1.00  0.00     0.037 A 
HETATM    4  C   LIG     1      17.491  38.181  25.916  1.00  0.00     0.003 A 
HETATM    5  C   LIG     1      17.980  37.021  26.524  1.00  0.00     0.007 A 
HETATM    6  C   LIG     1      17.955  35.800  25.833  1.00  0.00    -0.059 A 
HETATM    7  C   LIG     1      18.467  34.544  26.474  1.00  0.00     0.048 C 
HETATM    8  C   LIG     1      17.442  35.755  24.527  1.00  0.00     0.044 A 
ENDBRANCH   1   2
BRANCH   1   9
HETATM    9  C   LIG     1      17.199  36.911  21.424  1.00  0.00     0.076 A 
HETATM   10  C   LIG     1      17.012  36.014  20.357  1.00  0.00     0.037 A 
HETATM   11  C   LIG     1      17.772  36.138  19.192  1.00  0.00     0.003 A 
HETATM   12  C   LIG     1      18.711  37.166  19.073  1.00  0.00     0.007 A 
HETATM   13  C   LIG     1      18.881  38.091  20.115  1.00  0.00    -0.059 A 
HETATM   14  C   LIG     1      19.910  39.175  20.001  1.00  0.00     0.048 C 
HETATM   15  C   LIG     1      18.128  37.951  21.291  1.00  0.00     0.044 A 
ENDBRANCH   1   9
TORSDOF 2
ENDMDL
MODEL 3
REMARK VINA RESULT:      -7.1      1.039      5.458
REMARK  2 active torsions:
REMARK  status: ('A' for Active; 'I' for Inactive)
REMARK    1  A    between atoms: C_6  and  O_8 
REMARK    2  A    between atoms: O_8  and  C_9 
ROOT
HETATM    1  O   LIG     1      17.065  38.128  23.066  1.00  0.00    -0.311 OA
ENDROOT
BRANCH   1   2
HETATM    2  C   LIG     1      17.266  37.061  23.955  1.00  0.00     0.076 A 
HETATM    3  C   LIG     1      16.813  35.761  23.670  1.00  0.00     0.037 A 
HETATM    4  C   LIG     1      17.046  34.722  24.574  1.00  0.00     0.003 A 
HETATM    5  C   LIG     1      17.741  34.967  25.762  1.00  0.00     0.007 A 
HETATM    6  C   LIG     1      18.215  36.256  26.048  1.00  0.00    -0.059 A 
HETATM    7  C   LIG     1      18.971  36.533  27.314  1.00  0.00     0.048 C 
HETATM    8  C   LIG     1      17.978  37.297  25.137  1.00  0.00     0.044 A 
ENDBRANCH   1   2
BRANCH   1   9
HETATM    9  C   LIG     1      17.785  38.347  21.882  1.00  0.00     0.076 A 
HETATM   10  C   LIG     1      18.539  39.516  21.675  1.00  0.00     0.037 A 
HETATM   11  C   LIG     1      19.250  39.693  20.486  1.00  0.00     0.003 A 
HETATM   12  C   LIG     1      19.230  38.701  19.502  1.00  0.00     0.007 A 
HETATM   13  C   LIG     1      18.513  37.513  19.712  1.00  0.00    -0.059 A 
HETATM   14  C   LIG     1      18.466  36.461  18.645  1.00  0.00     0.048 C 
HETATM   15  C   LIG     1      17.786  37.347  20.901  1.00  0.00     0.044 A 
ENDBRANCH   1   9
TORSDOF 2
ENDMDL
MODEL 4
REMARK VINA RESULT:      -7.1      1.055      2.402
REMARK  2 active torsions:
REMARK  status: ('A' for Active; 'I' for Inactive)
REMARK    1  A    between atoms: C_6  and  O_8 
REMARK    2  A    between atoms: O_8  and  C_9 
ROOT
HETATM    1  O   LIG     1      16.785  37.798  23.193  1.00  0.00    -0.311 OA
ENDROOT
BRANCH   1   2
HETATM    2  C   LIG     1      17.561  38.183  22.089  1.00  0.00     0.076 A 
HETATM    3  C   LIG     1      18.183  39.442  22.020  1.00  0.00     0.037 A 
HETATM    4  C   LIG     1      18.962  39.781  20.911  1.00  0.00     0.003 A 
HETATM    5  C   LIG     1      19.137  38.867  19.869  1.00  0.00     0.007 A 
HETATM    6  C   LIG     1      18.537  37.600  19.936  1.00  0.00    -0.059 A 
HETATM    7  C   LIG     1      18.723  36.602  18.830  1.00  0.00     0.048 C 
HETATM    8  C   LIG     1      17.756  37.263  21.052  1.00  0.00     0.044 A 
ENDBRANCH   1   2
BRANCH   1   9
HETATM    9  C   LIG     1      17.153  36.845  24.154  1.00  0.00     0.076 A 
HETATM   10  C   LIG     1      16.764  35.497  24.052  1.00  0.00     0.037 A 
HETATM   11  C   LIG     1      17.159  34.576  25.025  1.00  0.00     0.003 A 
HETATM   12  C   LIG     1      17.957  34.985  26.097  1.00  0.00     0.007 A 
HETATM   13  C   LIG     1      18.384  36.319  26.190  1.00  0.00    -0.059 A 
HETATM   14  C   LIG     1      19.215  36.766  27.354  1.00  0.00     0.048 C 
HETATM   15  C   LIG     1      17.970  37.245  25.219  1.00  0.00     0.044 A 
ENDBRANCH   1   9
TORSDOF 2
ENDMDL
MODEL 5
REMARK VINA RESULT:      -7.0      2.730      5.111
REMARK  2 active torsions:
REMARK  status: ('A' for Active; 'I' for Inactive)
REMARK    1  A    between atoms: C_6  and  O_8 
REMARK    2  A    between atoms: O_8  and  C_9 
ROOT
HETATM    1  O   LIG     1      16.145  35.493  21.639  1.00  0.00    -0.311 OA
ENDROOT
BRANCH   1   2
HETATM    2  C   LIG     1      15.784  34.677  20.556  1.00  0.00     0.076 A 
HETATM    3  C   LIG     1      15.721  35.170  19.241  1.00  0.00     0.037 A 
HETATM    4  C   LIG     1      15.373  34.321  18.188  1.00  0.00     0.003 A 
HETATM    5  C   LIG     1      15.097  32.972  18.434  1.00  0.00     0.007 A 
HETATM    6  C   LIG     1      15.177  32.464  19.740  1.00  0.00    -0.059 A 
HETATM    7  C   LIG     1      14.894  31.017  20.019  1.00  0.00     0.048 C 
HETATM    8  C   LIG     1      15.527  33.321  20.795  1.00  0.00     0.044 A 
ENDBRANCH   1   2
BRANCH   1   9
HETATM    9  C   LIG     1      16.861  36.696  21.547  1.00  0.00     0.076 A 
HETATM   10  C   LIG     1      16.586  37.791  22.386  1.00  0.00     0.037 A 
HETATM   11  C   LIG     1      17.327  38.969  22.270  1.00  0.00     0.003 A 
HETATM   12  C   LIG     1      18.358  39.060  21.331  1.00  0.00     0.007 A 
HETATM   13  C   LIG     1      18.668  37.962  20.514  1.00  0.00    -0.059 A 
HETATM   14  C   LIG     1      19.754  38.068  19.486  1.00  0.00     0.048 C 
HETATM   15  C   LIG     1      17.909  36.786  20.622  1.00  0.00     0.044 A 
ENDBRANCH   1   9
TORSDOF 2
ENDMDL
MODEL 6
REMARK VINA RESULT:      -7.0      2.731      5.251
REMARK  2 active torsions:
REMARK  status: ('A' for Active; 'I' for Inactive)
REMARK    1  A    between atoms: C_6  and  O_8 
REMARK    2  A    between atoms: O_8  and  C_9 
ROOT
HETATM    1  O   LIG     1      16.171  35.499  21.640  1.00  0.00    -0.311 OA
ENDROOT
BRANCH   1   2
HETATM    2  C   LIG     1      16.880  36.706  21.547  1.00  0.00     0.076 A 
HETATM    3  C   LIG     1      16.599  37.800  22.386  1.00  0.00     0.037 A 
HETATM    4  C   LIG     1      17.338  38.979  22.273  1.00  0.00     0.003 A 
HETATM    5  C   LIG     1      18.370  39.075  21.335  1.00  0.00     0.007 A 
HETATM    6  C   LIG     1      18.673  37.984  20.507  1.00  0.00    -0.059 A 
HETATM    7  C   LIG     1      19.784  38.067  19.502  1.00  0.00     0.048 C 
HETATM    8  C   LIG     1      17.927  36.801  20.623  1.00  0.00     0.044 A 
ENDBRANCH   1   2
BRANCH   1   9
HETATM    9  C   LIG     1      15.807  34.684  20.557  1.00  0.00     0.076 A 
HETATM   10  C   LIG     1      15.739  35.180  19.243  1.00  0.00     0.037 A 
HETATM   11  C   LIG     1      15.382  34.335  18.190  1.00  0.00     0.003 A 
HETATM   12  C   LIG     1      15.106  32.987  18.435  1.00  0.00     0.007 A 
HETATM   13  C   LIG     1      15.207  32.471  19.736  1.00  0.00    -0.059 A 
HETATM   14  C   LIG     1      14.882  31.032  20.004  1.00  0.00     0.048 C 
HETATM   15  C   LIG     1      15.550  33.328  20.793  1.00  0.00     0.044 A 
ENDBRANCH   1   9
TORSDOF 2
ENDMDL
MODEL 7
REMARK VINA RESULT:      -7.0      1.711      6.058
REMARK  2 active torsions:
REMARK  status: ('A' for Active; 'I' for Inactive)
REMARK    1  A    between atoms: C_6  and  O_8 
REMARK    2  A    between atoms: O_8  and  C_9 
ROOT
HETATM    1  O   LIG     1      17.717  39.081  21.548  1.00  0.00    -0.311 OA
ENDROOT
BRANCH   1   2
HETATM    2  C   LIG     1      17.485  37.972  22.375  1.00  0.00     0.076 A 
HETATM    3  C   LIG     1      17.049  36.738  21.859  1.00  0.00     0.037 A 
HETATM    4  C   LIG     1      16.844  35.652  22.714  1.00  0.00     0.003 A 
HETATM    5  C   LIG     1      17.084  35.782  24.085  1.00  0.00     0.007 A 
HETATM    6  C   LIG     1      17.538  37.002  24.608  1.00  0.00    -0.059 A 
HETATM    7  C   LIG     1      17.810  37.155  26.076  1.00  0.00     0.048 C 
HETATM    8  C   LIG     1      17.742  38.091  23.746  1.00  0.00     0.044 A 
ENDBRANCH   1   2
BRANCH   1   9
HETATM    9  C   LIG     1      18.570  39.102  20.435  1.00  0.00     0.076 A 
HETATM   10  C   LIG     1      19.916  38.704  20.522  1.00  0.00     0.037 A 
HETATM   11  C   LIG     1      20.733  38.730  19.389  1.00  0.00     0.003 A 
HETATM   12  C   LIG     1      20.211  39.136  18.158  1.00  0.00     0.007 A 
HETATM   13  C   LIG     1      18.859  39.499  18.049  1.00  0.00    -0.059 A 
HETATM   14  C   LIG     1      18.306  39.963  16.735  1.00  0.00     0.048 C 
HETATM   15  C   LIG     1      18.048  39.488  19.194  1.00  0.00     0.044 A 
ENDBRANCH   1   9
TORSDOF 2
ENDMDL
MODEL 8
REMARK VINA RESULT:      -6.9      1.684      3.003
REMARK  2 active torsions:
REMARK  status: ('A' for Active; 'I' for Inactive)
REMARK    1  A    between atoms: C_6  and  O_8 
REMARK    2  A    between atoms: O_8  and  C_9 
ROOT
HETATM    1  O   LIG     1      17.575  38.955  21.448  1.00  0.00    -0.311 OA
ENDROOT
BRANCH   1   2
HETATM    2  C   LIG     1      18.499  39.019  20.394  1.00  0.00     0.076 A 
HETATM    3  C   LIG     1      19.853  38.681  20.571  1.00  0.00     0.037 A 
HETATM    4  C   LIG     1      20.738  38.741  19.492  1.00  0.00     0.003 A 
HETATM    5  C   LIG     1      20.282  39.127  18.228  1.00  0.00     0.007 A 
HETATM    6  C   LIG     1      18.930  39.447  18.036  1.00  0.00    -0.059 A 
HETATM    7  C   LIG     1      18.421  39.853  16.683  1.00  0.00     0.048 C 
HETATM    8  C   LIG     1      18.043  39.385  19.122  1.00  0.00     0.044 A 
ENDBRANCH   1   2
BRANCH   1   9
HETATM    9  C   LIG     1      17.399  37.864  22.311  1.00  0.00     0.076 A 
HETATM   10  C   LIG     1      17.012  36.597  21.839  1.00  0.00     0.037 A 
HETATM   11  C   LIG     1      16.856  35.532  22.729  1.00  0.00     0.003 A 
HETATM   12  C   LIG     1      17.099  35.717  24.093  1.00  0.00     0.007 A 
HETATM   13  C   LIG     1      17.522  36.966  24.572  1.00  0.00    -0.059 A 
HETATM   14  C   LIG     1      17.754  37.173  26.038  1.00  0.00     0.048 C 
HETATM   15  C   LIG     1      17.661  38.037  23.676  1.00  0.00     0.044 A 
ENDBRANCH   1   9
TORSDOF 2
ENDMDL
MODEL 9
REMARK VINA RESULT:      -6.9      9.289     10.500
REMARK  2 active torsions:
REMARK  status: ('A' for Active; 'I' for Inactive)
REMARK    1  A    between atoms: C_6  and  O_8 
REMARK    2  A    between atoms: O_8  and  C_9 
ROOT
HETATM    1  O   LIG     1      16.934  33.769  14.303  1.00  0.00    -0.311 OA
ENDROOT
BRANCH   1   2
HETATM    2  C   LIG     1      17.868  34.029  13.288  1.00  0.00     0.076 A 
HETATM    3  C   LIG     1      17.495  34.617  12.067  1.00  0.00     0.037 A 
HETATM    4  C   LIG     1      18.457  34.874  11.087  1.00  0.00     0.003 A 
HETATM    5  C   LIG     1      19.799  34.559  11.320  1.00  0.00     0.007 A 
HETATM    6  C   LIG     1      20.186  33.989  12.543  1.00  0.00    -0.059 A 
HETATM    7  C   LIG     1      21.624  33.654  12.813  1.00  0.00     0.048 C 
HETATM    8  C   LIG     1      19.216  33.733  13.524  1.00  0.00     0.044 A 
ENDBRANCH   1   2
BRANCH   1   9
HETATM    9  C   LIG     1      16.133  32.622  14.397  1.00  0.00     0.076 A 
HETATM   10  C   LIG     1      16.078  31.666  13.367  1.00  0.00     0.037 A 
HETATM   11  C   LIG     1      15.275  30.532  13.502  1.00  0.00     0.003 A 
HETATM   12  C   LIG     1      14.533  30.333  14.670  1.00  0.00     0.007 A 
HETATM   13  C   LIG     1      14.608  31.260  15.721  1.00  0.00    -0.059 A 
HETATM   14  C   LIG     1      13.790  31.062  16.961  1.00  0.00     0.048 C 
HETATM   15  C   LIG     1      15.403  32.406  15.573  1.00  0.00     0.044 A 
ENDBRANCH   1   9
TORSDOF 2
ENDMDL
MODEL 10
REMARK VINA RESULT:      -6.9      9.289     11.306
REMARK  2 active torsions:
REMARK  status: ('A' for Active; 'I' for Inactive)
REMARK    1  A    between atoms: C_6  and  O_8 
REMARK    2  A    between atoms: O_8  and  C_9 
ROOT
HETATM    1  O   LIG     1      16.927  33.761  14.318  1.00  0.00    -0.311 OA
ENDROOT
BRANCH   1   2
HETATM    2  C   LIG     1      16.122  32.615  14.406  1.00  0.00     0.076 A 
HETATM    3  C   LIG     1      16.079  31.655  13.379  1.00  0.00     0.037 A 
HETATM    4  C   LIG     1      15.277  30.519  13.513  1.00  0.00     0.003 A 
HETATM    5  C   LIG     1      14.521  30.325  14.672  1.00  0.00     0.007 A 
HETATM    6  C   LIG     1      14.571  31.266  15.712  1.00  0.00    -0.059 A 
HETATM    7  C   LIG     1      13.773  31.067  16.967  1.00  0.00     0.048 C 
HETATM    8  C   LIG     1      15.378  32.406  15.574  1.00  0.00     0.044 A 
ENDBRANCH   1   2
BRANCH   1   9
HETATM    9  C   LIG     1      17.856  34.026  13.301  1.00  0.00     0.076 A 
HETATM   10  C   LIG     1      17.476  34.615  12.082  1.00  0.00     0.037 A 
HETATM   11  C   LIG     1      18.433  34.872  11.096  1.00  0.00     0.003 A 
HETATM   12  C   LIG     1      19.776  34.559  11.324  1.00  0.00     0.007 A 
HETATM   13  C   LIG     1      20.174  34.005  12.550  1.00  0.00    -0.059 A 
HETATM   14  C   LIG     1      21.609  33.642  12.784  1.00  0.00     0.048 C 
HETATM   15  C   LIG     1      19.206  33.734  13.531  1.00  0.00     0.044 A 
ENDBRANCH   1   9
TORSDOF 2
ENDMDL
MODEL 11
REMARK VINA RESULT:      -6.7      2.847      5.040
REMARK  2 active torsions:
REMARK  status: ('A' for Active; 'I' for Inactive)
REMARK    1  A    between atoms: C_6  and  O_8 
REMARK    2  A    between atoms: O_8  and  C_9 
ROOT
HETATM    1  O   LIG     1      15.741  34.700  21.511  1.00  0.00    -0.311 OA
ENDROOT
BRANCH   1   2
HETATM    2  C   LIG     1      15.467  33.883  20.404  1.00  0.00     0.076 A 
HETATM    3  C   LIG     1      15.122  32.527  20.547  1.00  0.00     0.037 A 
HETATM    4  C   LIG     1      14.840  31.751  19.421  1.00  0.00     0.003 A 
HETATM    5  C   LIG     1      14.886  32.320  18.145  1.00  0.00     0.007 A 
HETATM    6  C   LIG     1      15.209  33.677  17.991  1.00  0.00    -0.059 A 
HETATM    7  C   LIG     1      15.254  34.306  16.629  1.00  0.00     0.048 C 
HETATM    8  C   LIG     1      15.493  34.453  19.126  1.00  0.00     0.044 A 
ENDBRANCH   1   2
BRANCH   1   9
HETATM    9  C   LIG     1      16.451  35.909  21.474  1.00  0.00     0.076 A 
HETATM   10  C   LIG     1      16.148  36.976  22.337  1.00  0.00     0.037 A 
HETATM   11  C   LIG     1      16.884  38.162  22.276  1.00  0.00     0.003 A 
HETATM   12  C   LIG     1      17.937  38.287  21.366  1.00  0.00     0.007 A 
HETATM   13  C   LIG     1      18.274  37.216  20.524  1.00  0.00    -0.059 A 
HETATM   14  C   LIG     1      19.384  37.360  19.527  1.00  0.00     0.048 C 
HETATM   15  C   LIG     1      17.521  36.033  20.578  1.00  0.00     0.044 A 
ENDBRANCH   1   9
TORSDOF 2
ENDMDL
MODEL 12
REMARK VINA RESULT:      -6.7      2.758      5.861
REMARK  2 active torsions:
REMARK  status: ('A' for Active; 'I' for Inactive)
REMARK    1  A    between atoms: C_6  and  O_8 
REMARK    2  A    between atoms: O_8  and  C_9 
ROOT
HETATM    1  O   LIG     1      15.738  34.909  21.522  1.00  0.00    -0.311 OA
ENDROOT
BRANCH   1   2
HETATM    2  C   LIG     1      16.498  36.087  21.469  1.00  0.00     0.076 A 
HETATM    3  C   LIG     1      16.246  37.174  22.324  1.00  0.00     0.037 A 
HETATM    4  C   LIG     1      17.036  38.323  22.252  1.00  0.00     0.003 A 
HETATM    5  C   LIG     1      18.091  38.395  21.337  1.00  0.00     0.007 A 
HETATM    6  C   LIG     1      18.365  37.309  20.492  1.00  0.00    -0.059 A 
HETATM    7  C   LIG     1      19.499  37.365  19.512  1.00  0.00     0.048 C 
HETATM    8  C   LIG     1      17.568  36.156  20.568  1.00  0.00     0.044 A 
ENDBRANCH   1   2
BRANCH   1   9
HETATM    9  C   LIG     1      15.493  34.050  20.440  1.00  0.00     0.076 A 
HETATM   10  C   LIG     1      15.225  32.681  20.623  1.00  0.00     0.037 A 
HETATM   11  C   LIG     1      14.978  31.859  19.522  1.00  0.00     0.003 A 
HETATM   12  C   LIG     1      14.978  32.397  18.231  1.00  0.00     0.007 A 
HETATM   13  C   LIG     1      15.205  33.768  18.038  1.00  0.00    -0.059 A 
HETATM   14  C   LIG     1      15.235  34.340  16.652  1.00  0.00     0.048 C 
HETATM   15  C   LIG     1      15.471  34.586  19.147  1.00  0.00     0.044 A 
ENDBRANCH   1   9
TORSDOF 2
ENDMDL
MODEL 13
REMARK VINA RESULT:      -6.6      8.931     10.795
REMARK  2 active torsions:
REMARK  status: ('A' for Active; 'I' for Inactive)
REMARK    1  A    between atoms: C_6  and  O_8 
REMARK    2  A    between atoms: O_8  and  C_9 
ROOT
HETATM    1  O   LIG     1      17.474  33.672  12.640  1.00  0.00    -0.311 OA
ENDROOT
BRANCH   1   2
HETATM    2  C   LIG     1      18.800  33.471  12.226  1.00  0.00     0.076 A 
HETATM    3  C   LIG     1      19.131  32.561  11.206  1.00  0.00     0.037 A 
HETATM    4  C   LIG     1      20.462  32.402  10.812  1.00  0.00     0.003 A 
HETATM    5  C   LIG     1      21.470  33.155  11.419  1.00  0.00     0.007 A 
HETATM    6  C   LIG     1      21.149  34.081  12.424  1.00  0.00    -0.059 A 
HETATM    7  C   LIG     1      22.219  34.906  13.079  1.00  0.00     0.048 C 
HETATM    8  C   LIG     1      19.811  34.238  12.817  1.00  0.00     0.044 A 
ENDBRANCH   1   2
BRANCH   1   9
HETATM    9  C   LIG     1      16.825  32.963  13.661  1.00  0.00     0.076 A 
HETATM   10  C   LIG     1      16.868  33.384  15.002  1.00  0.00     0.037 A 
HETATM   11  C   LIG     1      16.200  32.656  15.990  1.00  0.00     0.003 A 
HETATM   12  C   LIG     1      15.472  31.514  15.647  1.00  0.00     0.007 A 
HETATM   13  C   LIG     1      15.389  31.104  14.307  1.00  0.00    -0.059 A 
HETATM   14  C   LIG     1      14.633  29.862  13.943  1.00  0.00     0.048 C 
HETATM   15  C   LIG     1      16.076  31.829  13.321  1.00  0.00     0.044 A 
ENDBRANCH   1   9
TORSDOF 2
ENDMDL
MODEL 14
REMARK VINA RESULT:      -6.5      8.911     11.698
REMARK  2 active torsions:
REMARK  status: ('A' for Active; 'I' for Inactive)
REMARK    1  A    between atoms: C_6  and  O_8 
REMARK    2  A    between atoms: O_8  and  C_9 
ROOT
HETATM    1  O   LIG     1      17.302  33.793  12.942  1.00  0.00    -0.311 OA
ENDROOT
BRANCH   1   2
HETATM    2  C   LIG     1      16.627  32.990  13.874  1.00  0.00     0.076 A 
HETATM    3  C   LIG     1      16.475  33.376  15.218  1.00  0.00     0.037 A 
HETATM    4  C   LIG     1      15.782  32.555  16.110  1.00  0.00     0.003 A 
HETATM    5  C   LIG     1      15.225  31.351  15.671  1.00  0.00     0.007 A 
HETATM    6  C   LIG     1      15.353  30.965  14.328  1.00  0.00    -0.059 A 
HETATM    7  C   LIG     1      14.751  29.680  13.837  1.00  0.00     0.048 C 
HETATM    8  C   LIG     1      16.050  31.792  13.434  1.00  0.00     0.044 A 
ENDBRANCH   1   2
BRANCH   1   9
HETATM    9  C   LIG     1      18.584  33.545  12.432  1.00  0.00     0.076 A 
HETATM   10  C   LIG     1      18.804  32.636  11.382  1.00  0.00     0.037 A 
HETATM   11  C   LIG     1      20.096  32.423  10.895  1.00  0.00     0.003 A 
HETATM   12  C   LIG     1      21.175  33.125  11.438  1.00  0.00     0.007 A 
HETATM   13  C   LIG     1      20.965  34.063  12.460  1.00  0.00    -0.059 A 
HETATM   14  C   LIG     1      22.125  34.794  13.064  1.00  0.00     0.048 C 
HETATM   15  C   LIG     1      19.667  34.261  12.958  1.00  0.00     0.044 A 
ENDBRANCH   1   9
TORSDOF 2
ENDMDL
MODEL 15
REMARK VINA RESULT:      -6.5      8.518     11.085
REMARK  2 active torsions:
REMARK  status: ('A' for Active; 'I' for Inactive)
REMARK    1  A    between atoms: C_6  and  O_8 
REMARK    2  A    between atoms: O_8  and  C_9 
ROOT
HETATM    1  O   LIG     1      17.410  33.547  15.165  1.00  0.00    -0.311 OA
ENDROOT
BRANCH   1   2
HETATM    2  C   LIG     1      16.311  32.713  15.418  1.00  0.00     0.076 A 
HETATM    3  C   LIG     1      15.367  33.008  16.419  1.00  0.00     0.037 A 
HETATM    4  C   LIG     1      14.278  32.160  16.629  1.00  0.00     0.003 A 
HETATM    5  C   LIG     1      14.111  31.019  15.837  1.00  0.00     0.007 A 
HETATM    6  C   LIG     1      15.035  30.726  14.822  1.00  0.00    -0.059 A 
HETATM    7  C   LIG     1      14.865  29.511  13.957  1.00  0.00     0.048 C 
HETATM    8  C   LIG     1      16.129  31.580  14.615  1.00  0.00     0.044 A 
ENDBRANCH   1   2
BRANCH   1   9
HETATM    9  C   LIG     1      17.907  33.876  13.896  1.00  0.00     0.076 A 
HETATM   10  C   LIG     1      17.124  34.552  12.943  1.00  0.00     0.037 A 
HETATM   11  C   LIG     1      17.657  34.870  11.692  1.00  0.00     0.003 A 
HETATM   12  C   LIG     1      18.979  34.533  11.386  1.00  0.00     0.007 A 
HETATM   13  C   LIG     1      19.783  33.893  12.342  1.00  0.00    -0.059 A 
HETATM   14  C   LIG     1      21.191  33.504  12.005  1.00  0.00     0.048 C 
HETATM   15  C   LIG     1      19.237  33.560  13.591  1.00  0.00     0.044 A 
ENDBRANCH   1   9
TORSDOF 2
ENDMDL
MODEL 16
REMARK VINA RESULT:      -6.2      6.364      8.779
REMARK  2 active torsions:
REMARK  status: ('A' for Active; 'I' for Inactive)
REMARK    1  A    between atoms: C_6  and  O_8 
REMARK    2  A    between atoms: O_8  and  C_9 
ROOT
HETATM    1  O   LIG     1      14.223  32.864  16.552  1.00  0.00    -0.311 OA
ENDROOT
BRANCH   1   2
HETATM    2  C   LIG     1      14.592  31.920  15.582  1.00  0.00     0.076 A 
HETATM    3  C   LIG     1      15.787  32.035  14.849  1.00  0.00     0.037 A 
HETATM    4  C   LIG     1      16.126  31.065  13.903  1.00  0.00     0.003 A 
HETATM    5  C   LIG     1      15.286  29.968  13.688  1.00  0.00     0.007 A 
HETATM    6  C   LIG     1      14.102  29.833  14.428  1.00  0.00    -0.059 A 
HETATM    7  C   LIG     1      13.194  28.656  14.216  1.00  0.00     0.048 C 
HETATM    8  C   LIG     1      13.764  30.810  15.377  1.00  0.00     0.044 A 
ENDBRANCH   1   2
BRANCH   1   9
HETATM    9  C   LIG     1      14.671  32.884  17.881  1.00  0.00     0.076 A 
HETATM   10  C   LIG     1      14.665  31.730  18.685  1.00  0.00     0.037 A 
HETATM   11  C   LIG     1      15.128  31.787  20.002  1.00  0.00     0.003 A 
HETATM   12  C   LIG     1      15.617  32.989  20.521  1.00  0.00     0.007 A 
HETATM   13  C   LIG     1      15.665  34.138  19.718  1.00  0.00    -0.059 A 
HETATM   14  C   LIG     1      16.162  35.434  20.283  1.00  0.00     0.048 C 
HETATM   15  C   LIG     1      15.182  34.079  18.401  1.00  0.00     0.044 A 
ENDBRANCH   1   9
TORSDOF 2
ENDMDL
MODEL 17
REMARK VINA RESULT:      -6.2      8.154     10.569
REMARK  2 active torsions:
REMARK  status: ('A' for Active; 'I' for Inactive)
REMARK    1  A    between atoms: C_6  and  O_8 
REMARK    2  A    between atoms: O_8  and  C_9 
ROOT
HETATM    1  O   LIG     1      13.281  31.119  15.555  1.00  0.00    -0.311 OA
ENDROOT
BRANCH   1   2
HETATM    2  C   LIG     1      13.745  30.001  14.847  1.00  0.00     0.076 A 
HETATM    3  C   LIG     1      15.114  29.794  14.597  1.00  0.00     0.037 A 
HETATM    4  C   LIG     1      15.537  28.659  13.902  1.00  0.00     0.003 A 
HETATM    5  C   LIG     1      14.605  27.716  13.461  1.00  0.00     0.007 A 
HETATM    6  C   LIG     1      13.239  27.901  13.721  1.00  0.00    -0.059 A 
HETATM    7  C   LIG     1      12.225  26.894  13.263  1.00  0.00     0.048 C 
HETATM    8  C   LIG     1      12.817  29.043  14.420  1.00  0.00     0.044 A 
ENDBRANCH   1   2
BRANCH   1   9
HETATM    9  C   LIG     1      13.978  31.784  16.574  1.00  0.00     0.076 A 
HETATM   10  C   LIG     1      14.583  33.037  16.366  1.00  0.00     0.037 A 
HETATM   11  C   LIG     1      15.262  33.672  17.408  1.00  0.00     0.003 A 
HETATM   12  C   LIG     1      15.329  33.073  18.669  1.00  0.00     0.007 A 
HETATM   13  C   LIG     1      14.698  31.841  18.901  1.00  0.00    -0.059 A 
HETATM   14  C   LIG     1      14.795  31.184  20.244  1.00  0.00     0.048 C 
HETATM   15  C   LIG     1      14.032  31.199  17.845  1.00  0.00     0.044 A 
ENDBRANCH   1   9
TORSDOF 2
ENDMDL
MODEL 18
REMARK VINA RESULT:      -6.1      3.278      6.370
REMARK  2 active torsions:
REMARK  status: ('A' for Active; 'I' for Inactive)
REMARK    1  A    between atoms: C_6  and  O_8 
REMARK    2  A    between atoms: O_8  and  C_9 
ROOT
HETATM    1  O   LIG     1      16.262  35.289  19.820  1.00  0.00    -0.311 OA
ENDROOT
BRANCH   1   2
HETATM    2  C   LIG     1      16.552  35.706  21.128  1.00  0.00     0.076 A 
HETATM    3  C   LIG     1      16.730  34.789  22.179  1.00  0.00     0.037 A 
HETATM    4  C   LIG     1      17.033  35.243  23.464  1.00  0.00     0.003 A 
HETATM    5  C   LIG     1      17.174  36.612  23.711  1.00  0.00     0.007 A 
HETATM    6  C   LIG     1      17.018  37.535  22.666  1.00  0.00    -0.059 A 
HETATM    7  C   LIG     1      17.176  39.008  22.912  1.00  0.00     0.048 C 
HETATM    8  C   LIG     1      16.713  37.075  21.376  1.00  0.00     0.044 A 
ENDBRANCH   1   2
BRANCH   1   9
HETATM    9  C   LIG     1      15.700  34.054  19.465  1.00  0.00     0.076 A 
HETATM   10  C   LIG     1      15.324  33.103  20.431  1.00  0.00     0.037 A 
HETATM   11  C   LIG     1      14.759  31.887  20.039  1.00  0.00     0.003 A 
HETATM   12  C   LIG     1      14.550  31.616  18.684  1.00  0.00     0.007 A 
HETATM   13  C   LIG     1      14.885  32.571  17.712  1.00  0.00    -0.059 A 
HETATM   14  C   LIG     1      14.688  32.269  16.257  1.00  0.00     0.048 C 
HETATM   15  C   LIG     1      15.468  33.785  18.111  1.00  0.00     0.044 A 
ENDBRANCH   1   9
TORSDOF 2
ENDMDL
MODEL 19
REMARK VINA RESULT:      -6.0      2.623      4.060
REMARK  2 active torsions:
REMARK  status: ('A' for Active; 'I' for Inactive)
REMARK    1  A    between atoms: C_6  and  O_8 
REMARK    2  A    between atoms: O_8  and  C_9 
ROOT
HETATM    1  O   LIG     1      16.317  36.083  20.577  1.00  0.00    -0.311 OA
ENDROOT
BRANCH   1   2
HETATM    2  C   LIG     1      15.816  34.819  20.228  1.00  0.00     0.076 A 
HETATM    3  C   LIG     1      15.292  33.936  21.189  1.00  0.00     0.037 A 
HETATM    4  C   LIG     1      14.788  32.693  20.800  1.00  0.00     0.003 A 
HETATM    5  C   LIG     1      14.790  32.324  19.452  1.00  0.00     0.007 A 
HETATM    6  C   LIG     1      15.292  33.205  18.482  1.00  0.00    -0.059 A 
HETATM    7  C   LIG     1      15.293  32.828  17.029  1.00  0.00     0.048 C 
HETATM    8  C   LIG     1      15.798  34.453  18.877  1.00  0.00     0.044 A 
ENDBRANCH   1   2
BRANCH   1   9
HETATM    9  C   LIG     1      16.663  36.492  21.873  1.00  0.00     0.076 A 
HETATM   10  C   LIG     1      16.774  37.850  22.219  1.00  0.00     0.037 A 
HETATM   11  C   LIG     1      17.111  38.218  23.524  1.00  0.00     0.003 A 
HETATM   12  C   LIG     1      17.325  37.237  24.496  1.00  0.00     0.007 A 
HETATM   13  C   LIG     1      17.180  35.879  24.173  1.00  0.00    -0.059 A 
HETATM   14  C   LIG     1      17.438  34.826  25.208  1.00  0.00     0.048 C 
HETATM   15  C   LIG     1      16.858  35.514  22.857  1.00  0.00     0.044 A 
ENDBRANCH   1   9
TORSDOF 2
ENDMDL
MODEL 20
REMARK VINA RESULT:      -5.8      2.594      4.542
REMARK  2 active torsions:
REMARK  status: ('A' for Active; 'I' for Inactive)
REMARK    1  A    between atoms: C_6  and  O_8 
REMARK    2  A    between atoms: O_8  and  C_9 
ROOT
HETATM    1  O   LIG     1      15.857  35.079  22.014  1.00  0.00    -0.311 OA
ENDROOT
BRANCH   1   2
HETATM    2  C   LIG     1      15.627  34.482  20.765  1.00  0.00     0.076 A 
HETATM    3  C   LIG     1      15.748  35.202  19.563  1.00  0.00     0.037 A 
HETATM    4  C   LIG     1      15.527  34.568  18.339  1.00  0.00     0.003 A 
HETATM    5  C   LIG     1      15.195  33.210  18.300  1.00  0.00     0.007 A 
HETATM    6  C   LIG     1      15.091  32.477  19.492  1.00  0.00    -0.059 A 
HETATM    7  C   LIG     1      14.746  31.016  19.467  1.00  0.00     0.048 C 
HETATM    8  C   LIG     1      15.315  33.118  20.720  1.00  0.00     0.044 A 
ENDBRANCH   1   2
BRANCH   1   9
HETATM    9  C   LIG     1      16.614  36.239  22.234  1.00  0.00     0.076 A 
HETATM   10  C   LIG     1      17.283  36.901  21.189  1.00  0.00     0.037 A 
HETATM   11  C   LIG     1      18.019  38.059  21.447  1.00  0.00     0.003 A 
HETATM   12  C   LIG     1      18.082  38.576  22.744  1.00  0.00     0.007 A 
HETATM   13  C   LIG     1      17.388  37.947  23.789  1.00  0.00    -0.059 A 
HETATM   14  C   LIG     1      17.479  38.484  25.186  1.00  0.00     0.048 C 
HETATM   15  C   LIG     1      16.664  36.774  23.528  1.00  0.00     0.044 A 
ENDBRANCH   1   9
TORSDOF 2
ENDMDL
