REMARK  0 active torsions:
REMARK  status: ('A' for Active; 'I' for Inactive)
ROOT
HETATM    1  C   LIG     1       0.239   1.169  -0.461  1.00  0.00     0.000 C 
HETATM    2  C   LIG     1      -1.087   0.670   0.077  1.00  0.00     0.000 C 
HETATM    3  C   LIG     1      -0.961  -0.844   0.117  1.00  0.00     0.000 C 
HETATM    4  C   LIG     1       0.530  -1.149   0.240  1.00  0.00     0.000 C 
HETATM    5  C   LIG     1       1.273   0.167   0.024  1.00  0.00     0.000 C 
ENDROOT
TORSDOF 0
