MODEL 1
REMARK VINA RESULT:      -4.7      0.000      0.000
REMARK  0 active torsions:
REMARK  status: ('A' for Active; 'I' for Inactive)
ROOT
HETATM    1  C   LIG     1      18.320  34.866  26.292  1.00  0.00     0.000 C 
HETATM    2  C   LIG     1      18.388  36.276  26.843  1.00  0.00     0.000 C 
HETATM    3  C   LIG     1      18.127  37.185  25.654  1.00  0.00     0.000 C 
HETATM    4  C   LIG     1      17.311  36.367  24.656  1.00  0.00     0.000 C 
HETATM    5  C   LIG     1      17.313  34.924  25.157  1.00  0.00     0.000 C 
ENDROOT
TORSDOF 0
ENDMDL
MODEL 2
REMARK VINA RESULT:      -4.7      0.252      2.365
REMARK  0 active torsions:
REMARK  status: ('A' for Active; 'I' for Inactive)
ROOT
HETATM    1  C   LIG     1      18.327  37.176  25.711  1.00  0.00     0.000 C 
HETATM    2  C   LIG     1      17.253  36.602  24.810  1.00  0.00     0.000 C 
HETATM    3  C   LIG     1      17.400  35.093  24.919  1.00  0.00     0.000 C 
HETATM    4  C   LIG     1      18.045  34.821  26.276  1.00  0.00     0.000 C 
HETATM    5  C   LIG     1      18.491  36.169  26.836  1.00  0.00     0.000 C 
ENDROOT
TORSDOF 0
ENDMDL
MODEL 3
REMARK VINA RESULT:      -4.7      0.192      2.415
REMARK  0 active torsions:
REMARK  status: ('A' for Active; 'I' for Inactive)
ROOT
HETATM    1  C   LIG     1      17.376  36.333  24.591  1.00  0.00     0.000 C 
HETATM    2  C   LIG     1      17.288  34.931  25.159  1.00  0.00     0.000 C 
HETATM    3  C   LIG     1      18.307  34.889  26.286  1.00  0.00     0.000 C 
HETATM    4  C   LIG     1      18.475  36.328  26.769  1.00  0.00     0.000 C 
HETATM    5  C   LIG     1      17.748  37.221  25.767  1.00  0.00     0.000 C 
ENDROOT
TORSDOF 0
ENDMDL
MODEL 4
REMARK VINA RESULT:      -4.7      0.274      1.825
REMARK  0 active torsions:
REMARK  status: ('A' for Active; 'I' for Inactive)
ROOT
HETATM    1  C   LIG     1      17.272  36.633  24.801  1.00  0.00     0.000 C 
HETATM    2  C   LIG     1      18.341  37.181  25.725  1.00  0.00     0.000 C 
HETATM    3  C   LIG     1      18.472  36.157  26.841  1.00  0.00     0.000 C 
HETATM    4  C   LIG     1      18.017  34.822  26.256  1.00  0.00     0.000 C 
HETATM    5  C   LIG     1      17.396  35.121  24.894  1.00  0.00     0.000 C 
ENDROOT
TORSDOF 0
ENDMDL
MODEL 5
REMARK VINA RESULT:      -4.0      5.058      6.064
REMARK  0 active torsions:
REMARK  status: ('A' for Active; 'I' for Inactive)
ROOT
HETATM    1  C   LIG     1      19.138  37.631  19.288  1.00  0.00     0.000 C 
HETATM    2  C   LIG     1      19.777  38.857  19.907  1.00  0.00     0.000 C 
HETATM    3  C   LIG     1      18.779  39.354  20.940  1.00  0.00     0.000 C 
HETATM    4  C   LIG     1      17.953  38.140  21.359  1.00  0.00     0.000 C 
HETATM    5  C   LIG     1      18.306  37.008  20.397  1.00  0.00     0.000 C 
ENDROOT
TORSDOF 0
ENDMDL
MODEL 6
REMARK VINA RESULT:      -3.6     11.362     12.439
REMARK  0 active torsions:
REMARK  status: ('A' for Active; 'I' for Inactive)
ROOT
HETATM    1  C   LIG     1      14.140  31.274  16.206  1.00  0.00     0.000 C 
HETATM    2  C   LIG     1      15.263  31.603  15.244  1.00  0.00     0.000 C 
HETATM    3  C   LIG     1      15.394  30.384  14.346  1.00  0.00     0.000 C 
HETATM    4  C   LIG     1      14.029  29.700  14.346  1.00  0.00     0.000 C 
HETATM    5  C   LIG     1      13.191  30.378  15.427  1.00  0.00     0.000 C 
ENDROOT
TORSDOF 0
ENDMDL
MODEL 7
REMARK VINA RESULT:      -3.6      3.711      4.538
REMARK  0 active torsions:
REMARK  status: ('A' for Active; 'I' for Inactive)
ROOT
HETATM    1  C   LIG     1      16.846  36.392  22.432  1.00  0.00     0.000 C 
HETATM    2  C   LIG     1      17.076  37.869  22.185  1.00  0.00     0.000 C 
HETATM    3  C   LIG     1      18.156  37.936  21.118  1.00  0.00     0.000 C 
HETATM    4  C   LIG     1      18.068  36.629  20.334  1.00  0.00     0.000 C 
HETATM    5  C   LIG     1      17.113  35.715  21.098  1.00  0.00     0.000 C 
ENDROOT
TORSDOF 0
ENDMDL
MODEL 8
REMARK VINA RESULT:      -3.6     11.073     12.208
REMARK  0 active torsions:
REMARK  status: ('A' for Active; 'I' for Inactive)
ROOT
HETATM    1  C   LIG     1      14.443  29.963  14.510  1.00  0.00     0.000 C 
HETATM    2  C   LIG     1      13.183  30.257  15.298  1.00  0.00     0.000 C 
HETATM    3  C   LIG     1      13.626  31.142  16.451  1.00  0.00     0.000 C 
HETATM    4  C   LIG     1      14.897  31.850  15.987  1.00  0.00     0.000 C 
HETATM    5  C   LIG     1      15.318  31.195  14.674  1.00  0.00     0.000 C 
ENDROOT
TORSDOF 0
ENDMDL
MODEL 9
REMARK VINA RESULT:      -3.5      3.901      4.740
REMARK  0 active torsions:
REMARK  status: ('A' for Active; 'I' for Inactive)
ROOT
HETATM    1  C   LIG     1      18.011  38.525  21.754  1.00  0.00     0.000 C 
HETATM    2  C   LIG     1      17.649  37.176  21.165  1.00  0.00     0.000 C 
HETATM    3  C   LIG     1      16.692  36.545  22.163  1.00  0.00     0.000 C 
HETATM    4  C   LIG     1      16.032  37.698  22.915  1.00  0.00     0.000 C 
HETATM    5  C   LIG     1      16.781  38.970  22.526  1.00  0.00     0.000 C 
ENDROOT
TORSDOF 0
ENDMDL
MODEL 10
REMARK VINA RESULT:      -3.5      2.069      3.702
REMARK  0 active torsions:
REMARK  status: ('A' for Active; 'I' for Inactive)
ROOT
HETATM    1  C   LIG     1      17.043  36.570  21.832  1.00  0.00     0.000 C 
HETATM    2  C   LIG     1      16.685  35.198  22.365  1.00  0.00     0.000 C 
HETATM    3  C   LIG     1      17.139  35.199  23.816  1.00  0.00     0.000 C 
HETATM    4  C   LIG     1      17.132  36.657  24.268  1.00  0.00     0.000 C 
HETATM    5  C   LIG     1      16.916  37.509  23.020  1.00  0.00     0.000 C 
ENDROOT
TORSDOF 0
ENDMDL
MODEL 11
REMARK VINA RESULT:      -3.4     10.460     11.535
REMARK  0 active torsions:
REMARK  status: ('A' for Active; 'I' for Inactive)
ROOT
HETATM    1  C   LIG     1      14.664  32.551  16.448  1.00  0.00     0.000 C 
HETATM    2  C   LIG     1      13.666  31.523  16.941  1.00  0.00     0.000 C 
HETATM    3  C   LIG     1      13.399  30.618  15.749  1.00  0.00     0.000 C 
HETATM    4  C   LIG     1      14.637  30.701  14.859  1.00  0.00     0.000 C 
HETATM    5  C   LIG     1      15.505  31.830  15.408  1.00  0.00     0.000 C 
ENDROOT
TORSDOF 0
ENDMDL
MODEL 12
REMARK VINA RESULT:      -3.3      3.681      4.623
REMARK  0 active torsions:
REMARK  status: ('A' for Active; 'I' for Inactive)
ROOT
HETATM    1  C   LIG     1      16.899  36.621  22.342  1.00  0.00     0.000 C 
HETATM    2  C   LIG     1      15.416  36.906  22.218  1.00  0.00     0.000 C 
HETATM    3  C   LIG     1      14.872  35.818  21.308  1.00  0.00     0.000 C 
HETATM    4  C   LIG     1      15.816  34.626  21.448  1.00  0.00     0.000 C 
HETATM    5  C   LIG     1      17.028  35.111  22.240  1.00  0.00     0.000 C 
ENDROOT
TORSDOF 0
ENDMDL
MODEL 13
REMARK VINA RESULT:      -3.3      2.642      3.496
REMARK  0 active torsions:
REMARK  status: ('A' for Active; 'I' for Inactive)
ROOT
HETATM    1  C   LIG     1      16.753  37.286  24.070  1.00  0.00     0.000 C 
HETATM    2  C   LIG     1      17.940  38.195  24.319  1.00  0.00     0.000 C 
HETATM    3  C   LIG     1      18.300  38.768  22.959  1.00  0.00     0.000 C 
HETATM    4  C   LIG     1      17.024  38.730  22.123  1.00  0.00     0.000 C 
HETATM    5  C   LIG     1      16.000  37.916  22.910  1.00  0.00     0.000 C 
ENDROOT
TORSDOF 0
ENDMDL
MODEL 14
REMARK VINA RESULT:      -3.0     15.581     16.123
REMARK  0 active torsions:
REMARK  status: ('A' for Active; 'I' for Inactive)
ROOT
HETATM    1  C   LIG     1      20.178  23.691  36.127  1.00  0.00     0.000 C 
HETATM    2  C   LIG     1      19.779  22.807  34.962  1.00  0.00     0.000 C 
HETATM    3  C   LIG     1      20.830  23.051  33.892  1.00  0.00     0.000 C 
HETATM    4  C   LIG     1      22.090  23.509  34.623  1.00  0.00     0.000 C 
HETATM    5  C   LIG     1      21.695  23.763  36.076  1.00  0.00     0.000 C 
ENDROOT
TORSDOF 0
ENDMDL
MODEL 15
REMARK VINA RESULT:      -2.9     16.636     16.943
REMARK  0 active torsions:
REMARK  status: ('A' for Active; 'I' for Inactive)
ROOT
HETATM    1  C   LIG     1       3.784  39.622  33.986  1.00  0.00     0.000 C 
HETATM    2  C   LIG     1       4.041  41.114  33.919  1.00  0.00     0.000 C 
HETATM    3  C   LIG     1       4.480  41.510  35.320  1.00  0.00     0.000 C 
HETATM    4  C   LIG     1       5.079  40.256  35.953  1.00  0.00     0.000 C 
HETATM    5  C   LIG     1       4.763  39.091  35.019  1.00  0.00     0.000 C 
ENDROOT
TORSDOF 0
ENDMDL
MODEL 16
REMARK VINA RESULT:      -2.9     16.658     16.968
REMARK  0 active torsions:
REMARK  status: ('A' for Active; 'I' for Inactive)
ROOT
HETATM    1  C   LIG     1       4.471  41.536  35.413  1.00  0.00     0.000 C 
HETATM    2  C   LIG     1       5.225  40.310  35.888  1.00  0.00     0.000 C 
HETATM    3  C   LIG     1       4.561  39.134  35.191  1.00  0.00     0.000 C 
HETATM    4  C   LIG     1       3.935  39.689  33.914  1.00  0.00     0.000 C 
HETATM    5  C   LIG     1       4.024  41.210  33.998  1.00  0.00     0.000 C 
ENDROOT
TORSDOF 0
ENDMDL
MODEL 17
REMARK VINA RESULT:      -2.9     15.883     16.111
REMARK  0 active torsions:
REMARK  status: ('A' for Active; 'I' for Inactive)
ROOT
HETATM    1  C   LIG     1      22.128  23.576  34.692  1.00  0.00     0.000 C 
HETATM    2  C   LIG     1      21.710  23.699  36.143  1.00  0.00     0.000 C 
HETATM    3  C   LIG     1      20.191  23.670  36.128  1.00  0.00     0.000 C 
HETATM    4  C   LIG     1      19.787  22.914  34.864  1.00  0.00     0.000 C 
HETATM    5  C   LIG     1      21.054  22.726  34.034  1.00  0.00     0.000 C 
ENDROOT
TORSDOF 0
ENDMDL
MODEL 18
REMARK VINA RESULT:      -2.8     16.578     16.811
REMARK  0 active torsions:
REMARK  status: ('A' for Active; 'I' for Inactive)
ROOT
HETATM    1  C   LIG     1       3.404  39.869  33.344  1.00  0.00     0.000 C 
HETATM    2  C   LIG     1       3.371  39.931  31.830  1.00  0.00     0.000 C 
HETATM    3  C   LIG     1       3.143  41.395  31.492  1.00  0.00     0.000 C 
HETATM    4  C   LIG     1       3.677  42.199  32.675  1.00  0.00     0.000 C 
HETATM    5  C   LIG     1       3.984  41.201  33.789  1.00  0.00     0.000 C 
ENDROOT
TORSDOF 0
ENDMDL
MODEL 19
REMARK VINA RESULT:      -2.7     16.552     16.795
REMARK  0 active torsions:
REMARK  status: ('A' for Active; 'I' for Inactive)
ROOT
HETATM    1  C   LIG     1       3.262  42.365  32.270  1.00  0.00     0.000 C 
HETATM    2  C   LIG     1       3.912  41.551  33.371  1.00  0.00     0.000 C 
HETATM    3  C   LIG     1       3.524  40.109  33.087  1.00  0.00     0.000 C 
HETATM    4  C   LIG     1       3.252  40.024  31.587  1.00  0.00     0.000 C 
HETATM    5  C   LIG     1       3.241  41.454  31.054  1.00  0.00     0.000 C 
ENDROOT
TORSDOF 0
ENDMDL
MODEL 20
REMARK VINA RESULT:      -2.7     13.566     14.404
REMARK  0 active torsions:
REMARK  status: ('A' for Active; 'I' for Inactive)
ROOT
HETATM    1  C   LIG     1      21.105  33.644  12.444  1.00  0.00     0.000 C 
HETATM    2  C   LIG     1      19.694  33.953  12.901  1.00  0.00     0.000 C 
HETATM    3  C   LIG     1      18.906  34.217  11.628  1.00  0.00     0.000 C 
HETATM    4  C   LIG     1      19.625  33.461  10.513  1.00  0.00     0.000 C 
HETATM    5  C   LIG     1      20.951  32.971  11.090  1.00  0.00     0.000 C 
ENDROOT
TORSDOF 0
ENDMDL
