REMARK  1 active torsions:
REMARK  status: ('A' for Active; 'I' for Inactive)
REMARK       I    between atoms: C_2  and  N_3 
REMARK       I    between atoms: C_2  and  N_14 
REMARK    1  A    between atoms: N_3  and  C_4 
ROOT
HETATM    1  C   LIG     1       0.443  -0.961  -1.296  1.00  0.00     0.091 C 
HETATM    2  C   LIG     1      -0.606   0.173  -1.480  1.00  0.00     0.013 C 
HETATM    3  C   LIG     1      -1.312   0.358  -0.098  1.00  0.00    -0.004 C 
HETATM    4  C   LIG     1      -2.018   1.524   0.548  1.00  0.00     0.005 C 
HETATM    5  C   LIG     1      -2.827   0.778   1.665  1.00  0.00     0.001 C 
HETATM    6  C   LIG     1      -2.842  -0.743   1.286  1.00  0.00     0.005 C 
HETATM    7  C   LIG     1      -2.423  -0.654  -0.160  1.00  0.00    -0.006 C 
HETATM    8  C   LIG     1      -1.897  -1.654  -1.204  1.00  0.00    -0.008 C 
HETATM    9  C   LIG     1      -0.464  -2.167  -0.892  1.00  0.00     0.030 C 
HETATM   10  C   LIG     1      -1.611  -0.627  -2.306  1.00  0.00     0.012 C 
ENDROOT
BRANCH   1  11
HETATM   11  N   LIG     1       1.473  -0.649  -0.298  1.00  0.00    -0.338 N 
HETATM   12  C   LIG     1       2.425   0.409  -0.501  1.00  0.00     0.317 C 
HETATM   13  O   LIG     1       2.495   0.970  -1.630  1.00  0.00    -0.247 OA
HETATM   14  N   LIG     1       3.300   0.842   0.563  1.00  0.00    -0.343 N 
HETATM   15  C   LIG     1       4.316   1.862   0.281  1.00  0.00     0.154 C 
HETATM   16  C   LIG     1       3.156   0.303   1.919  1.00  0.00     0.154 C 
HETATM   17  H   LIG     1       1.535  -1.237   0.562  1.00  0.00     0.164 HD
ENDBRANCH   1  11
TORSDOF 1
