MODEL 1
REMARK VINA RESULT:      -5.3      0.000      0.000
REMARK  1 active torsions:
REMARK  status: ('A' for Active; 'I' for Inactive)
REMARK       I    between atoms: C_2  and  N_3 
REMARK       I    between atoms: C_2  and  N_14 
REMARK    1  A    between atoms: N_3  and  C_4 
ROOT
HETATM    1  C   LIG     1      18.827  33.757  11.387  1.00  0.00     0.091 C 
HETATM    2  C   LIG     1      20.169  33.007  11.625  1.00  0.00     0.013 C 
HETATM    3  C   LIG     1      21.094  33.984  12.419  1.00  0.00    -0.004 C 
HETATM    4  C   LIG     1      22.255  33.767  13.357  1.00  0.00     0.005 C 
HETATM    5  C   LIG     1      22.906  35.193  13.333  1.00  0.00     0.001 C 
HETATM    6  C   LIG     1      22.325  35.944  12.085  1.00  0.00     0.005 C 
HETATM    7  C   LIG     1      21.752  34.776  11.323  1.00  0.00    -0.006 C 
HETATM    8  C   LIG     1      20.756  34.617  10.161  1.00  0.00    -0.008 C 
HETATM    9  C   LIG     1      19.298  34.989  10.551  1.00  0.00     0.030 C 
HETATM   10  C   LIG     1      20.689  33.086  10.191  1.00  0.00     0.012 C 
ENDROOT
BRANCH   1  11
HETATM   11  N   LIG     1      18.136  34.128  12.628  1.00  0.00    -0.338 N 
HETATM   12  C   LIG     1      17.363  33.174  13.376  1.00  0.00     0.317 C 
HETATM   13  O   LIG     1      17.123  32.041  12.872  1.00  0.00    -0.247 OA
HETATM   14  N   LIG     1      16.857  33.487  14.692  1.00  0.00    -0.343 N 
HETATM   15  C   LIG     1      15.997  32.516  15.376  1.00  0.00     0.154 C 
HETATM   16  C   LIG     1      17.225  34.740  15.358  1.00  0.00     0.154 C 
HETATM   17  H   LIG     1      18.180  35.119  12.952  1.00  0.00     0.164 HD
ENDBRANCH   1  11
TORSDOF 1
ENDMDL
MODEL 2
REMARK VINA RESULT:      -5.2      7.454     10.845
REMARK  1 active torsions:
REMARK  status: ('A' for Active; 'I' for Inactive)
REMARK       I    between atoms: C_2  and  N_3 
REMARK       I    between atoms: C_2  and  N_14 
REMARK    1  A    between atoms: N_3  and  C_4 
ROOT
HETATM    1  C   LIG     1      17.341  36.008  20.769  1.00  0.00     0.091 C 
HETATM    2  C   LIG     1      16.135  36.527  21.603  1.00  0.00     0.013 C 
HETATM    3  C   LIG     1      16.723  37.083  22.940  1.00  0.00    -0.004 C 
HETATM    4  C   LIG     1      16.238  38.117  23.925  1.00  0.00     0.005 C 
HETATM    5  C   LIG     1      17.110  37.746  25.174  1.00  0.00     0.001 C 
HETATM    6  C   LIG     1      17.679  36.306  24.928  1.00  0.00     0.005 C 
HETATM    7  C   LIG     1      16.772  35.857  23.810  1.00  0.00    -0.006 C 
HETATM    8  C   LIG     1      16.804  34.721  22.773  1.00  0.00    -0.008 C 
HETATM    9  C   LIG     1      17.918  34.898  21.705  1.00  0.00     0.030 C 
HETATM   10  C   LIG     1      15.565  35.164  21.986  1.00  0.00     0.012 C 
ENDROOT
BRANCH   1  11
HETATM   11  N   LIG     1      18.317  37.053  20.437  1.00  0.00    -0.338 N 
HETATM   12  C   LIG     1      18.513  37.500  19.085  1.00  0.00     0.317 C 
HETATM   13  O   LIG     1      17.968  36.868  18.138  1.00  0.00    -0.247 OA
HETATM   14  N   LIG     1      19.321  38.661  18.791  1.00  0.00    -0.343 N 
HETATM   15  C   LIG     1      19.566  39.024  17.391  1.00  0.00     0.154 C 
HETATM   16  C   LIG     1      19.860  39.492  19.872  1.00  0.00     0.154 C 
HETATM   17  H   LIG     1      18.907  37.451  21.200  1.00  0.00     0.164 HD
ENDBRANCH   1  11
TORSDOF 1
ENDMDL
MODEL 3
REMARK VINA RESULT:      -4.7     13.907     15.478
REMARK  1 active torsions:
REMARK  status: ('A' for Active; 'I' for Inactive)
REMARK       I    between atoms: C_2  and  N_3 
REMARK       I    between atoms: C_2  and  N_14 
REMARK    1  A    between atoms: N_3  and  C_4 
ROOT
HETATM    1  C   LIG     1      24.979  21.920  18.473  1.00  0.00     0.091 C 
HETATM    2  C   LIG     1      23.524  22.209  18.944  1.00  0.00     0.013 C 
HETATM    3  C   LIG     1      23.435  21.742  20.432  1.00  0.00    -0.004 C 
HETATM    4  C   LIG     1      22.552  22.148  21.586  1.00  0.00     0.005 C 
HETATM    5  C   LIG     1      22.757  20.921  22.541  1.00  0.00     0.001 C 
HETATM    6  C   LIG     1      23.377  19.766  21.682  1.00  0.00     0.005 C 
HETATM    7  C   LIG     1      23.082  20.286  20.297  1.00  0.00    -0.006 C 
HETATM    8  C   LIG     1      23.586  19.957  18.882  1.00  0.00    -0.008 C 
HETATM    9  C   LIG     1      25.065  20.370  18.647  1.00  0.00     0.030 C 
HETATM   10  C   LIG     1      22.843  21.088  18.161  1.00  0.00     0.012 C 
ENDROOT
BRANCH   1  11
HETATM   11  N   LIG     1      25.997  22.648  19.240  1.00  0.00    -0.338 N 
HETATM   12  C   LIG     1      26.332  24.015  18.944  1.00  0.00     0.317 C 
HETATM   13  O   LIG     1      25.873  24.551  17.897  1.00  0.00    -0.247 OA
HETATM   14  N   LIG     1      27.181  24.784  19.823  1.00  0.00    -0.343 N 
HETATM   15  C   LIG     1      27.568  26.144  19.431  1.00  0.00     0.154 C 
HETATM   16  C   LIG     1      27.623  24.235  21.109  1.00  0.00     0.154 C 
HETATM   17  H   LIG     1      26.514  22.145  19.994  1.00  0.00     0.164 HD
ENDBRANCH   1  11
TORSDOF 1
ENDMDL
MODEL 4
REMARK VINA RESULT:      -4.6      7.101      8.477
REMARK  1 active torsions:
REMARK  status: ('A' for Active; 'I' for Inactive)
REMARK       I    between atoms: C_2  and  N_3 
REMARK       I    between atoms: C_2  and  N_14 
REMARK    1  A    between atoms: N_3  and  C_4 
ROOT
HETATM    1  C   LIG     1      18.756  37.293  20.369  1.00  0.00     0.091 C 
HETATM    2  C   LIG     1      18.407  38.798  20.181  1.00  0.00     0.013 C 
HETATM    3  C   LIG     1      18.345  39.053  18.640  1.00  0.00    -0.004 C 
HETATM    4  C   LIG     1      17.622  40.072  17.795  1.00  0.00     0.005 C 
HETATM    5  C   LIG     1      18.437  39.959  16.460  1.00  0.00     0.001 C 
HETATM    6  C   LIG     1      19.778  39.222  16.800  1.00  0.00     0.005 C 
HETATM    7  C   LIG     1      19.778  39.362  18.302  1.00  0.00    -0.006 C 
HETATM    8  C   LIG     1      20.539  38.690  19.457  1.00  0.00    -0.008 C 
HETATM    9  C   LIG     1      20.147  37.201  19.665  1.00  0.00     0.030 C 
HETATM   10  C   LIG     1      19.764  39.363  20.596  1.00  0.00     0.012 C 
ENDROOT
BRANCH   1  11
HETATM   11  N   LIG     1      17.754  36.385  19.798  1.00  0.00    -0.338 N 
HETATM   12  C   LIG     1      16.925  35.556  20.631  1.00  0.00     0.317 C 
HETATM   13  O   LIG     1      17.176  35.472  21.865  1.00  0.00    -0.247 OA
HETATM   14  N   LIG     1      15.811  34.820  20.080  1.00  0.00    -0.343 N 
HETATM   15  C   LIG     1      15.052  33.917  20.952  1.00  0.00     0.154 C 
HETATM   16  C   LIG     1      15.414  34.997  18.680  1.00  0.00     0.154 C 
HETATM   17  H   LIG     1      17.672  36.315  18.760  1.00  0.00     0.164 HD
ENDBRANCH   1  11
TORSDOF 1
ENDMDL
MODEL 5
REMARK VINA RESULT:      -4.4      2.801      7.595
REMARK  1 active torsions:
REMARK  status: ('A' for Active; 'I' for Inactive)
REMARK       I    between atoms: C_2  and  N_3 
REMARK       I    between atoms: C_2  and  N_14 
REMARK    1  A    between atoms: N_3  and  C_4 
ROOT
HETATM    1  C   LIG     1      14.826  32.013  15.456  1.00  0.00     0.091 C 
HETATM    2  C   LIG     1      14.217  33.019  16.475  1.00  0.00     0.013 C 
HETATM    3  C   LIG     1      15.012  32.842  17.808  1.00  0.00    -0.004 C 
HETATM    4  C   LIG     1      15.287  33.762  18.972  1.00  0.00     0.005 C 
HETATM    5  C   LIG     1      15.714  32.718  20.060  1.00  0.00     0.001 C 
HETATM    6  C   LIG     1      15.241  31.310  19.560  1.00  0.00     0.005 C 
HETATM    7  C   LIG     1      14.265  31.730  18.490  1.00  0.00    -0.006 C 
HETATM    8  C   LIG     1      13.577  31.025  17.308  1.00  0.00    -0.008 C 
HETATM    9  C   LIG     1      14.559  30.647  16.166  1.00  0.00     0.030 C 
HETATM   10  C   LIG     1      12.907  32.274  16.722  1.00  0.00     0.012 C 
ENDROOT
BRANCH   1  11
HETATM   11  N   LIG     1      16.246  32.253  15.174  1.00  0.00    -0.338 N 
HETATM   12  C   LIG     1      16.691  32.724  13.890  1.00  0.00     0.317 C 
HETATM   13  O   LIG     1      15.873  32.767  12.929  1.00  0.00    -0.247 OA
HETATM   14  N   LIG     1      18.055  33.149  13.682  1.00  0.00    -0.343 N 
HETATM   15  C   LIG     1      18.484  33.535  12.333  1.00  0.00     0.154 C 
HETATM   16  C   LIG     1      18.994  33.235  14.804  1.00  0.00     0.154 C 
HETATM   17  H   LIG     1      16.949  32.040  15.914  1.00  0.00     0.164 HD
ENDBRANCH   1  11
TORSDOF 1
ENDMDL
MODEL 6
REMARK VINA RESULT:      -4.3     14.572     16.264
REMARK  1 active torsions:
REMARK  status: ('A' for Active; 'I' for Inactive)
REMARK       I    between atoms: C_2  and  N_3 
REMARK       I    between atoms: C_2  and  N_14 
REMARK    1  A    between atoms: N_3  and  C_4 
ROOT
HETATM    1  C   LIG     1      24.493  22.927  20.470  1.00  0.00     0.091 C 
HETATM    2  C   LIG     1      23.778  23.295  21.802  1.00  0.00     0.013 C 
HETATM    3  C   LIG     1      24.308  22.299  22.884  1.00  0.00    -0.004 C 
HETATM    4  C   LIG     1      24.428  22.380  24.385  1.00  0.00     0.005 C 
HETATM    5  C   LIG     1      24.585  20.860  24.736  1.00  0.00     0.001 C 
HETATM    6  C   LIG     1      24.119  20.046  23.481  1.00  0.00     0.005 C 
HETATM    7  C   LIG     1      23.379  21.126  22.731  1.00  0.00    -0.006 C 
HETATM    8  C   LIG     1      22.870  21.297  21.290  1.00  0.00    -0.008 C 
HETATM    9  C   LIG     1      24.015  21.456  20.251  1.00  0.00     0.030 C 
HETATM   10  C   LIG     1      22.400  22.748  21.438  1.00  0.00     0.012 C 
ENDROOT
BRANCH   1  11
HETATM   11  N   LIG     1      25.953  23.060  20.533  1.00  0.00    -0.338 N 
HETATM   12  C   LIG     1      26.611  24.305  20.243  1.00  0.00     0.317 C 
HETATM   13  O   LIG     1      25.944  25.259  19.754  1.00  0.00    -0.247 OA
HETATM   14  N   LIG     1      28.021  24.484  20.502  1.00  0.00    -0.343 N 
HETATM   15  C   LIG     1      28.665  25.741  20.104  1.00  0.00     0.154 C 
HETATM   16  C   LIG     1      28.795  23.445  21.188  1.00  0.00     0.154 C 
HETATM   17  H   LIG     1      26.526  22.218  20.759  1.00  0.00     0.164 HD
ENDBRANCH   1  11
TORSDOF 1
ENDMDL
MODEL 7
REMARK VINA RESULT:      -4.3     24.479     25.815
REMARK  1 active torsions:
REMARK  status: ('A' for Active; 'I' for Inactive)
REMARK       I    between atoms: C_2  and  N_3 
REMARK       I    between atoms: C_2  and  N_14 
REMARK    1  A    between atoms: N_3  and  C_4 
ROOT
HETATM    1  C   LIG     1      26.628  28.967  36.093  1.00  0.00     0.091 C 
HETATM    2  C   LIG     1      27.217  30.168  35.300  1.00  0.00     0.013 C 
HETATM    3  C   LIG     1      28.387  30.743  36.162  1.00  0.00    -0.004 C 
HETATM    4  C   LIG     1      29.631  31.524  35.818  1.00  0.00     0.005 C 
HETATM    5  C   LIG     1      29.995  32.107  37.227  1.00  0.00     0.001 C 
HETATM    6  C   LIG     1      28.721  31.963  38.129  1.00  0.00     0.005 C 
HETATM    7  C   LIG     1      27.679  31.713  37.068  1.00  0.00    -0.006 C 
HETATM    8  C   LIG     1      26.238  31.174  37.063  1.00  0.00    -0.008 C 
HETATM    9  C   LIG     1      26.150  29.661  37.408  1.00  0.00     0.030 C 
HETATM   10  C   LIG     1      26.065  31.141  35.540  1.00  0.00     0.012 C 
ENDROOT
BRANCH   1  11
HETATM   11  N   LIG     1      27.595  27.887  36.324  1.00  0.00    -0.338 N 
HETATM   12  C   LIG     1      27.588  26.685  35.536  1.00  0.00     0.317 C 
HETATM   13  O   LIG     1      26.628  26.470  34.745  1.00  0.00    -0.247 OA
HETATM   14  N   LIG     1      28.660  25.722  35.631  1.00  0.00    -0.343 N 
HETATM   15  C   LIG     1      28.563  24.469  34.874  1.00  0.00     0.154 C 
HETATM   16  C   LIG     1      29.851  26.002  36.440  1.00  0.00     0.154 C 
HETATM   17  H   LIG     1      28.280  27.984  37.107  1.00  0.00     0.164 HD
ENDBRANCH   1  11
TORSDOF 1
ENDMDL
MODEL 8
REMARK VINA RESULT:      -4.2     22.720     24.341
REMARK  1 active torsions:
REMARK  status: ('A' for Active; 'I' for Inactive)
REMARK       I    between atoms: C_2  and  N_3 
REMARK       I    between atoms: C_2  and  N_14 
REMARK    1  A    between atoms: N_3  and  C_4 
ROOT
HETATM    1  C   LIG     1      26.654  29.099  34.754  1.00  0.00     0.091 C 
HETATM    2  C   LIG     1      27.206  30.504  34.380  1.00  0.00     0.013 C 
HETATM    3  C   LIG     1      28.638  30.602  34.998  1.00  0.00    -0.004 C 
HETATM    4  C   LIG     1      29.861  31.409  34.639  1.00  0.00     0.005 C 
HETATM    5  C   LIG     1      30.670  31.303  35.978  1.00  0.00     0.001 C 
HETATM    6  C   LIG     1      29.669  30.825  37.085  1.00  0.00     0.005 C 
HETATM    7  C   LIG     1      28.360  31.103  36.389  1.00  0.00    -0.006 C 
HETATM    8  C   LIG     1      26.899  30.672  36.607  1.00  0.00    -0.008 C 
HETATM    9  C   LIG     1      26.656  29.165  36.315  1.00  0.00     0.030 C 
HETATM   10  C   LIG     1      26.333  31.315  35.335  1.00  0.00     0.012 C 
ENDROOT
BRANCH   1  11
HETATM   11  N   LIG     1      27.456  27.993  34.219  1.00  0.00    -0.338 N 
HETATM   12  C   LIG     1      27.099  27.324  32.998  1.00  0.00     0.317 C 
HETATM   13  O   LIG     1      25.982  27.568  32.462  1.00  0.00    -0.247 OA
HETATM   14  N   LIG     1      27.995  26.380  32.372  1.00  0.00    -0.343 N 
HETATM   15  C   LIG     1      27.548  25.655  31.178  1.00  0.00     0.154 C 
HETATM   16  C   LIG     1      29.349  26.171  32.895  1.00  0.00     0.154 C 
HETATM   17  H   LIG     1      28.285  27.664  34.761  1.00  0.00     0.164 HD
ENDBRANCH   1  11
TORSDOF 1
ENDMDL
MODEL 9
REMARK VINA RESULT:      -4.2     14.825     16.416
REMARK  1 active torsions:
REMARK  status: ('A' for Active; 'I' for Inactive)
REMARK       I    between atoms: C_2  and  N_3 
REMARK       I    between atoms: C_2  and  N_14 
REMARK    1  A    between atoms: N_3  and  C_4 
ROOT
HETATM    1  C   LIG     1      24.650  22.681  22.288  1.00  0.00     0.091 C 
HETATM    2  C   LIG     1      24.258  21.219  21.926  1.00  0.00     0.013 C 
HETATM    3  C   LIG     1      24.266  21.128  20.366  1.00  0.00    -0.004 C 
HETATM    4  C   LIG     1      24.464  19.983  19.404  1.00  0.00     0.005 C 
HETATM    5  C   LIG     1      23.863  20.607  18.097  1.00  0.00     0.001 C 
HETATM    6  C   LIG     1      23.011  21.850  18.530  1.00  0.00     0.005 C 
HETATM    7  C   LIG     1      22.874  21.570  20.005  1.00  0.00    -0.006 C 
HETATM    8  C   LIG     1      22.464  22.397  21.236  1.00  0.00    -0.008 C 
HETATM    9  C   LIG     1      23.500  23.493  21.610  1.00  0.00     0.030 C 
HETATM   10  C   LIG     1      22.777  21.322  22.284  1.00  0.00     0.012 C 
ENDROOT
BRANCH   1  11
HETATM   11  N   LIG     1      25.986  23.063  21.818  1.00  0.00    -0.338 N 
HETATM   12  C   LIG     1      27.060  23.335  22.734  1.00  0.00     0.317 C 
HETATM   13  O   LIG     1      26.813  23.421  23.969  1.00  0.00    -0.247 OA
HETATM   14  N   LIG     1      28.415  23.510  22.267  1.00  0.00    -0.343 N 
HETATM   15  C   LIG     1      29.460  23.876  23.230  1.00  0.00     0.154 C 
HETATM   16  C   LIG     1      28.758  23.289  20.859  1.00  0.00     0.154 C 
HETATM   17  H   LIG     1      26.146  23.174  20.792  1.00  0.00     0.164 HD
ENDBRANCH   1  11
TORSDOF 1
ENDMDL
MODEL 10
REMARK VINA RESULT:      -4.1     23.900     25.419
REMARK  1 active torsions:
REMARK  status: ('A' for Active; 'I' for Inactive)
REMARK       I    between atoms: C_2  and  N_3 
REMARK       I    between atoms: C_2  and  N_14 
REMARK    1  A    between atoms: N_3  and  C_4 
ROOT
HETATM    1  C   LIG     1      27.783  28.231  34.919  1.00  0.00     0.091 C 
HETATM    2  C   LIG     1      28.657  29.339  35.574  1.00  0.00     0.013 C 
HETATM    3  C   LIG     1      27.763  30.040  36.647  1.00  0.00    -0.004 C 
HETATM    4  C   LIG     1      28.078  30.798  37.912  1.00  0.00     0.005 C 
HETATM    5  C   LIG     1      26.723  31.557  38.129  1.00  0.00     0.001 C 
HETATM    6  C   LIG     1      25.939  31.498  36.773  1.00  0.00     0.005 C 
HETATM    7  C   LIG     1      27.057  31.098  35.844  1.00  0.00    -0.006 C 
HETATM    8  C   LIG     1      27.136  30.532  34.416  1.00  0.00    -0.008 C 
HETATM    9  C   LIG     1      26.616  29.072  34.307  1.00  0.00     0.030 C 
HETATM   10  C   LIG     1      28.653  30.310  34.395  1.00  0.00     0.012 C 
ENDROOT
BRANCH   1  11
HETATM   11  N   LIG     1      27.326  27.209  35.868  1.00  0.00    -0.338 N 
HETATM   12  C   LIG     1      26.961  25.887  35.436  1.00  0.00     0.317 C 
HETATM   13  O   LIG     1      26.862  25.646  34.201  1.00  0.00    -0.247 OA
HETATM   14  N   LIG     1      26.709  24.832  36.389  1.00  0.00    -0.343 N 
HETATM   15  C   LIG     1      26.252  23.525  35.903  1.00  0.00     0.154 C 
HETATM   16  C   LIG     1      26.943  25.043  37.821  1.00  0.00     0.154 C 
HETATM   17  H   LIG     1      27.230  27.464  36.876  1.00  0.00     0.164 HD
ENDBRANCH   1  11
TORSDOF 1
ENDMDL
MODEL 11
REMARK VINA RESULT:      -4.1     14.381     15.905
REMARK  1 active torsions:
REMARK  status: ('A' for Active; 'I' for Inactive)
REMARK       I    between atoms: C_2  and  N_3 
REMARK       I    between atoms: C_2  and  N_14 
REMARK    1  A    between atoms: N_3  and  C_4 
ROOT
HETATM    1  C   LIG     1      26.956  23.445  20.376  1.00  0.00     0.091 C 
HETATM    2  C   LIG     1      25.496  23.877  20.057  1.00  0.00     0.013 C 
HETATM    3  C   LIG     1      24.567  23.042  20.997  1.00  0.00    -0.004 C 
HETATM    4  C   LIG     1      23.185  23.279  21.552  1.00  0.00     0.005 C 
HETATM    5  C   LIG     1      22.800  21.820  21.978  1.00  0.00     0.001 C 
HETATM    6  C   LIG     1      23.794  20.850  21.253  1.00  0.00     0.005 C 
HETATM    7  C   LIG     1      24.348  21.782  20.205  1.00  0.00    -0.006 C 
HETATM    8  C   LIG     1      25.570  21.766  19.270  1.00  0.00    -0.008 C 
HETATM    9  C   LIG     1      26.919  21.924  20.025  1.00  0.00     0.030 C 
HETATM   10  C   LIG     1      25.380  23.178  18.704  1.00  0.00     0.012 C 
ENDROOT
BRANCH   1  11
HETATM   11  N   LIG     1      27.356  23.712  21.763  1.00  0.00    -0.338 N 
HETATM   12  C   LIG     1      28.012  24.935  22.138  1.00  0.00     0.317 C 
HETATM   13  O   LIG     1      28.413  25.723  21.237  1.00  0.00    -0.247 OA
HETATM   14  N   LIG     1      28.218  25.278  23.525  1.00  0.00    -0.343 N 
HETATM   15  C   LIG     1      28.973  26.491  23.856  1.00  0.00     0.154 C 
HETATM   16  C   LIG     1      27.652  24.450  24.595  1.00  0.00     0.154 C 
HETATM   17  H   LIG     1      27.190  22.976  22.484  1.00  0.00     0.164 HD
ENDBRANCH   1  11
TORSDOF 1
ENDMDL
MODEL 12
REMARK VINA RESULT:      -4.0     14.895     16.212
REMARK  1 active torsions:
REMARK  status: ('A' for Active; 'I' for Inactive)
REMARK       I    between atoms: C_2  and  N_3 
REMARK       I    between atoms: C_2  and  N_14 
REMARK    1  A    between atoms: N_3  and  C_4 
ROOT
HETATM    1  C   LIG     1      25.583  22.560  21.834  1.00  0.00     0.091 C 
HETATM    2  C   LIG     1      24.601  23.263  20.853  1.00  0.00     0.013 C 
HETATM    3  C   LIG     1      24.011  22.145  19.933  1.00  0.00    -0.004 C 
HETATM    4  C   LIG     1      22.724  22.027  19.155  1.00  0.00     0.005 C 
HETATM    5  C   LIG     1      23.105  20.879  18.157  1.00  0.00     0.001 C 
HETATM    6  C   LIG     1      24.667  20.752  18.174  1.00  0.00     0.005 C 
HETATM    7  C   LIG     1      25.027  22.063  18.827  1.00  0.00    -0.006 C 
HETATM    8  C   LIG     1      26.288  22.635  19.497  1.00  0.00    -0.008 C 
HETATM    9  C   LIG     1      26.628  21.947  20.848  1.00  0.00     0.030 C 
HETATM   10  C   LIG     1      25.654  23.944  19.982  1.00  0.00     0.012 C 
ENDROOT
BRANCH   1  11
HETATM   11  N   LIG     1      24.937  21.559  22.692  1.00  0.00    -0.338 N 
HETATM   12  C   LIG     1      24.539  21.863  24.039  1.00  0.00     0.317 C 
HETATM   13  O   LIG     1      24.906  22.953  24.561  1.00  0.00    -0.247 OA
HETATM   14  N   LIG     1      23.728  20.946  24.805  1.00  0.00    -0.343 N 
HETATM   15  C   LIG     1      23.424  21.260  26.205  1.00  0.00     0.154 C 
HETATM   16  C   LIG     1      23.178  19.736  24.187  1.00  0.00     0.154 C 
HETATM   17  H   LIG     1      24.799  20.593  22.322  1.00  0.00     0.164 HD
ENDBRANCH   1  11
TORSDOF 1
ENDMDL
MODEL 13
REMARK VINA RESULT:      -4.0     22.808     24.287
REMARK  1 active torsions:
REMARK  status: ('A' for Active; 'I' for Inactive)
REMARK       I    between atoms: C_2  and  N_3 
REMARK       I    between atoms: C_2  and  N_14 
REMARK    1  A    between atoms: N_3  and  C_4 
ROOT
HETATM    1  C   LIG     1      26.862  28.565  33.754  1.00  0.00     0.091 C 
HETATM    2  C   LIG     1      26.393  27.159  33.281  1.00  0.00     0.013 C 
HETATM    3  C   LIG     1      27.433  26.132  33.835  1.00  0.00    -0.004 C 
HETATM    4  C   LIG     1      27.348  24.664  34.172  1.00  0.00     0.005 C 
HETATM    5  C   LIG     1      28.872  24.293  34.194  1.00  0.00     0.001 C 
HETATM    6  C   LIG     1      29.639  25.449  33.464  1.00  0.00     0.005 C 
HETATM    7  C   LIG     1      28.486  26.121  32.761  1.00  0.00    -0.006 C 
HETATM    8  C   LIG     1      28.273  27.484  32.080  1.00  0.00    -0.008 C 
HETATM    9  C   LIG     1      28.267  28.673  33.079  1.00  0.00     0.030 C 
HETATM   10  C   LIG     1      26.773  27.315  31.810  1.00  0.00     0.012 C 
ENDROOT
BRANCH   1  11
HETATM   11  N   LIG     1      26.907  28.706  35.215  1.00  0.00    -0.338 N 
HETATM   12  C   LIG     1      26.431  29.892  35.873  1.00  0.00     0.317 C 
HETATM   13  O   LIG     1      26.130  30.905  35.182  1.00  0.00    -0.247 OA
HETATM   14  N   LIG     1      26.290  29.945  37.310  1.00  0.00    -0.343 N 
HETATM   15  C   LIG     1      25.889  31.206  37.942  1.00  0.00     0.154 C 
HETATM   16  C   LIG     1      26.506  28.748  38.129  1.00  0.00     0.154 C 
HETATM   17  H   LIG     1      27.330  27.939  35.782  1.00  0.00     0.164 HD
ENDBRANCH   1  11
TORSDOF 1
ENDMDL
MODEL 14
REMARK VINA RESULT:      -3.9     14.301     15.547
REMARK  1 active torsions:
REMARK  status: ('A' for Active; 'I' for Inactive)
REMARK       I    between atoms: C_2  and  N_3 
REMARK       I    between atoms: C_2  and  N_14 
REMARK    1  A    between atoms: N_3  and  C_4 
ROOT
HETATM    1  C   LIG     1      25.681  22.221  21.410  1.00  0.00     0.091 C 
HETATM    2  C   LIG     1      26.968  22.401  20.554  1.00  0.00     0.013 C 
HETATM    3  C   LIG     1      27.108  23.932  20.274  1.00  0.00    -0.004 C 
HETATM    4  C   LIG     1      28.290  24.817  19.965  1.00  0.00     0.005 C 
HETATM    5  C   LIG     1      27.556  26.065  19.362  1.00  0.00     0.001 C 
HETATM    6  C   LIG     1      26.101  25.612  18.995  1.00  0.00     0.005 C 
HETATM    7  C   LIG     1      26.279  24.115  19.032  1.00  0.00    -0.006 C 
HETATM    8  C   LIG     1      25.327  22.907  19.093  1.00  0.00    -0.008 C 
HETATM    9  C   LIG     1      24.583  22.783  20.452  1.00  0.00     0.030 C 
HETATM   10  C   LIG     1      26.412  21.834  19.250  1.00  0.00     0.012 C 
ENDROOT
BRANCH   1  11
HETATM   11  N   LIG     1      25.736  22.916  22.702  1.00  0.00    -0.338 N 
HETATM   12  C   LIG     1      25.054  22.409  23.862  1.00  0.00     0.317 C 
HETATM   13  O   LIG     1      24.249  21.445  23.733  1.00  0.00    -0.247 OA
HETATM   14  N   LIG     1      25.275  22.982  25.169  1.00  0.00    -0.343 N 
HETATM   15  C   LIG     1      24.488  22.490  26.305  1.00  0.00     0.154 C 
HETATM   16  C   LIG     1      26.297  24.013  25.373  1.00  0.00     0.154 C 
HETATM   17  H   LIG     1      26.254  23.820  22.765  1.00  0.00     0.164 HD
ENDBRANCH   1  11
TORSDOF 1
ENDMDL
MODEL 15
REMARK VINA RESULT:      -3.9     14.049     15.512
REMARK  1 active torsions:
REMARK  status: ('A' for Active; 'I' for Inactive)
REMARK       I    between atoms: C_2  and  N_3 
REMARK       I    between atoms: C_2  and  N_14 
REMARK    1  A    between atoms: N_3  and  C_4 
ROOT
HETATM    1  C   LIG     1      24.944  20.715  18.302  1.00  0.00     0.091 C 
HETATM    2  C   LIG     1      24.333  22.140  18.179  1.00  0.00     0.013 C 
HETATM    3  C   LIG     1      25.469  23.147  18.551  1.00  0.00    -0.004 C 
HETATM    4  C   LIG     1      25.724  24.589  18.188  1.00  0.00     0.005 C 
HETATM    5  C   LIG     1      26.749  24.982  19.307  1.00  0.00     0.001 C 
HETATM    6  C   LIG     1      26.654  23.888  20.426  1.00  0.00     0.005 C 
HETATM    7  C   LIG     1      25.344  23.243  20.047  1.00  0.00    -0.006 C 
HETATM    8  C   LIG     1      24.639  21.923  20.402  1.00  0.00    -0.008 C 
HETATM    9  C   LIG     1      25.346  20.673  19.811  1.00  0.00     0.030 C 
HETATM   10  C   LIG     1      23.462  22.084  19.432  1.00  0.00     0.012 C 
ENDROOT
BRANCH   1  11
HETATM   11  N   LIG     1      26.073  20.482  17.393  1.00  0.00    -0.338 N 
HETATM   12  C   LIG     1      25.915  19.748  16.167  1.00  0.00     0.317 C 
HETATM   13  O   LIG     1      24.832  19.140  15.944  1.00  0.00    -0.247 OA
HETATM   14  N   LIG     1      26.974  19.696  15.186  1.00  0.00    -0.343 N 
HETATM   15  C   LIG     1      26.800  18.860  13.992  1.00  0.00     0.154 C 
HETATM   16  C   LIG     1      28.192  20.495  15.353  1.00  0.00     0.154 C 
HETATM   17  H   LIG     1      27.019  20.827  17.667  1.00  0.00     0.164 HD
ENDBRANCH   1  11
TORSDOF 1
ENDMDL
MODEL 16
REMARK VINA RESULT:      -3.8     19.636     21.202
REMARK  1 active torsions:
REMARK  status: ('A' for Active; 'I' for Inactive)
REMARK       I    between atoms: C_2  and  N_3 
REMARK       I    between atoms: C_2  and  N_14 
REMARK    1  A    between atoms: N_3  and  C_4 
ROOT
HETATM    1  C   LIG     1      27.911  25.509  29.114  1.00  0.00     0.091 C 
HETATM    2  C   LIG     1      28.778  25.559  30.405  1.00  0.00     0.013 C 
HETATM    3  C   LIG     1      27.785  25.621  31.609  1.00  0.00    -0.004 C 
HETATM    4  C   LIG     1      27.896  25.210  33.056  1.00  0.00     0.005 C 
HETATM    5  C   LIG     1      26.702  26.020  33.670  1.00  0.00     0.001 C 
HETATM    6  C   LIG     1      26.304  27.119  32.626  1.00  0.00     0.005 C 
HETATM    7  C   LIG     1      27.529  27.097  31.747  1.00  0.00    -0.006 C 
HETATM    8  C   LIG     1      27.870  27.620  30.341  1.00  0.00    -0.008 C 
HETATM    9  C   LIG     1      27.128  26.858  29.208  1.00  0.00     0.030 C 
HETATM   10  C   LIG     1      29.268  26.997  30.252  1.00  0.00     0.012 C 
ENDROOT
BRANCH   1  11
HETATM   11  N   LIG     1      27.036  24.333  29.042  1.00  0.00    -0.338 N 
HETATM   12  C   LIG     1      26.314  24.002  27.844  1.00  0.00     0.317 C 
HETATM   13  O   LIG     1      26.289  24.827  26.888  1.00  0.00    -0.247 OA
HETATM   14  N   LIG     1      25.619  22.742  27.713  1.00  0.00    -0.343 N 
HETATM   15  C   LIG     1      24.821  22.489  26.509  1.00  0.00     0.154 C 
HETATM   16  C   LIG     1      25.736  21.711  28.749  1.00  0.00     0.154 C 
HETATM   17  H   LIG     1      26.909  23.747  29.896  1.00  0.00     0.164 HD
ENDBRANCH   1  11
TORSDOF 1
ENDMDL
MODEL 17
REMARK VINA RESULT:      -3.8     13.198     14.766
REMARK  1 active torsions:
REMARK  status: ('A' for Active; 'I' for Inactive)
REMARK       I    between atoms: C_2  and  N_3 
REMARK       I    between atoms: C_2  and  N_14 
REMARK    1  A    between atoms: N_3  and  C_4 
ROOT
HETATM    1  C   LIG     1      27.673  23.978  21.202  1.00  0.00     0.091 C 
HETATM    2  C   LIG     1      27.726  25.525  21.054  1.00  0.00     0.013 C 
HETATM    3  C   LIG     1      28.208  25.820  19.596  1.00  0.00    -0.004 C 
HETATM    4  C   LIG     1      28.019  26.993  18.668  1.00  0.00     0.005 C 
HETATM    5  C   LIG     1      29.170  26.725  17.638  1.00  0.00     0.001 C 
HETATM    6  C   LIG     1      30.150  25.695  18.300  1.00  0.00     0.005 C 
HETATM    7  C   LIG     1      29.705  25.801  19.737  1.00  0.00    -0.006 C 
HETATM    8  C   LIG     1      29.904  24.950  21.003  1.00  0.00    -0.008 C 
HETATM    9  C   LIG     1      29.163  23.586  20.946  1.00  0.00     0.030 C 
HETATM   10  C   LIG     1      28.969  25.758  21.910  1.00  0.00     0.012 C 
ENDROOT
BRANCH   1  11
HETATM   11  N   LIG     1      26.736  23.333  20.274  1.00  0.00    -0.338 N 
HETATM   12  C   LIG     1      25.417  22.936  20.688  1.00  0.00     0.317 C 
HETATM   13  O   LIG     1      25.114  22.979  21.913  1.00  0.00    -0.247 OA
HETATM   14  N   LIG     1      24.435  22.491  19.728  1.00  0.00    -0.343 N 
HETATM   15  C   LIG     1      23.135  22.009  20.208  1.00  0.00     0.154 C 
HETATM   16  C   LIG     1      24.710  22.552  18.289  1.00  0.00     0.154 C 
HETATM   17  H   LIG     1      27.052  23.126  19.301  1.00  0.00     0.164 HD
ENDBRANCH   1  11
TORSDOF 1
ENDMDL
MODEL 18
REMARK VINA RESULT:      -3.8     13.833     15.426
REMARK  1 active torsions:
REMARK  status: ('A' for Active; 'I' for Inactive)
REMARK       I    between atoms: C_2  and  N_3 
REMARK       I    between atoms: C_2  and  N_14 
REMARK    1  A    between atoms: N_3  and  C_4 
ROOT
HETATM    1  C   LIG     1      28.242  25.730  20.895  1.00  0.00     0.091 C 
HETATM    2  C   LIG     1      27.044  25.743  19.904  1.00  0.00     0.013 C 
HETATM    3  C   LIG     1      26.864  24.274  19.400  1.00  0.00    -0.004 C 
HETATM    4  C   LIG     1      25.681  23.510  18.860  1.00  0.00     0.005 C 
HETATM    5  C   LIG     1      26.415  22.313  18.162  1.00  0.00     0.001 C 
HETATM    6  C   LIG     1      27.919  22.725  18.002  1.00  0.00     0.005 C 
HETATM    7  C   LIG     1      27.807  24.211  18.230  1.00  0.00    -0.006 C 
HETATM    8  C   LIG     1      28.801  25.341  18.550  1.00  0.00    -0.008 C 
HETATM    9  C   LIG     1      29.406  25.238  19.977  1.00  0.00     0.030 C 
HETATM   10  C   LIG     1      27.756  26.446  18.750  1.00  0.00     0.012 C 
ENDROOT
BRANCH   1  11
HETATM   11  N   LIG     1      28.024  24.872  22.066  1.00  0.00    -0.338 N 
HETATM   12  C   LIG     1      28.270  25.342  23.402  1.00  0.00     0.317 C 
HETATM   13  O   LIG     1      28.849  26.451  23.571  1.00  0.00    -0.247 OA
HETATM   14  N   LIG     1      27.864  24.570  24.553  1.00  0.00    -0.343 N 
HETATM   15  C   LIG     1      28.217  25.048  25.894  1.00  0.00     0.154 C 
HETATM   16  C   LIG     1      27.075  23.344  24.394  1.00  0.00     0.154 C 
HETATM   17  H   LIG     1      27.719  23.886  21.917  1.00  0.00     0.164 HD
ENDBRANCH   1  11
TORSDOF 1
ENDMDL
MODEL 19
REMARK VINA RESULT:      -3.7     14.121     15.781
REMARK  1 active torsions:
REMARK  status: ('A' for Active; 'I' for Inactive)
REMARK       I    between atoms: C_2  and  N_3 
REMARK       I    between atoms: C_2  and  N_14 
REMARK    1  A    between atoms: N_3  and  C_4 
ROOT
HETATM    1  C   LIG     1      28.124  24.810  19.798  1.00  0.00     0.091 C 
HETATM    2  C   LIG     1      26.629  25.052  20.155  1.00  0.00     0.013 C 
HETATM    3  C   LIG     1      25.931  23.654  20.131  1.00  0.00    -0.004 C 
HETATM    4  C   LIG     1      24.705  23.105  20.817  1.00  0.00     0.005 C 
HETATM    5  C   LIG     1      24.423  21.847  19.925  1.00  0.00     0.001 C 
HETATM    6  C   LIG     1      25.233  22.034  18.595  1.00  0.00     0.005 C 
HETATM    7  C   LIG     1      25.542  23.508  18.685  1.00  0.00    -0.006 C 
HETATM    8  C   LIG     1      26.528  24.458  17.983  1.00  0.00    -0.008 C 
HETATM    9  C   LIG     1      28.010  24.194  18.367  1.00  0.00     0.030 C 
HETATM   10  C   LIG     1      26.217  25.696  18.832  1.00  0.00     0.012 C 
ENDROOT
BRANCH   1  11
HETATM   11  N   LIG     1      28.819  23.938  20.752  1.00  0.00    -0.338 N 
HETATM   12  C   LIG     1      29.457  24.464  21.928  1.00  0.00     0.317 C 
HETATM   13  O   LIG     1      29.577  25.714  22.060  1.00  0.00    -0.247 OA
HETATM   14  N   LIG     1      29.961  23.588  22.960  1.00  0.00    -0.343 N 
HETATM   15  C   LIG     1      30.684  24.168  24.097  1.00  0.00     0.154 C 
HETATM   16  C   LIG     1      29.722  22.143  22.900  1.00  0.00     0.154 C 
HETATM   17  H   LIG     1      28.881  22.917  20.547  1.00  0.00     0.164 HD
ENDBRANCH   1  11
TORSDOF 1
ENDMDL
MODEL 20
REMARK VINA RESULT:      -3.7     13.226     14.448
REMARK  1 active torsions:
REMARK  status: ('A' for Active; 'I' for Inactive)
REMARK       I    between atoms: C_2  and  N_3 
REMARK       I    between atoms: C_2  and  N_14 
REMARK    1  A    between atoms: N_3  and  C_4 
ROOT
HETATM    1  C   LIG     1      26.269  24.524  19.782  1.00  0.00     0.091 C 
HETATM    2  C   LIG     1      26.700  25.339  18.529  1.00  0.00     0.013 C 
HETATM    3  C   LIG     1      27.896  24.567  17.883  1.00  0.00    -0.004 C 
HETATM    4  C   LIG     1      28.439  24.504  16.477  1.00  0.00     0.005 C 
HETATM    5  C   LIG     1      29.870  23.927  16.755  1.00  0.00     0.001 C 
HETATM    6  C   LIG     1      30.155  24.117  18.285  1.00  0.00     0.005 C 
HETATM    7  C   LIG     1      29.081  25.120  18.625  1.00  0.00    -0.006 C 
HETATM    8  C   LIG     1      28.442  25.630  19.929  1.00  0.00    -0.008 C 
HETATM    9  C   LIG     1      27.573  24.559  20.643  1.00  0.00     0.030 C 
HETATM   10  C   LIG     1      27.363  26.497  19.271  1.00  0.00     0.012 C 
ENDROOT
BRANCH   1  11
HETATM   11  N   LIG     1      25.816  23.164  19.469  1.00  0.00    -0.338 N 
HETATM   12  C   LIG     1      24.833  22.492  20.274  1.00  0.00     0.317 C 
HETATM   13  O   LIG     1      24.478  23.004  21.372  1.00  0.00    -0.247 OA
HETATM   14  N   LIG     1      24.245  21.243  19.849  1.00  0.00    -0.343 N 
HETATM   15  C   LIG     1      23.315  20.550  20.747  1.00  0.00     0.154 C 
HETATM   16  C   LIG     1      24.538  20.689  18.524  1.00  0.00     0.154 C 
HETATM   17  H   LIG     1      26.248  22.663  18.662  1.00  0.00     0.164 HD
ENDBRANCH   1  11
TORSDOF 1
ENDMDL
