MODEL 1
REMARK VINA RESULT:      -4.1      0.000      0.000
REMARK  0 active torsions:
REMARK  status: ('A' for Active; 'I' for Inactive)
ROOT
HETATM    1  C   LIG     1      17.389  34.947  24.901  1.00  0.00     0.119 A 
HETATM    2  C   LIG     1      17.978  34.965  26.166  1.00  0.00     0.038 A 
HETATM    3  C   LIG     1      18.234  36.201  26.761  1.00  0.00     0.119 A 
HETATM    4  N   LIG     1      17.910  37.347  26.108  1.00  0.00    -0.254 NA
HETATM    5  C   LIG     1      17.337  37.310  24.877  1.00  0.00     0.232 A 
HETATM    6  N   LIG     1      17.079  36.116  24.281  1.00  0.00    -0.254 NA
ENDROOT
TORSDOF 0
ENDMDL
MODEL 2
REMARK VINA RESULT:      -4.1      0.043      1.940
REMARK  0 active torsions:
REMARK  status: ('A' for Active; 'I' for Inactive)
ROOT
HETATM    1  C   LIG     1      18.238  36.214  26.763  1.00  0.00     0.119 A 
HETATM    2  C   LIG     1      18.024  34.975  26.157  1.00  0.00     0.038 A 
HETATM    3  C   LIG     1      17.422  34.947  24.899  1.00  0.00     0.119 A 
HETATM    4  N   LIG     1      17.060  36.109  24.295  1.00  0.00    -0.254 NA
HETATM    5  C   LIG     1      17.276  37.305  24.900  1.00  0.00     0.232 A 
HETATM    6  N   LIG     1      17.862  37.353  26.126  1.00  0.00    -0.254 NA
ENDROOT
TORSDOF 0
ENDMDL
MODEL 3
REMARK VINA RESULT:      -3.7      5.133      6.031
REMARK  0 active torsions:
REMARK  status: ('A' for Active; 'I' for Inactive)
ROOT
HETATM    1  C   LIG     1      19.745  38.495  19.291  1.00  0.00     0.119 A 
HETATM    2  C   LIG     1      19.138  37.247  19.439  1.00  0.00     0.038 A 
HETATM    3  C   LIG     1      18.235  37.069  20.487  1.00  0.00     0.119 A 
HETATM    4  N   LIG     1      17.966  38.099  21.332  1.00  0.00    -0.254 NA
HETATM    5  C   LIG     1      18.567  39.307  21.172  1.00  0.00     0.232 A 
HETATM    6  N   LIG     1      19.449  39.499  20.156  1.00  0.00    -0.254 NA
ENDROOT
TORSDOF 0
ENDMDL
MODEL 4
REMARK VINA RESULT:      -3.7      5.097      5.955
REMARK  0 active torsions:
REMARK  status: ('A' for Active; 'I' for Inactive)
ROOT
HETATM    1  C   LIG     1      18.244  36.996  20.449  1.00  0.00     0.119 A 
HETATM    2  C   LIG     1      19.131  37.273  19.408  1.00  0.00     0.038 A 
HETATM    3  C   LIG     1      19.652  38.562  19.305  1.00  0.00     0.119 A 
HETATM    4  N   LIG     1      19.293  39.512  20.207  1.00  0.00    -0.254 NA
HETATM    5  C   LIG     1      18.428  39.225  21.215  1.00  0.00     0.232 A 
HETATM    6  N   LIG     1      17.910  37.974  21.332  1.00  0.00    -0.254 NA
ENDROOT
TORSDOF 0
ENDMDL
MODEL 5
REMARK VINA RESULT:      -3.7      1.217      1.408
REMARK  0 active torsions:
REMARK  status: ('A' for Active; 'I' for Inactive)
ROOT
HETATM    1  C   LIG     1      17.394  35.569  24.619  1.00  0.00     0.119 A 
HETATM    2  C   LIG     1      17.758  36.256  25.778  1.00  0.00     0.038 A 
HETATM    3  C   LIG     1      17.530  37.631  25.834  1.00  0.00     0.119 A 
HETATM    4  N   LIG     1      16.966  38.267  24.774  1.00  0.00    -0.254 NA
HETATM    5  C   LIG     1      16.618  37.582  23.654  1.00  0.00     0.232 A 
HETATM    6  N   LIG     1      16.832  36.242  23.581  1.00  0.00    -0.254 NA
ENDROOT
TORSDOF 0
ENDMDL
MODEL 6
REMARK VINA RESULT:      -3.6      4.820      5.963
REMARK  0 active torsions:
REMARK  status: ('A' for Active; 'I' for Inactive)
ROOT
HETATM    1  C   LIG     1      18.450  38.910  21.246  1.00  0.00     0.119 A 
HETATM    2  C   LIG     1      19.329  38.917  20.162  1.00  0.00     0.038 A 
HETATM    3  C   LIG     1      19.417  37.771  19.372  1.00  0.00     0.119 A 
HETATM    4  N   LIG     1      18.657  36.684  19.667  1.00  0.00    -0.254 NA
HETATM    5  C   LIG     1      17.807  36.695  20.727  1.00  0.00     0.232 A 
HETATM    6  N   LIG     1      17.707  37.803  21.509  1.00  0.00    -0.254 NA
ENDROOT
TORSDOF 0
ENDMDL
MODEL 7
REMARK VINA RESULT:      -3.6      1.726      2.669
REMARK  0 active torsions:
REMARK  status: ('A' for Active; 'I' for Inactive)
ROOT
HETATM    1  C   LIG     1      17.180  35.858  24.084  1.00  0.00     0.119 A 
HETATM    2  C   LIG     1      16.790  36.584  22.958  1.00  0.00     0.038 A 
HETATM    3  C   LIG     1      16.647  37.967  23.076  1.00  0.00     0.119 A 
HETATM    4  N   LIG     1      16.886  38.573  24.268  1.00  0.00    -0.254 NA
HETATM    5  C   LIG     1      17.265  37.850  25.354  1.00  0.00     0.232 A 
HETATM    6  N   LIG     1      17.411  36.502  25.258  1.00  0.00    -0.254 NA
ENDROOT
TORSDOF 0
ENDMDL
MODEL 8
REMARK VINA RESULT:      -3.5      5.359      6.136
REMARK  0 active torsions:
REMARK  status: ('A' for Active; 'I' for Inactive)
ROOT
HETATM    1  C   LIG     1      18.439  39.249  21.209  1.00  0.00     0.119 A 
HETATM    2  C   LIG     1      17.922  37.959  21.327  1.00  0.00     0.038 A 
HETATM    3  C   LIG     1      18.287  37.008  20.374  1.00  0.00     0.119 A 
HETATM    4  N   LIG     1      19.127  37.350  19.363  1.00  0.00    -0.254 NA
HETATM    5  C   LIG     1      19.622  38.612  19.264  1.00  0.00     0.232 A 
HETATM    6  N   LIG     1      19.278  39.552  20.184  1.00  0.00    -0.254 NA
ENDROOT
TORSDOF 0
ENDMDL
MODEL 9
REMARK VINA RESULT:      -3.5      2.620      3.346
REMARK  0 active torsions:
REMARK  status: ('A' for Active; 'I' for Inactive)
ROOT
HETATM    1  C   LIG     1      18.183  38.620  22.735  1.00  0.00     0.119 A 
HETATM    2  C   LIG     1      18.318  38.421  24.110  1.00  0.00     0.038 A 
HETATM    3  C   LIG     1      17.198  38.012  24.834  1.00  0.00     0.119 A 
HETATM    4  N   LIG     1      16.014  37.817  24.197  1.00  0.00    -0.254 NA
HETATM    5  C   LIG     1      15.902  38.015  22.858  1.00  0.00     0.232 A 
HETATM    6  N   LIG     1      16.982  38.414  22.135  1.00  0.00    -0.254 NA
ENDROOT
TORSDOF 0
ENDMDL
MODEL 10
REMARK VINA RESULT:      -3.3      9.044     10.218
REMARK  0 active torsions:
REMARK  status: ('A' for Active; 'I' for Inactive)
ROOT
HETATM    1  C   LIG     1      13.856  30.932  16.374  1.00  0.00     0.119 A 
HETATM    2  C   LIG     1      14.785  31.568  15.550  1.00  0.00     0.038 A 
HETATM    3  C   LIG     1      15.648  32.503  16.123  1.00  0.00     0.119 A 
HETATM    4  N   LIG     1      15.570  32.773  17.452  1.00  0.00    -0.254 NA
HETATM    5  C   LIG     1      14.658  32.143  18.238  1.00  0.00     0.232 A 
HETATM    6  N   LIG     1      13.809  31.229  17.699  1.00  0.00    -0.254 NA
ENDROOT
TORSDOF 0
ENDMDL
MODEL 11
REMARK VINA RESULT:      -3.3      1.844      3.208
REMARK  0 active torsions:
REMARK  status: ('A' for Active; 'I' for Inactive)
ROOT
HETATM    1  C   LIG     1      16.591  37.667  23.170  1.00  0.00     0.119 A 
HETATM    2  C   LIG     1      16.535  36.583  22.292  1.00  0.00     0.038 A 
HETATM    3  C   LIG     1      16.844  35.315  22.783  1.00  0.00     0.119 A 
HETATM    4  N   LIG     1      17.188  35.159  24.088  1.00  0.00    -0.254 NA
HETATM    5  C   LIG     1      17.237  36.225  24.928  1.00  0.00     0.232 A 
HETATM    6  N   LIG     1      16.939  37.469  24.468  1.00  0.00    -0.254 NA
ENDROOT
TORSDOF 0
ENDMDL
MODEL 12
REMARK VINA RESULT:      -3.3      3.884      4.094
REMARK  0 active torsions:
REMARK  status: ('A' for Active; 'I' for Inactive)
ROOT
HETATM    1  C   LIG     1      17.289  36.769  21.379  1.00  0.00     0.119 A 
HETATM    2  C   LIG     1      16.135  36.647  22.155  1.00  0.00     0.038 A 
HETATM    3  C   LIG     1      15.711  37.753  22.892  1.00  0.00     0.119 A 
HETATM    4  N   LIG     1      16.419  38.911  22.843  1.00  0.00    -0.254 NA
HETATM    5  C   LIG     1      17.540  39.012  22.083  1.00  0.00     0.232 A 
HETATM    6  N   LIG     1      17.968  37.945  21.357  1.00  0.00    -0.254 NA
ENDROOT
TORSDOF 0
ENDMDL
MODEL 13
REMARK VINA RESULT:      -3.3     10.184     11.270
REMARK  0 active torsions:
REMARK  status: ('A' for Active; 'I' for Inactive)
ROOT
HETATM    1  C   LIG     1      15.060  31.308  15.185  1.00  0.00     0.119 A 
HETATM    2  C   LIG     1      13.955  30.456  15.161  1.00  0.00     0.038 A 
HETATM    3  C   LIG     1      12.946  30.651  16.104  1.00  0.00     0.119 A 
HETATM    4  N   LIG     1      13.055  31.652  17.016  1.00  0.00    -0.254 NA
HETATM    5  C   LIG     1      14.138  32.472  17.024  1.00  0.00     0.232 A 
HETATM    6  N   LIG     1      15.132  32.298  16.113  1.00  0.00    -0.254 NA
ENDROOT
TORSDOF 0
ENDMDL
MODEL 14
REMARK VINA RESULT:      -3.3     11.433     12.303
REMARK  0 active torsions:
REMARK  status: ('A' for Active; 'I' for Inactive)
ROOT
HETATM    1  C   LIG     1      15.285  30.327  13.527  1.00  0.00     0.119 A 
HETATM    2  C   LIG     1      14.319  30.007  14.482  1.00  0.00     0.038 A 
HETATM    3  C   LIG     1      14.212  30.814  15.614  1.00  0.00     0.119 A 
HETATM    4  N   LIG     1      15.037  31.882  15.765  1.00  0.00    -0.254 NA
HETATM    5  C   LIG     1      15.972  32.179  14.825  1.00  0.00     0.232 A 
HETATM    6  N   LIG     1      16.091  31.405  13.715  1.00  0.00    -0.254 NA
ENDROOT
TORSDOF 0
ENDMDL
MODEL 15
REMARK VINA RESULT:      -3.3     11.439     12.378
REMARK  0 active torsions:
REMARK  status: ('A' for Active; 'I' for Inactive)
ROOT
HETATM    1  C   LIG     1      14.322  30.963  15.653  1.00  0.00     0.119 A 
HETATM    2  C   LIG     1      14.348  30.102  14.555  1.00  0.00     0.038 A 
HETATM    3  C   LIG     1      15.265  30.354  13.535  1.00  0.00     0.119 A 
HETATM    4  N   LIG     1      16.104  31.419  13.627  1.00  0.00    -0.254 NA
HETATM    5  C   LIG     1      16.064  32.247  14.703  1.00  0.00     0.232 A 
HETATM    6  N   LIG     1      15.178  32.017  15.708  1.00  0.00    -0.254 NA
ENDROOT
TORSDOF 0
ENDMDL
MODEL 16
REMARK VINA RESULT:      -3.3      3.913      4.822
REMARK  0 active torsions:
REMARK  status: ('A' for Active; 'I' for Inactive)
ROOT
HETATM    1  C   LIG     1      16.663  37.796  22.536  1.00  0.00     0.119 A 
HETATM    2  C   LIG     1      17.462  38.870  22.140  1.00  0.00     0.038 A 
HETATM    3  C   LIG     1      18.350  38.680  21.081  1.00  0.00     0.119 A 
HETATM    4  N   LIG     1      18.421  37.472  20.464  1.00  0.00    -0.254 NA
HETATM    5  C   LIG     1      17.635  36.439  20.863  1.00  0.00     0.232 A 
HETATM    6  N   LIG     1      16.763  36.604  21.892  1.00  0.00    -0.254 NA
ENDROOT
TORSDOF 0
ENDMDL
MODEL 17
REMARK VINA RESULT:      -3.2      4.122      4.981
REMARK  0 active torsions:
REMARK  status: ('A' for Active; 'I' for Inactive)
ROOT
HETATM    1  C   LIG     1      17.042  37.651  22.215  1.00  0.00     0.119 A 
HETATM    2  C   LIG     1      16.519  36.406  21.862  1.00  0.00     0.038 A 
HETATM    3  C   LIG     1      17.025  35.771  20.727  1.00  0.00     0.119 A 
HETATM    4  N   LIG     1      18.003  36.367  19.997  1.00  0.00    -0.254 NA
HETATM    5  C   LIG     1      18.500  37.579  20.356  1.00  0.00     0.232 A 
HETATM    6  N   LIG     1      18.021  38.213  21.458  1.00  0.00    -0.254 NA
ENDROOT
TORSDOF 0
ENDMDL
MODEL 18
REMARK VINA RESULT:      -3.2     10.697     11.705
REMARK  0 active torsions:
REMARK  status: ('A' for Active; 'I' for Inactive)
ROOT
HETATM    1  C   LIG     1      16.007  31.733  13.506  1.00  0.00     0.119 A 
HETATM    2  C   LIG     1      15.481  31.680  14.798  1.00  0.00     0.038 A 
HETATM    3  C   LIG     1      16.067  32.469  15.787  1.00  0.00     0.119 A 
HETATM    4  N   LIG     1      17.125  33.265  15.480  1.00  0.00    -0.254 NA
HETATM    5  C   LIG     1      17.624  33.305  14.217  1.00  0.00     0.232 A 
HETATM    6  N   LIG     1      17.066  32.543  13.239  1.00  0.00    -0.254 NA
ENDROOT
TORSDOF 0
ENDMDL
MODEL 19
REMARK VINA RESULT:      -3.2      3.823      4.659
REMARK  0 active torsions:
REMARK  status: ('A' for Active; 'I' for Inactive)
ROOT
HETATM    1  C   LIG     1      18.055  39.019  21.714  1.00  0.00     0.119 A 
HETATM    2  C   LIG     1      18.265  37.860  20.966  1.00  0.00     0.038 A 
HETATM    3  C   LIG     1      17.430  36.766  21.188  1.00  0.00     0.119 A 
HETATM    4  N   LIG     1      16.441  36.847  22.117  1.00  0.00    -0.254 NA
HETATM    5  C   LIG     1      16.251  37.984  22.835  1.00  0.00     0.232 A 
HETATM    6  N   LIG     1      17.054  39.061  22.632  1.00  0.00    -0.254 NA
ENDROOT
TORSDOF 0
ENDMDL
MODEL 20
REMARK VINA RESULT:      -3.2     11.658     12.476
REMARK  0 active torsions:
REMARK  status: ('A' for Active; 'I' for Inactive)
ROOT
HETATM    1  C   LIG     1      15.725  31.992  15.179  1.00  0.00     0.119 A 
HETATM    2  C   LIG     1      14.610  31.576  15.908  1.00  0.00     0.038 A 
HETATM    3  C   LIG     1      13.856  30.511  15.415  1.00  0.00     0.119 A 
HETATM    4  N   LIG     1      14.214  29.907  14.252  1.00  0.00    -0.254 NA
HETATM    5  C   LIG     1      15.303  30.326  13.556  1.00  0.00     0.232 A 
HETATM    6  N   LIG     1      16.051  31.362  14.020  1.00  0.00    -0.254 NA
ENDROOT
TORSDOF 0
ENDMDL
