REMARK  0 active torsions:
REMARK  status: ('A' for Active; 'I' for Inactive)
ROOT
HETATM    1  C   LIG     1      -0.566  -1.141   0.012  1.00  0.00     0.119 A 
HETATM    2  C   LIG     1      -1.138   0.132   0.011  1.00  0.00     0.038 A 
HETATM    3  C   LIG     1      -0.291   1.240  -0.004  1.00  0.00     0.119 A 
HETATM    4  N   LIG     1       1.056   1.063  -0.017  1.00  0.00    -0.254 NA
HETATM    5  C   LIG     1       1.595  -0.184  -0.016  1.00  0.00     0.232 A 
HETATM    6  N   LIG     1       0.786  -1.276  -0.002  1.00  0.00    -0.254 NA
ENDROOT
TORSDOF 0
