REMARK  0 active torsions:
REMARK  status: ('A' for Active; 'I' for Inactive)
ROOT
HETATM    1  C   LIG     1       1.374  -0.436  -0.060  1.00  0.00     0.141 A 
HETATM    2  C   LIG     1       0.698   0.778   0.050  1.00  0.00     0.022 A 
HETATM    3  C   LIG     1      -0.695   0.779   0.075  1.00  0.00     0.022 A 
HETATM    4  C   LIG     1      -1.376  -0.435  -0.010  1.00  0.00     0.141 A 
HETATM    5  N   LIG     1      -0.670  -1.592  -0.116  1.00  0.00    -0.163 NA
HETATM    6  N   LIG     1       0.664  -1.592  -0.140  1.00  0.00    -0.163 NA
ENDROOT
TORSDOF 0
