MODEL 1
REMARK VINA RESULT:      -4.4      0.000      0.000
REMARK  0 active torsions:
REMARK  status: ('A' for Active; 'I' for Inactive)
ROOT
HETATM    1  C   LIG     1      17.370  34.886  24.901  1.00  0.00     0.141 A 
HETATM    2  C   LIG     1      17.963  34.917  26.162  1.00  0.00     0.022 A 
HETATM    3  C   LIG     1      18.272  36.148  26.737  1.00  0.00     0.022 A 
HETATM    4  C   LIG     1      17.979  37.317  26.035  1.00  0.00     0.141 A 
HETATM    5  N   LIG     1      17.400  37.233  24.807  1.00  0.00    -0.163 NA
HETATM    6  N   LIG     1      17.105  36.054  24.258  1.00  0.00    -0.163 NA
ENDROOT
TORSDOF 0
ENDMDL
MODEL 2
REMARK VINA RESULT:      -4.1      1.612      2.437
REMARK  0 active torsions:
REMARK  status: ('A' for Active; 'I' for Inactive)
ROOT
HETATM    1  C   LIG     1      17.648  37.333  25.959  1.00  0.00     0.141 A 
HETATM    2  C   LIG     1      17.648  36.090  25.327  1.00  0.00     0.022 A 
HETATM    3  C   LIG     1      17.139  35.985  24.035  1.00  0.00     0.022 A 
HETATM    4  C   LIG     1      16.642  37.127  23.407  1.00  0.00     0.141 A 
HETATM    5  N   LIG     1      16.664  38.316  24.066  1.00  0.00    -0.163 NA
HETATM    6  N   LIG     1      17.152  38.415  25.304  1.00  0.00    -0.163 NA
ENDROOT
TORSDOF 0
ENDMDL
MODEL 3
REMARK VINA RESULT:      -4.0      9.586     10.335
REMARK  0 active torsions:
REMARK  status: ('A' for Active; 'I' for Inactive)
ROOT
HETATM    1  C   LIG     1      15.082  33.487  16.645  1.00  0.00     0.141 A 
HETATM    2  C   LIG     1      15.425  32.307  15.987  1.00  0.00     0.022 A 
HETATM    3  C   LIG     1      16.512  32.308  15.115  1.00  0.00     0.022 A 
HETATM    4  C   LIG     1      17.228  33.489  14.925  1.00  0.00     0.141 A 
HETATM    5  N   LIG     1      16.853  34.613  15.591  1.00  0.00    -0.163 NA
HETATM    6  N   LIG     1      15.812  34.612  16.425  1.00  0.00    -0.163 NA
ENDROOT
TORSDOF 0
ENDMDL
MODEL 4
REMARK VINA RESULT:      -4.0      2.768      3.520
REMARK  0 active torsions:
REMARK  status: ('A' for Active; 'I' for Inactive)
ROOT
HETATM    1  C   LIG     1      17.077  37.855  24.856  1.00  0.00     0.141 A 
HETATM    2  C   LIG     1      18.275  38.231  24.250  1.00  0.00     0.022 A 
HETATM    3  C   LIG     1      18.251  38.725  22.948  1.00  0.00     0.022 A 
HETATM    4  C   LIG     1      17.029  38.831  22.285  1.00  0.00     0.141 A 
HETATM    5  N   LIG     1      15.888  38.452  22.919  1.00  0.00    -0.163 NA
HETATM    6  N   LIG     1      15.912  37.979  24.167  1.00  0.00    -0.163 NA
ENDROOT
TORSDOF 0
ENDMDL
MODEL 5
REMARK VINA RESULT:      -3.9      5.180      5.720
REMARK  0 active torsions:
REMARK  status: ('A' for Active; 'I' for Inactive)
ROOT
HETATM    1  C   LIG     1      19.369  37.933  19.465  1.00  0.00     0.141 A 
HETATM    2  C   LIG     1      18.976  38.788  20.493  1.00  0.00     0.022 A 
HETATM    3  C   LIG     1      18.021  38.351  21.410  1.00  0.00     0.022 A 
HETATM    4  C   LIG     1      17.485  37.071  21.275  1.00  0.00     0.141 A 
HETATM    5  N   LIG     1      17.902  36.276  20.253  1.00  0.00    -0.163 NA
HETATM    6  N   LIG     1      18.816  36.695  19.376  1.00  0.00    -0.163 NA
ENDROOT
TORSDOF 0
ENDMDL
MODEL 6
REMARK VINA RESULT:      -3.9      9.286     10.084
REMARK  0 active torsions:
REMARK  status: ('A' for Active; 'I' for Inactive)
ROOT
HETATM    1  C   LIG     1      16.307  32.584  15.167  1.00  0.00     0.141 A 
HETATM    2  C   LIG     1      15.229  32.051  15.871  1.00  0.00     0.022 A 
HETATM    3  C   LIG     1      14.573  32.844  16.810  1.00  0.00     0.022 A 
HETATM    4  C   LIG     1      15.013  34.151  17.020  1.00  0.00     0.141 A 
HETATM    5  N   LIG     1      16.070  34.624  16.307  1.00  0.00    -0.163 NA
HETATM    6  N   LIG     1      16.697  33.863  15.408  1.00  0.00    -0.163 NA
ENDROOT
TORSDOF 0
ENDMDL
MODEL 7
REMARK VINA RESULT:      -3.7      3.866      4.473
REMARK  0 active torsions:
REMARK  status: ('A' for Active; 'I' for Inactive)
ROOT
HETATM    1  C   LIG     1      17.594  39.161  22.272  1.00  0.00     0.141 A 
HETATM    2  C   LIG     1      17.909  38.040  21.507  1.00  0.00     0.022 A 
HETATM    3  C   LIG     1      17.089  36.916  21.582  1.00  0.00     0.022 A 
HETATM    4  C   LIG     1      15.975  36.943  22.419  1.00  0.00     0.141 A 
HETATM    5  N   LIG     1      15.711  38.062  23.145  1.00  0.00    -0.163 NA
HETATM    6  N   LIG     1      16.497  39.138  23.073  1.00  0.00    -0.163 NA
ENDROOT
TORSDOF 0
ENDMDL
MODEL 8
REMARK VINA RESULT:      -3.7      5.277      5.761
REMARK  0 active torsions:
REMARK  status: ('A' for Active; 'I' for Inactive)
ROOT
HETATM    1  C   LIG     1      17.610  37.284  21.292  1.00  0.00     0.141 A 
HETATM    2  C   LIG     1      17.965  38.632  21.285  1.00  0.00     0.022 A 
HETATM    3  C   LIG     1      18.912  39.079  20.366  1.00  0.00     0.022 A 
HETATM    4  C   LIG     1      19.477  38.166  19.476  1.00  0.00     0.141 A 
HETATM    5  N   LIG     1      19.096  36.862  19.523  1.00  0.00    -0.163 NA
HETATM    6  N   LIG     1      18.190  36.435  20.404  1.00  0.00    -0.163 NA
ENDROOT
TORSDOF 0
ENDMDL
MODEL 9
REMARK VINA RESULT:      -3.6     11.156     12.145
REMARK  0 active torsions:
REMARK  status: ('A' for Active; 'I' for Inactive)
ROOT
HETATM    1  C   LIG     1      15.353  30.618  13.476  1.00  0.00     0.141 A 
HETATM    2  C   LIG     1      14.590  30.337  14.609  1.00  0.00     0.022 A 
HETATM    3  C   LIG     1      14.618  31.225  15.682  1.00  0.00     0.022 A 
HETATM    4  C   LIG     1      15.407  32.371  15.595  1.00  0.00     0.141 A 
HETATM    5  N   LIG     1      16.133  32.600  14.468  1.00  0.00    -0.163 NA
HETATM    6  N   LIG     1      16.106  31.749  13.441  1.00  0.00    -0.163 NA
ENDROOT
TORSDOF 0
ENDMDL
MODEL 10
REMARK VINA RESULT:      -3.5      9.323     10.480
REMARK  0 active torsions:
REMARK  status: ('A' for Active; 'I' for Inactive)
ROOT
HETATM    1  C   LIG     1      14.354  32.003  17.746  1.00  0.00     0.141 A 
HETATM    2  C   LIG     1      13.828  31.176  16.755  1.00  0.00     0.022 A 
HETATM    3  C   LIG     1      14.455  31.123  15.512  1.00  0.00     0.022 A 
HETATM    4  C   LIG     1      15.593  31.899  15.292  1.00  0.00     0.141 A 
HETATM    5  N   LIG     1      16.066  32.691  16.292  1.00  0.00    -0.163 NA
HETATM    6  N   LIG     1      15.465  32.741  17.482  1.00  0.00    -0.163 NA
ENDROOT
TORSDOF 0
ENDMDL
MODEL 11
REMARK VINA RESULT:      -3.5      6.803      8.066
REMARK  0 active torsions:
REMARK  status: ('A' for Active; 'I' for Inactive)
ROOT
HETATM    1  C   LIG     1      15.482  33.095  20.086  1.00  0.00     0.141 A 
HETATM    2  C   LIG     1      14.887  31.942  19.575  1.00  0.00     0.022 A 
HETATM    3  C   LIG     1      14.576  31.883  18.218  1.00  0.00     0.022 A 
HETATM    4  C   LIG     1      14.870  32.978  17.407  1.00  0.00     0.141 A 
HETATM    5  N   LIG     1      15.452  34.079  17.953  1.00  0.00    -0.163 NA
HETATM    6  N   LIG     1      15.748  34.135  19.253  1.00  0.00    -0.163 NA
ENDROOT
TORSDOF 0
ENDMDL
MODEL 12
REMARK VINA RESULT:      -3.5      1.635      2.249
REMARK  0 active torsions:
REMARK  status: ('A' for Active; 'I' for Inactive)
ROOT
HETATM    1  C   LIG     1      16.935  36.401  23.111  1.00  0.00     0.141 A 
HETATM    2  C   LIG     1      17.288  37.567  23.788  1.00  0.00     0.022 A 
HETATM    3  C   LIG     1      17.730  37.479  25.106  1.00  0.00     0.022 A 
HETATM    4  C   LIG     1      17.807  36.226  25.714  1.00  0.00     0.141 A 
HETATM    5  N   LIG     1      17.451  35.119  25.010  1.00  0.00    -0.163 NA
HETATM    6  N   LIG     1      17.028  35.204  23.748  1.00  0.00    -0.163 NA
ENDROOT
TORSDOF 0
ENDMDL
MODEL 13
REMARK VINA RESULT:      -3.4      2.988      3.597
REMARK  0 active torsions:
REMARK  status: ('A' for Active; 'I' for Inactive)
ROOT
HETATM    1  C   LIG     1      17.700  37.997  21.544  1.00  0.00     0.141 A 
HETATM    2  C   LIG     1      17.960  38.742  22.693  1.00  0.00     0.022 A 
HETATM    3  C   LIG     1      17.650  38.199  23.938  1.00  0.00     0.022 A 
HETATM    4  C   LIG     1      17.087  36.925  24.001  1.00  0.00     0.141 A 
HETATM    5  N   LIG     1      16.853  36.239  22.850  1.00  0.00    -0.163 NA
HETATM    6  N   LIG     1      17.151  36.760  21.659  1.00  0.00    -0.163 NA
ENDROOT
TORSDOF 0
ENDMDL
MODEL 14
REMARK VINA RESULT:      -3.4     10.563     11.478
REMARK  0 active torsions:
REMARK  status: ('A' for Active; 'I' for Inactive)
ROOT
HETATM    1  C   LIG     1      13.708  32.023  17.138  1.00  0.00     0.141 A 
HETATM    2  C   LIG     1      14.891  32.235  16.433  1.00  0.00     0.022 A 
HETATM    3  C   LIG     1      15.153  31.466  15.300  1.00  0.00     0.022 A 
HETATM    4  C   LIG     1      14.223  30.505  14.903  1.00  0.00     0.141 A 
HETATM    5  N   LIG     1      13.084  30.338  15.626  1.00  0.00    -0.163 NA
HETATM    6  N   LIG     1      12.834  31.074  16.710  1.00  0.00    -0.163 NA
ENDROOT
TORSDOF 0
ENDMDL
MODEL 15
REMARK VINA RESULT:      -3.4      3.011      3.844
REMARK  0 active torsions:
REMARK  status: ('A' for Active; 'I' for Inactive)
ROOT
HETATM    1  C   LIG     1      17.033  36.587  23.882  1.00  0.00     0.141 A 
HETATM    2  C   LIG     1      17.221  37.736  23.116  1.00  0.00     0.022 A 
HETATM    3  C   LIG     1      17.354  37.616  21.735  1.00  0.00     0.022 A 
HETATM    4  C   LIG     1      17.295  36.349  21.155  1.00  0.00     0.141 A 
HETATM    5  N   LIG     1      17.111  35.259  21.946  1.00  0.00    -0.163 NA
HETATM    6  N   LIG     1      16.983  35.375  23.269  1.00  0.00    -0.163 NA
ENDROOT
TORSDOF 0
ENDMDL
MODEL 16
REMARK VINA RESULT:      -3.3      4.292      4.710
REMARK  0 active torsions:
REMARK  status: ('A' for Active; 'I' for Inactive)
ROOT
HETATM    1  C   LIG     1      16.005  35.287  20.296  1.00  0.00     0.141 A 
HETATM    2  C   LIG     1      15.320  35.748  21.419  1.00  0.00     0.022 A 
HETATM    3  C   LIG     1      15.901  36.737  22.209  1.00  0.00     0.022 A 
HETATM    4  C   LIG     1      17.152  37.240  21.855  1.00  0.00     0.141 A 
HETATM    5  N   LIG     1      17.780  36.757  20.750  1.00  0.00    -0.163 NA
HETATM    6  N   LIG     1      17.222  35.809  19.994  1.00  0.00    -0.163 NA
ENDROOT
TORSDOF 0
ENDMDL
MODEL 17
REMARK VINA RESULT:      -3.3     10.879     11.392
REMARK  0 active torsions:
REMARK  status: ('A' for Active; 'I' for Inactive)
ROOT
HETATM    1  C   LIG     1      15.699  32.108  15.299  1.00  0.00     0.141 A 
HETATM    2  C   LIG     1      15.164  30.997  14.648  1.00  0.00     0.022 A 
HETATM    3  C   LIG     1      14.015  30.399  15.160  1.00  0.00     0.022 A 
HETATM    4  C   LIG     1      13.429  30.929  16.310  1.00  0.00     0.141 A 
HETATM    5  N   LIG     1      13.989  32.014  16.907  1.00  0.00    -0.163 NA
HETATM    6  N   LIG     1      15.090  32.586  16.416  1.00  0.00    -0.163 NA
ENDROOT
TORSDOF 0
ENDMDL
MODEL 18
REMARK VINA RESULT:      -3.3     12.640     13.502
REMARK  0 active torsions:
REMARK  status: ('A' for Active; 'I' for Inactive)
ROOT
HETATM    1  C   LIG     1      18.853  34.903  10.925  1.00  0.00     0.141 A 
HETATM    2  C   LIG     1      19.786  34.099  11.578  1.00  0.00     0.022 A 
HETATM    3  C   LIG     1      19.521  33.673  12.878  1.00  0.00     0.022 A 
HETATM    4  C   LIG     1      18.330  34.061  13.490  1.00  0.00     0.141 A 
HETATM    5  N   LIG     1      17.453  34.846  12.810  1.00  0.00    -0.163 NA
HETATM    6  N   LIG     1      17.707  35.254  11.565  1.00  0.00    -0.163 NA
ENDROOT
TORSDOF 0
ENDMDL
MODEL 19
REMARK VINA RESULT:      -3.2     13.266     14.099
REMARK  0 active torsions:
REMARK  status: ('A' for Active; 'I' for Inactive)
ROOT
HETATM    1  C   LIG     1      20.450  32.542  10.904  1.00  0.00     0.141 A 
HETATM    2  C   LIG     1      21.153  33.524  11.600  1.00  0.00     0.022 A 
HETATM    3  C   LIG     1      20.519  34.205  12.638  1.00  0.00     0.022 A 
HETATM    4  C   LIG     1      19.199  33.885  12.953  1.00  0.00     0.141 A 
HETATM    5  N   LIG     1      18.558  32.918  12.244  1.00  0.00    -0.163 NA
HETATM    6  N   LIG     1      19.165  32.267  11.250  1.00  0.00    -0.163 NA
ENDROOT
TORSDOF 0
ENDMDL
MODEL 20
REMARK VINA RESULT:      -3.1     10.346     11.038
REMARK  0 active torsions:
REMARK  status: ('A' for Active; 'I' for Inactive)
ROOT
HETATM    1  C   LIG     1      15.366  31.366  14.848  1.00  0.00     0.141 A 
HETATM    2  C   LIG     1      15.713  32.472  15.622  1.00  0.00     0.022 A 
HETATM    3  C   LIG     1      14.998  32.734  16.790  1.00  0.00     0.022 A 
HETATM    4  C   LIG     1      13.957  31.881  17.153  1.00  0.00     0.141 A 
HETATM    5  N   LIG     1      13.658  30.815  16.364  1.00  0.00    -0.163 NA
HETATM    6  N   LIG     1      14.343  30.565  15.246  1.00  0.00    -0.163 NA
ENDROOT
TORSDOF 0
ENDMDL
