REMARK  1 active torsions:
REMARK  status: ('A' for Active; 'I' for Inactive)
REMARK    1  A    between atoms: C_5  and  C_6 
ROOT
HETATM    1 CL   LIG     1      -0.783  -1.184  -4.521  1.00  0.00    -0.084 Cl
HETATM    2  C   LIG     1      -1.097  -0.846  -2.829  1.00  0.00     0.035 A 
HETATM    3  C   LIG     1      -0.054  -0.895  -1.902  1.00  0.00     0.040 A 
HETATM    4  C   LIG     1      -0.284  -0.630  -0.538  1.00  0.00     0.022 A 
HETATM    5  C   LIG     1       0.887  -0.668   0.396  1.00  0.00     0.076 C 
HETATM    6  N   LIG     1       0.817  -1.185   1.592  1.00  0.00    -0.280 NA
HETATM    7  C   LIG     1      -0.367  -1.776   2.201  1.00  0.00     0.230 C 
HETATM    8  C   LIG     1      -1.413  -0.726   2.323  1.00  0.00     0.154 A 
HETATM    9  N   LIG     1      -1.916  -0.276   3.488  1.00  0.00    -0.133 NA
HETATM   10  N   LIG     1      -2.747   0.712   3.188  1.00  0.00    -0.135 NA
HETATM   11  C   LIG     1      -2.728   0.853   1.847  1.00  0.00     0.131 A 
HETATM   12  C   LIG     1      -3.508   1.909   1.129  1.00  0.00     0.093 C 
HETATM   13  N   LIG     1      -1.900  -0.047   1.272  1.00  0.00    -0.282 N 
HETATM   14  C   LIG     1      -1.601  -0.294  -0.116  1.00  0.00     0.055 A 
HETATM   15  C   LIG     1      -2.641  -0.274  -1.062  1.00  0.00     0.033 A 
HETATM   16  C   LIG     1      -2.389  -0.539  -2.407  1.00  0.00     0.026 A 
ENDROOT
BRANCH   5  17
HETATM   17  C   LIG     1       2.183  -0.090  -0.041  1.00  0.00     0.015 A 
HETATM   18  C   LIG     1       2.194   1.179  -0.649  1.00  0.00     0.015 A 
HETATM   19  C   LIG     1       3.397   1.758  -1.059  1.00  0.00     0.001 A 
HETATM   20  C   LIG     1       4.601   1.080  -0.871  1.00  0.00     0.002 A 
HETATM   21  C   LIG     1       4.606  -0.183  -0.275  1.00  0.00     0.025 A 
HETATM   22  C   LIG     1       3.407  -0.775   0.141  1.00  0.00     0.046 A 
HETATM   23 CL   LIG     1       3.480  -2.398   0.822  1.00  0.00    -0.083 Cl
ENDBRANCH   5  17
TORSDOF 1
