MODEL 1
REMARK VINA RESULT:      -5.4      0.000      0.000
REMARK  1 active torsions:
REMARK  status: ('A' for Active; 'I' for Inactive)
REMARK    1  A    between atoms: C_5  and  C_6 
ROOT
HETATM    1 CL   LIG     1      27.330  26.559  19.371  1.00  0.00    -0.084 Cl
HETATM    2  C   LIG     1      26.681  24.931  19.424  1.00  0.00     0.035 A 
HETATM    3  C   LIG     1      26.854  24.147  20.566  1.00  0.00     0.040 A 
HETATM    4  C   LIG     1      26.344  22.835  20.629  1.00  0.00     0.022 A 
HETATM    5  C   LIG     1      26.538  22.062  21.898  1.00  0.00     0.076 C 
HETATM    6  N   LIG     1      26.841  20.793  21.909  1.00  0.00    -0.280 NA
HETATM    7  C   LIG     1      27.021  19.945  20.739  1.00  0.00     0.230 C 
HETATM    8  C   LIG     1      25.735  19.887  19.993  1.00  0.00     0.154 A 
HETATM    9  N   LIG     1      25.009  18.770  19.803  1.00  0.00    -0.133 NA
HETATM   10  N   LIG     1      23.898  19.138  19.180  1.00  0.00    -0.135 NA
HETATM   11  C   LIG     1      23.964  20.474  19.010  1.00  0.00     0.131 A 
HETATM   12  C   LIG     1      22.862  21.270  18.383  1.00  0.00     0.093 C 
HETATM   13  N   LIG     1      25.117  20.975  19.507  1.00  0.00    -0.282 N 
HETATM   14  C   LIG     1      25.630  22.321  19.510  1.00  0.00     0.055 A 
HETATM   15  C   LIG     1      25.488  23.119  18.361  1.00  0.00     0.033 A 
HETATM   16  C   LIG     1      26.001  24.415  18.322  1.00  0.00     0.026 A 
ENDROOT
BRANCH   5  17
HETATM   17  C   LIG     1      26.374  22.754  23.201  1.00  0.00     0.015 A 
HETATM   18  C   LIG     1      27.461  23.472  23.735  1.00  0.00     0.015 A 
HETATM   19  C   LIG     1      27.336  24.145  24.952  1.00  0.00     0.001 A 
HETATM   20  C   LIG     1      26.131  24.110  25.652  1.00  0.00     0.002 A 
HETATM   21  C   LIG     1      25.045  23.397  25.139  1.00  0.00     0.025 A 
HETATM   22  C   LIG     1      25.156  22.717  23.920  1.00  0.00     0.046 A 
HETATM   23 CL   LIG     1      23.770  21.781  23.366  1.00  0.00    -0.083 Cl
ENDBRANCH   5  17
TORSDOF 1
ENDMDL
MODEL 2
REMARK VINA RESULT:      -5.3      2.985      4.756
REMARK  1 active torsions:
REMARK  status: ('A' for Active; 'I' for Inactive)
REMARK    1  A    between atoms: C_5  and  C_6 
ROOT
HETATM    1 CL   LIG     1      27.813  24.751  25.327  1.00  0.00    -0.084 Cl
HETATM    2  C   LIG     1      27.903  24.679  23.577  1.00  0.00     0.035 A 
HETATM    3  C   LIG     1      27.234  23.668  22.885  1.00  0.00     0.040 A 
HETATM    4  C   LIG     1      27.295  23.589  21.480  1.00  0.00     0.022 A 
HETATM    5  C   LIG     1      26.527  22.498  20.799  1.00  0.00     0.076 C 
HETATM    6  N   LIG     1      27.000  21.832  19.782  1.00  0.00    -0.280 NA
HETATM    7  C   LIG     1      28.298  22.039  19.153  1.00  0.00     0.230 C 
HETATM    8  C   LIG     1      28.340  23.415  18.590  1.00  0.00     0.154 A 
HETATM    9  N   LIG     1      28.460  23.704  17.281  1.00  0.00    -0.133 NA
HETATM   10  N   LIG     1      28.365  25.022  17.172  1.00  0.00    -0.135 NA
HETATM   11  C   LIG     1      28.178  25.510  18.415  1.00  0.00     0.131 A 
HETATM   12  C   LIG     1      27.976  26.966  18.695  1.00  0.00     0.093 C 
HETATM   13  N   LIG     1      28.166  24.519  19.334  1.00  0.00    -0.282 N 
HETATM   14  C   LIG     1      28.041  24.571  20.769  1.00  0.00     0.055 A 
HETATM   15  C   LIG     1      28.727  25.566  21.487  1.00  0.00     0.033 A 
HETATM   16  C   LIG     1      28.651  25.624  22.878  1.00  0.00     0.026 A 
ENDROOT
BRANCH   5  17
HETATM   17  C   LIG     1      25.167  22.155  21.287  1.00  0.00     0.015 A 
HETATM   18  C   LIG     1      24.099  23.024  20.996  1.00  0.00     0.015 A 
HETATM   19  C   LIG     1      22.804  22.725  21.427  1.00  0.00     0.001 A 
HETATM   20  C   LIG     1      22.559  21.561  22.154  1.00  0.00     0.002 A 
HETATM   21  C   LIG     1      23.610  20.691  22.456  1.00  0.00     0.025 A 
HETATM   22  C   LIG     1      24.912  20.979  22.030  1.00  0.00     0.046 A 
HETATM   23 CL   LIG     1      26.200  19.874  22.505  1.00  0.00    -0.083 Cl
ENDBRANCH   5  17
TORSDOF 1
ENDMDL
MODEL 3
REMARK VINA RESULT:      -5.1      3.369      5.142
REMARK  1 active torsions:
REMARK  status: ('A' for Active; 'I' for Inactive)
REMARK    1  A    between atoms: C_5  and  C_6 
ROOT
HETATM    1 CL   LIG     1      24.980  19.201  16.713  1.00  0.00    -0.084 Cl
HETATM    2  C   LIG     1      25.900  20.558  17.337  1.00  0.00     0.035 A 
HETATM    3  C   LIG     1      25.351  21.377  18.325  1.00  0.00     0.040 A 
HETATM    4  C   LIG     1      26.070  22.474  18.839  1.00  0.00     0.022 A 
HETATM    5  C   LIG     1      25.434  23.292  19.921  1.00  0.00     0.076 C 
HETATM    6  N   LIG     1      25.520  24.593  19.963  1.00  0.00    -0.280 NA
HETATM    7  C   LIG     1      26.231  25.435  19.011  1.00  0.00     0.230 C 
HETATM    8  C   LIG     1      27.677  25.090  19.058  1.00  0.00     0.154 A 
HETATM    9  N   LIG     1      28.654  25.932  19.442  1.00  0.00    -0.133 NA
HETATM   10  N   LIG     1      29.781  25.235  19.438  1.00  0.00    -0.135 NA
HETATM   11  C   LIG     1      29.469  23.978  19.062  1.00  0.00     0.131 A 
HETATM   12  C   LIG     1      30.479  22.877  18.987  1.00  0.00     0.093 C 
HETATM   13  N   LIG     1      28.147  23.858  18.808  1.00  0.00    -0.282 N 
HETATM   14  C   LIG     1      27.380  22.729  18.343  1.00  0.00     0.055 A 
HETATM   15  C   LIG     1      27.904  21.906  17.331  1.00  0.00     0.033 A 
HETATM   16  C   LIG     1      27.173  20.826  16.839  1.00  0.00     0.026 A 
ENDROOT
BRANCH   5  17
HETATM   17  C   LIG     1      24.680  22.605  21.001  1.00  0.00     0.015 A 
HETATM   18  C   LIG     1      23.274  22.644  20.982  1.00  0.00     0.015 A 
HETATM   19  C   LIG     1      22.534  21.997  21.974  1.00  0.00     0.001 A 
HETATM   20  C   LIG     1      23.185  21.308  22.996  1.00  0.00     0.002 A 
HETATM   21  C   LIG     1      24.580  21.265  23.033  1.00  0.00     0.025 A 
HETATM   22  C   LIG     1      25.334  21.909  22.044  1.00  0.00     0.046 A 
HETATM   23 CL   LIG     1      27.089  21.873  22.190  1.00  0.00    -0.083 Cl
ENDBRANCH   5  17
TORSDOF 1
ENDMDL
MODEL 4
REMARK VINA RESULT:      -5.0      2.506      2.973
REMARK  1 active torsions:
REMARK  status: ('A' for Active; 'I' for Inactive)
REMARK    1  A    between atoms: C_5  and  C_6 
ROOT
HETATM    1 CL   LIG     1      28.595  25.819  20.372  1.00  0.00    -0.084 Cl
HETATM    2  C   LIG     1      27.387  24.660  20.897  1.00  0.00     0.035 A 
HETATM    3  C   LIG     1      27.501  24.051  22.148  1.00  0.00     0.040 A 
HETATM    4  C   LIG     1      26.545  23.115  22.588  1.00  0.00     0.022 A 
HETATM    5  C   LIG     1      26.712  22.526  23.956  1.00  0.00     0.076 C 
HETATM    6  N   LIG     1      26.482  21.267  24.212  1.00  0.00    -0.280 NA
HETATM    7  C   LIG     1      26.029  20.267  23.254  1.00  0.00     0.230 C 
HETATM    8  C   LIG     1      24.689  20.666  22.748  1.00  0.00     0.154 A 
HETATM    9  N   LIG     1      23.558  19.961  22.934  1.00  0.00    -0.133 NA
HETATM   10  N   LIG     1      22.571  20.681  22.421  1.00  0.00    -0.135 NA
HETATM   11  C   LIG     1      23.117  21.817  21.941  1.00  0.00     0.131 A 
HETATM   12  C   LIG     1      22.305  22.912  21.324  1.00  0.00     0.093 C 
HETATM   13  N   LIG     1      24.455  21.833  22.126  1.00  0.00    -0.282 N 
HETATM   14  C   LIG     1      25.444  22.808  21.741  1.00  0.00     0.055 A 
HETATM   15  C   LIG     1      25.362  23.414  20.475  1.00  0.00     0.033 A 
HETATM   16  C   LIG     1      26.320  24.338  20.061  1.00  0.00     0.026 A 
ENDROOT
BRANCH   5  17
HETATM   17  C   LIG     1      27.147  23.399  25.075  1.00  0.00     0.015 A 
HETATM   18  C   LIG     1      26.186  24.171  25.752  1.00  0.00     0.015 A 
HETATM   19  C   LIG     1      26.559  24.992  26.818  1.00  0.00     0.001 A 
HETATM   20  C   LIG     1      27.893  25.056  27.220  1.00  0.00     0.002 A 
HETATM   21  C   LIG     1      28.860  24.301  26.554  1.00  0.00     0.025 A 
HETATM   22  C   LIG     1      28.499  23.473  25.483  1.00  0.00     0.046 A 
HETATM   23 CL   LIG     1      29.780  22.602  24.645  1.00  0.00    -0.083 Cl
ENDBRANCH   5  17
TORSDOF 1
ENDMDL
MODEL 5
REMARK VINA RESULT:      -5.0      2.841      5.466
REMARK  1 active torsions:
REMARK  status: ('A' for Active; 'I' for Inactive)
REMARK    1  A    between atoms: C_5  and  C_6 
ROOT
HETATM    1 CL   LIG     1      24.236  19.018  15.772  1.00  0.00    -0.084 Cl
HETATM    2  C   LIG     1      24.331  19.826  17.326  1.00  0.00     0.035 A 
HETATM    3  C   LIG     1      25.509  20.471  17.707  1.00  0.00     0.040 A 
HETATM    4  C   LIG     1      25.608  21.123  18.951  1.00  0.00     0.022 A 
HETATM    5  C   LIG     1      26.891  21.822  19.282  1.00  0.00     0.076 C 
HETATM    6  N   LIG     1      27.426  21.787  20.472  1.00  0.00    -0.280 NA
HETATM    7  C   LIG     1      26.880  21.102  21.635  1.00  0.00     0.230 C 
HETATM    8  C   LIG     1      25.565  21.711  21.972  1.00  0.00     0.154 A 
HETATM    9  N   LIG     1      25.291  22.360  23.119  1.00  0.00    -0.133 NA
HETATM   10  N   LIG     1      24.058  22.832  23.004  1.00  0.00    -0.135 NA
HETATM   11  C   LIG     1      23.606  22.470  21.786  1.00  0.00     0.131 A 
HETATM   12  C   LIG     1      22.259  22.865  21.268  1.00  0.00     0.093 C 
HETATM   13  N   LIG     1      24.533  21.754  21.113  1.00  0.00    -0.282 N 
HETATM   14  C   LIG     1      24.477  21.131  19.815  1.00  0.00     0.055 A 
HETATM   15  C   LIG     1      23.308  20.455  19.422  1.00  0.00     0.033 A 
HETATM   16  C   LIG     1      23.234  19.817  18.185  1.00  0.00     0.026 A 
ENDROOT
BRANCH   5  17
HETATM   17  C   LIG     1      27.589  22.597  18.225  1.00  0.00     0.015 A 
HETATM   18  C   LIG     1      28.521  21.939  17.399  1.00  0.00     0.015 A 
HETATM   19  C   LIG     1      29.184  22.634  16.386  1.00  0.00     0.001 A 
HETATM   20  C   LIG     1      28.931  23.991  16.185  1.00  0.00     0.002 A 
HETATM   21  C   LIG     1      28.014  24.659  16.999  1.00  0.00     0.025 A 
HETATM   22  C   LIG     1      27.342  23.974  18.019  1.00  0.00     0.046 A 
HETATM   23 CL   LIG     1      26.251  24.894  19.052  1.00  0.00    -0.083 Cl
ENDBRANCH   5  17
TORSDOF 1
ENDMDL
MODEL 6
REMARK VINA RESULT:      -5.0      3.168      5.799
REMARK  1 active torsions:
REMARK  status: ('A' for Active; 'I' for Inactive)
REMARK    1  A    between atoms: C_5  and  C_6 
ROOT
HETATM    1 CL   LIG     1      26.766  23.159  23.876  1.00  0.00    -0.084 Cl
HETATM    2  C   LIG     1      27.285  23.617  22.265  1.00  0.00     0.035 A 
HETATM    3  C   LIG     1      26.947  22.820  21.170  1.00  0.00     0.040 A 
HETATM    4  C   LIG     1      27.355  23.167  19.867  1.00  0.00     0.022 A 
HETATM    5  C   LIG     1      26.928  22.284  18.734  1.00  0.00     0.076 C 
HETATM    6  N   LIG     1      27.719  21.980  17.742  1.00  0.00    -0.280 NA
HETATM    7  C   LIG     1      29.090  22.441  17.568  1.00  0.00     0.230 C 
HETATM    8  C   LIG     1      29.080  23.922  17.433  1.00  0.00     0.154 A 
HETATM    9  N   LIG     1      29.472  24.596  16.335  1.00  0.00    -0.133 NA
HETATM   10  N   LIG     1      29.229  25.878  16.567  1.00  0.00    -0.135 NA
HETATM   11  C   LIG     1      28.684  25.962  17.798  1.00  0.00     0.131 A 
HETATM   12  C   LIG     1      28.224  27.254  18.397  1.00  0.00     0.093 C 
HETATM   13  N   LIG     1      28.584  24.743  18.373  1.00  0.00    -0.282 N 
HETATM   14  C   LIG     1      28.111  24.358  19.679  1.00  0.00     0.055 A 
HETATM   15  C   LIG     1      28.461  25.133  20.798  1.00  0.00     0.033 A 
HETATM   16  C   LIG     1      28.045  24.770  22.078  1.00  0.00     0.026 A 
ENDROOT
BRANCH   5  17
HETATM   17  C   LIG     1      25.550  21.732  18.724  1.00  0.00     0.015 A 
HETATM   18  C   LIG     1      24.490  22.550  18.291  1.00  0.00     0.015 A 
HETATM   19  C   LIG     1      23.184  22.058  18.255  1.00  0.00     0.001 A 
HETATM   20  C   LIG     1      22.918  20.748  18.652  1.00  0.00     0.002 A 
HETATM   21  C   LIG     1      23.958  19.925  19.090  1.00  0.00     0.025 A 
HETATM   22  C   LIG     1      25.272  20.406  19.131  1.00  0.00     0.046 A 
HETATM   23 CL   LIG     1      26.523  19.337  19.760  1.00  0.00    -0.083 Cl
ENDBRANCH   5  17
TORSDOF 1
ENDMDL
MODEL 7
REMARK VINA RESULT:      -5.0      2.775      5.475
REMARK  1 active torsions:
REMARK  status: ('A' for Active; 'I' for Inactive)
REMARK    1  A    between atoms: C_5  and  C_6 
ROOT
HETATM    1 CL   LIG     1      22.435  22.093  19.377  1.00  0.00    -0.084 Cl
HETATM    2  C   LIG     1      23.595  22.180  20.689  1.00  0.00     0.035 A 
HETATM    3  C   LIG     1      24.933  22.475  20.420  1.00  0.00     0.040 A 
HETATM    4  C   LIG     1      25.882  22.548  21.458  1.00  0.00     0.022 A 
HETATM    5  C   LIG     1      27.293  22.901  21.101  1.00  0.00     0.076 C 
HETATM    6  N   LIG     1      28.325  22.324  21.653  1.00  0.00    -0.280 NA
HETATM    7  C   LIG     1      28.280  21.290  22.678  1.00  0.00     0.230 C 
HETATM    8  C   LIG     1      27.631  21.852  23.892  1.00  0.00     0.154 A 
HETATM    9  N   LIG     1      28.236  22.003  25.085  1.00  0.00    -0.133 NA
HETATM   10  N   LIG     1      27.368  22.616  25.878  1.00  0.00    -0.135 NA
HETATM   11  C   LIG     1      26.254  22.836  25.151  1.00  0.00     0.131 A 
HETATM   12  C   LIG     1      25.059  23.558  25.692  1.00  0.00     0.093 C 
HETATM   13  N   LIG     1      26.387  22.357  23.894  1.00  0.00    -0.282 N 
HETATM   14  C   LIG     1      25.453  22.329  22.797  1.00  0.00     0.055 A 
HETATM   15  C   LIG     1      24.106  22.010  23.043  1.00  0.00     0.033 A 
HETATM   16  C   LIG     1      23.184  21.945  22.000  1.00  0.00     0.026 A 
ENDROOT
BRANCH   5  17
HETATM   17  C   LIG     1      27.543  23.955  20.086  1.00  0.00     0.015 A 
HETATM   18  C   LIG     1      27.453  25.307  20.468  1.00  0.00     0.015 A 
HETATM   19  C   LIG     1      27.695  26.323  19.542  1.00  0.00     0.001 A 
HETATM   20  C   LIG     1      28.027  26.007  18.225  1.00  0.00     0.002 A 
HETATM   21  C   LIG     1      28.114  24.671  17.828  1.00  0.00     0.025 A 
HETATM   22  C   LIG     1      27.873  23.641  18.747  1.00  0.00     0.046 A 
HETATM   23 CL   LIG     1      27.933  21.981  18.161  1.00  0.00    -0.083 Cl
ENDBRANCH   5  17
TORSDOF 1
ENDMDL
MODEL 8
REMARK VINA RESULT:      -4.9      2.733      4.453
REMARK  1 active torsions:
REMARK  status: ('A' for Active; 'I' for Inactive)
REMARK    1  A    between atoms: C_5  and  C_6 
ROOT
HETATM    1 CL   LIG     1      22.877  18.945  18.779  1.00  0.00    -0.084 Cl
HETATM    2  C   LIG     1      24.174  20.099  18.525  1.00  0.00     0.035 A 
HETATM    3  C   LIG     1      24.390  21.121  19.451  1.00  0.00     0.040 A 
HETATM    4  C   LIG     1      25.423  22.060  19.265  1.00  0.00     0.022 A 
HETATM    5  C   LIG     1      25.619  23.112  20.315  1.00  0.00     0.076 C 
HETATM    6  N   LIG     1      25.901  24.352  20.025  1.00  0.00    -0.280 NA
HETATM    7  C   LIG     1      26.080  24.898  18.686  1.00  0.00     0.230 C 
HETATM    8  C   LIG     1      27.242  24.224  18.049  1.00  0.00     0.154 A 
HETATM    9  N   LIG     1      28.379  24.842  17.677  1.00  0.00    -0.133 NA
HETATM   10  N   LIG     1      29.200  23.898  17.239  1.00  0.00    -0.135 NA
HETATM   11  C   LIG     1      28.553  22.721  17.362  1.00  0.00     0.131 A 
HETATM   12  C   LIG     1      29.180  21.408  17.012  1.00  0.00     0.093 C 
HETATM   13  N   LIG     1      27.311  22.896  17.863  1.00  0.00    -0.282 N 
HETATM   14  C   LIG     1      26.261  21.943  18.121  1.00  0.00     0.055 A 
HETATM   15  C   LIG     1      26.011  20.920  17.189  1.00  0.00     0.033 A 
HETATM   16  C   LIG     1      24.982  20.002  17.394  1.00  0.00     0.026 A 
ENDROOT
BRANCH   5  17
HETATM   17  C   LIG     1      25.497  22.739  21.747  1.00  0.00     0.015 A 
HETATM   18  C   LIG     1      26.644  22.310  22.440  1.00  0.00     0.015 A 
HETATM   19  C   LIG     1      26.568  21.965  23.791  1.00  0.00     0.001 A 
HETATM   20  C   LIG     1      25.350  22.041  24.467  1.00  0.00     0.002 A 
HETATM   21  C   LIG     1      24.202  22.459  23.791  1.00  0.00     0.025 A 
HETATM   22  C   LIG     1      24.264  22.808  22.436  1.00  0.00     0.046 A 
HETATM   23 CL   LIG     1      22.764  23.259  21.629  1.00  0.00    -0.083 Cl
ENDBRANCH   5  17
TORSDOF 1
ENDMDL
MODEL 9
REMARK VINA RESULT:      -4.9      2.734      4.821
REMARK  1 active torsions:
REMARK  status: ('A' for Active; 'I' for Inactive)
REMARK    1  A    between atoms: C_5  and  C_6 
ROOT
HETATM    1 CL   LIG     1      23.042  18.461  26.271  1.00  0.00    -0.084 Cl
HETATM    2  C   LIG     1      23.100  19.097  24.638  1.00  0.00     0.035 A 
HETATM    3  C   LIG     1      23.536  20.405  24.413  1.00  0.00     0.040 A 
HETATM    4  C   LIG     1      23.588  20.937  23.110  1.00  0.00     0.022 A 
HETATM    5  C   LIG     1      24.096  22.336  22.938  1.00  0.00     0.076 C 
HETATM    6  N   LIG     1      23.559  23.183  22.103  1.00  0.00    -0.280 NA
HETATM    7  C   LIG     1      22.429  22.917  21.224  1.00  0.00     0.230 C 
HETATM    8  C   LIG     1      22.809  21.839  20.273  1.00  0.00     0.154 A 
HETATM    9  N   LIG     1      22.894  21.989  18.937  1.00  0.00    -0.133 NA
HETATM   10  N   LIG     1      23.348  20.842  18.453  1.00  0.00    -0.135 NA
HETATM   11  C   LIG     1      23.541  20.017  19.503  1.00  0.00     0.131 A 
HETATM   12  C   LIG     1      24.098  18.636  19.360  1.00  0.00     0.093 C 
HETATM   13  N   LIG     1      23.202  20.617  20.665  1.00  0.00    -0.282 N 
HETATM   14  C   LIG     1      23.201  20.113  22.015  1.00  0.00     0.055 A 
HETATM   15  C   LIG     1      22.743  18.808  22.267  1.00  0.00     0.033 A 
HETATM   16  C   LIG     1      22.701  18.303  23.565  1.00  0.00     0.026 A 
ENDROOT
BRANCH   5  17
HETATM   17  C   LIG     1      25.264  22.787  23.737  1.00  0.00     0.015 A 
HETATM   18  C   LIG     1      25.043  23.364  25.001  1.00  0.00     0.015 A 
HETATM   19  C   LIG     1      26.119  23.786  25.785  1.00  0.00     0.001 A 
HETATM   20  C   LIG     1      27.425  23.640  25.319  1.00  0.00     0.002 A 
HETATM   21  C   LIG     1      27.660  23.075  24.064  1.00  0.00     0.025 A 
HETATM   22  C   LIG     1      26.591  22.648  23.268  1.00  0.00     0.046 A 
HETATM   23 CL   LIG     1      26.956  22.007  21.668  1.00  0.00    -0.083 Cl
ENDBRANCH   5  17
TORSDOF 1
ENDMDL
MODEL 10
REMARK VINA RESULT:      -4.7      2.969      6.227
REMARK  1 active torsions:
REMARK  status: ('A' for Active; 'I' for Inactive)
REMARK    1  A    between atoms: C_5  and  C_6 
ROOT
HETATM    1 CL   LIG     1      26.806  18.146  23.008  1.00  0.00    -0.084 Cl
HETATM    2  C   LIG     1      27.139  19.864  23.124  1.00  0.00     0.035 A 
HETATM    3  C   LIG     1      26.592  20.746  22.189  1.00  0.00     0.040 A 
HETATM    4  C   LIG     1      26.848  22.129  22.261  1.00  0.00     0.022 A 
HETATM    5  C   LIG     1      26.202  23.020  21.245  1.00  0.00     0.076 C 
HETATM    6  N   LIG     1      26.824  24.026  20.694  1.00  0.00    -0.280 NA
HETATM    7  C   LIG     1      28.192  24.442  20.972  1.00  0.00     0.230 C 
HETATM    8  C   LIG     1      28.285  24.846  22.400  1.00  0.00     0.154 A 
HETATM    9  N   LIG     1      28.579  26.088  22.828  1.00  0.00    -0.133 NA
HETATM   10  N   LIG     1      28.475  26.070  24.149  1.00  0.00    -0.135 NA
HETATM   11  C   LIG     1      28.109  24.821  24.502  1.00  0.00     0.131 A 
HETATM   12  C   LIG     1      27.842  24.421  25.919  1.00  0.00     0.093 C 
HETATM   13  N   LIG     1      27.989  24.022  23.418  1.00  0.00    -0.282 N 
HETATM   14  C   LIG     1      27.666  22.622  23.316  1.00  0.00     0.055 A 
HETATM   15  C   LIG     1      28.226  21.714  24.232  1.00  0.00     0.033 A 
HETATM   16  C   LIG     1      27.958  20.349  24.141  1.00  0.00     0.026 A 
ENDROOT
BRANCH   5  17
HETATM   17  C   LIG     1      24.794  22.766  20.847  1.00  0.00     0.015 A 
HETATM   18  C   LIG     1      23.762  23.081  21.750  1.00  0.00     0.015 A 
HETATM   19  C   LIG     1      22.426  22.867  21.402  1.00  0.00     0.001 A 
HETATM   20  C   LIG     1      22.103  22.337  20.153  1.00  0.00     0.002 A 
HETATM   21  C   LIG     1      23.117  22.014  19.248  1.00  0.00     0.025 A 
HETATM   22  C   LIG     1      24.460  22.223  19.584  1.00  0.00     0.046 A 
HETATM   23 CL   LIG     1      25.689  21.729  18.423  1.00  0.00    -0.083 Cl
ENDBRANCH   5  17
TORSDOF 1
ENDMDL
MODEL 11
REMARK VINA RESULT:      -4.6      2.958      6.033
REMARK  1 active torsions:
REMARK  status: ('A' for Active; 'I' for Inactive)
REMARK    1  A    between atoms: C_5  and  C_6 
ROOT
HETATM    1 CL   LIG     1      22.587  22.454  21.177  1.00  0.00    -0.084 Cl
HETATM    2  C   LIG     1      24.027  22.634  22.161  1.00  0.00     0.035 A 
HETATM    3  C   LIG     1      25.273  22.800  21.552  1.00  0.00     0.040 A 
HETATM    4  C   LIG     1      26.443  22.943  22.322  1.00  0.00     0.022 A 
HETATM    5  C   LIG     1      27.741  23.150  21.603  1.00  0.00     0.076 C 
HETATM    6  N   LIG     1      28.853  22.581  21.981  1.00  0.00    -0.280 NA
HETATM    7  C   LIG     1      29.016  21.697  23.127  1.00  0.00     0.230 C 
HETATM    8  C   LIG     1      28.694  22.457  24.364  1.00  0.00     0.154 A 
HETATM    9  N   LIG     1      29.570  22.723  25.351  1.00  0.00    -0.133 NA
HETATM   10  N   LIG     1      28.937  23.492  26.225  1.00  0.00    -0.135 NA
HETATM   11  C   LIG     1      27.690  23.690  25.750  1.00  0.00     0.131 A 
HETATM   12  C   LIG     1      26.684  24.556  26.441  1.00  0.00     0.093 C 
HETATM   13  N   LIG     1      27.504  23.042  24.579  1.00  0.00    -0.282 N 
HETATM   14  C   LIG     1      26.336  22.933  23.742  1.00  0.00     0.055 A 
HETATM   15  C   LIG     1      25.076  22.741  24.334  1.00  0.00     0.033 A 
HETATM   16  C   LIG     1      23.931  22.602  23.551  1.00  0.00     0.026 A 
ENDROOT
BRANCH   5  17
HETATM   17  C   LIG     1      27.779  24.042  20.417  1.00  0.00     0.015 A 
HETATM   18  C   LIG     1      27.538  23.494  19.143  1.00  0.00     0.015 A 
HETATM   19  C   LIG     1      27.553  24.307  18.008  1.00  0.00     0.001 A 
HETATM   20  C   LIG     1      27.810  25.672  18.127  1.00  0.00     0.002 A 
HETATM   21  C   LIG     1      28.058  26.230  19.383  1.00  0.00     0.025 A 
HETATM   22  C   LIG     1      28.046  25.426  20.530  1.00  0.00     0.046 A 
HETATM   23 CL   LIG     1      28.435  26.183  22.073  1.00  0.00    -0.083 Cl
ENDBRANCH   5  17
TORSDOF 1
ENDMDL
MODEL 12
REMARK VINA RESULT:      -4.6      3.469      5.583
REMARK  1 active torsions:
REMARK  status: ('A' for Active; 'I' for Inactive)
REMARK    1  A    between atoms: C_5  and  C_6 
ROOT
HETATM    1 CL   LIG     1      22.437  22.435  20.868  1.00  0.00    -0.084 Cl
HETATM    2  C   LIG     1      23.934  22.687  21.747  1.00  0.00     0.035 A 
HETATM    3  C   LIG     1      23.947  22.603  23.141  1.00  0.00     0.040 A 
HETATM    4  C   LIG     1      25.136  22.805  23.868  1.00  0.00     0.022 A 
HETATM    5  C   LIG     1      25.085  22.667  25.359  1.00  0.00     0.076 C 
HETATM    6  N   LIG     1      25.728  23.469  26.162  1.00  0.00    -0.280 NA
HETATM    7  C   LIG     1      26.581  24.580  25.761  1.00  0.00     0.230 C 
HETATM    8  C   LIG     1      27.726  24.041  24.979  1.00  0.00     0.154 A 
HETATM    9  N   LIG     1      29.016  24.121  25.354  1.00  0.00    -0.133 NA
HETATM   10  N   LIG     1      29.718  23.452  24.451  1.00  0.00    -0.135 NA
HETATM   11  C   LIG     1      28.842  22.967  23.548  1.00  0.00     0.131 A 
HETATM   12  C   LIG     1      29.255  22.108  22.394  1.00  0.00     0.093 C 
HETATM   13  N   LIG     1      27.576  23.330  23.850  1.00  0.00    -0.282 N 
HETATM   14  C   LIG     1      26.338  23.082  23.156  1.00  0.00     0.055 A 
HETATM   15  C   LIG     1      26.297  23.185  21.755  1.00  0.00     0.033 A 
HETATM   16  C   LIG     1      25.108  22.981  21.057  1.00  0.00     0.026 A 
ENDROOT
BRANCH   5  17
HETATM   17  C   LIG     1      24.280  21.574  25.960  1.00  0.00     0.015 A 
HETATM   18  C   LIG     1      23.158  21.903  26.742  1.00  0.00     0.015 A 
HETATM   19  C   LIG     1      22.371  20.899  27.311  1.00  0.00     0.001 A 
HETATM   20  C   LIG     1      22.693  19.557  27.108  1.00  0.00     0.002 A 
HETATM   21  C   LIG     1      23.807  19.214  26.339  1.00  0.00     0.025 A 
HETATM   22  C   LIG     1      24.605  20.211  25.764  1.00  0.00     0.046 A 
HETATM   23 CL   LIG     1      26.034  19.709  24.864  1.00  0.00    -0.083 Cl
ENDBRANCH   5  17
TORSDOF 1
ENDMDL
MODEL 13
REMARK VINA RESULT:      -4.5      3.495      5.558
REMARK  1 active torsions:
REMARK  status: ('A' for Active; 'I' for Inactive)
REMARK    1  A    between atoms: C_5  and  C_6 
ROOT
HETATM    1 CL   LIG     1      28.262  18.346  19.597  1.00  0.00    -0.084 Cl
HETATM    2  C   LIG     1      28.387  20.095  19.534  1.00  0.00     0.035 A 
HETATM    3  C   LIG     1      27.231  20.878  19.540  1.00  0.00     0.040 A 
HETATM    4  C   LIG     1      27.308  22.283  19.487  1.00  0.00     0.022 A 
HETATM    5  C   LIG     1      26.029  23.062  19.530  1.00  0.00     0.076 C 
HETATM    6  N   LIG     1      25.824  24.121  18.794  1.00  0.00    -0.280 NA
HETATM    7  C   LIG     1      26.772  24.707  17.856  1.00  0.00     0.230 C 
HETATM    8  C   LIG     1      27.971  25.157  18.611  1.00  0.00     0.154 A 
HETATM    9  N   LIG     1      28.377  26.437  18.713  1.00  0.00    -0.133 NA
HETATM   10  N   LIG     1      29.417  26.442  19.534  1.00  0.00    -0.135 NA
HETATM   11  C   LIG     1      29.620  25.168  19.926  1.00  0.00     0.131 A 
HETATM   12  C   LIG     1      30.684  24.776  20.902  1.00  0.00     0.093 C 
HETATM   13  N   LIG     1      28.727  24.332  19.352  1.00  0.00    -0.282 N 
HETATM   14  C   LIG     1      28.590  22.900  19.442  1.00  0.00     0.055 A 
HETATM   15  C   LIG     1      29.740  22.092  19.413  1.00  0.00     0.033 A 
HETATM   16  C   LIG     1      29.639  20.703  19.467  1.00  0.00     0.026 A 
ENDROOT
BRANCH   5  17
HETATM   17  C   LIG     1      24.946  22.629  20.448  1.00  0.00     0.015 A 
HETATM   18  C   LIG     1      25.120  22.792  21.835  1.00  0.00     0.015 A 
HETATM   19  C   LIG     1      24.115  22.408  22.725  1.00  0.00     0.001 A 
HETATM   20  C   LIG     1      22.928  21.856  22.246  1.00  0.00     0.002 A 
HETATM   21  C   LIG     1      22.742  21.682  20.873  1.00  0.00     0.025 A 
HETATM   22  C   LIG     1      23.741  22.063  19.969  1.00  0.00     0.046 A 
HETATM   23 CL   LIG     1      23.468  21.751  18.257  1.00  0.00    -0.083 Cl
ENDBRANCH   5  17
TORSDOF 1
ENDMDL
MODEL 14
REMARK VINA RESULT:      -4.5      2.890      4.237
REMARK  1 active torsions:
REMARK  status: ('A' for Active; 'I' for Inactive)
REMARK    1  A    between atoms: C_5  and  C_6 
ROOT
HETATM    1 CL   LIG     1      22.515  22.025  21.840  1.00  0.00    -0.084 Cl
HETATM    2  C   LIG     1      23.939  22.499  20.934  1.00  0.00     0.035 A 
HETATM    3  C   LIG     1      25.006  23.122  21.585  1.00  0.00     0.040 A 
HETATM    4  C   LIG     1      26.158  23.514  20.876  1.00  0.00     0.022 A 
HETATM    5  C   LIG     1      27.279  24.146  21.644  1.00  0.00     0.076 C 
HETATM    6  N   LIG     1      27.963  25.158  21.185  1.00  0.00    -0.280 NA
HETATM    7  C   LIG     1      27.770  25.807  19.895  1.00  0.00     0.230 C 
HETATM    8  C   LIG     1      28.040  24.817  18.819  1.00  0.00     0.154 A 
HETATM    9  N   LIG     1      29.033  24.917  17.915  1.00  0.00    -0.133 NA
HETATM   10  N   LIG     1      29.003  23.807  17.192  1.00  0.00    -0.135 NA
HETATM   11  C   LIG     1      28.000  23.046  17.674  1.00  0.00     0.131 A 
HETATM   12  C   LIG     1      27.684  21.683  17.142  1.00  0.00     0.093 C 
HETATM   13  N   LIG     1      27.368  23.661  18.698  1.00  0.00    -0.282 N 
HETATM   14  C   LIG     1      26.228  23.251  19.479  1.00  0.00     0.055 A 
HETATM   15  C   LIG     1      25.132  22.645  18.839  1.00  0.00     0.033 A 
HETATM   16  C   LIG     1      24.003  22.265  19.562  1.00  0.00     0.026 A 
ENDROOT
BRANCH   5  17
HETATM   17  C   LIG     1      27.641  23.605  22.978  1.00  0.00     0.015 A 
HETATM   18  C   LIG     1      27.309  24.346  24.128  1.00  0.00     0.015 A 
HETATM   19  C   LIG     1      27.623  23.859  25.399  1.00  0.00     0.001 A 
HETATM   20  C   LIG     1      28.271  22.632  25.540  1.00  0.00     0.002 A 
HETATM   21  C   LIG     1      28.612  21.888  24.408  1.00  0.00     0.025 A 
HETATM   22  C   LIG     1      28.304  22.365  23.127  1.00  0.00     0.046 A 
HETATM   23 CL   LIG     1      28.825  21.408  21.743  1.00  0.00    -0.083 Cl
ENDBRANCH   5  17
TORSDOF 1
ENDMDL
MODEL 15
REMARK VINA RESULT:      -4.5      2.671      4.450
REMARK  1 active torsions:
REMARK  status: ('A' for Active; 'I' for Inactive)
REMARK    1  A    between atoms: C_5  and  C_6 
ROOT
HETATM    1 CL   LIG     1      27.714  25.058  26.058  1.00  0.00    -0.084 Cl
HETATM    2  C   LIG     1      27.802  24.739  24.335  1.00  0.00     0.035 A 
HETATM    3  C   LIG     1      27.321  23.532  23.823  1.00  0.00     0.040 A 
HETATM    4  C   LIG     1      27.384  23.254  22.444  1.00  0.00     0.022 A 
HETATM    5  C   LIG     1      26.820  21.953  21.960  1.00  0.00     0.076 C 
HETATM    6  N   LIG     1      27.398  21.235  21.036  1.00  0.00    -0.280 NA
HETATM    7  C   LIG     1      28.632  21.572  20.338  1.00  0.00     0.230 C 
HETATM    8  C   LIG     1      28.420  22.832  19.577  1.00  0.00     0.154 A 
HETATM    9  N   LIG     1      28.475  22.937  18.236  1.00  0.00    -0.133 NA
HETATM   10  N   LIG     1      28.143  24.184  17.938  1.00  0.00    -0.135 NA
HETATM   11  C   LIG     1      27.881  24.814  19.101  1.00  0.00     0.131 A 
HETATM   12  C   LIG     1      27.421  26.236  19.170  1.00  0.00     0.093 C 
HETATM   13  N   LIG     1      28.055  23.987  20.155  1.00  0.00    -0.282 N 
HETATM   14  C   LIG     1      27.935  24.233  21.570  1.00  0.00     0.055 A 
HETATM   15  C   LIG     1      28.434  25.431  22.110  1.00  0.00     0.033 A 
HETATM   16  C   LIG     1      28.360  25.685  23.478  1.00  0.00     0.026 A 
ENDROOT
BRANCH   5  17
HETATM   17  C   LIG     1      25.548  21.452  22.540  1.00  0.00     0.015 A 
HETATM   18  C   LIG     1      25.595  20.438  23.514  1.00  0.00     0.015 A 
HETATM   19  C   LIG     1      24.419  19.954  24.091  1.00  0.00     0.001 A 
HETATM   20  C   LIG     1      23.184  20.472  23.702  1.00  0.00     0.002 A 
HETATM   21  C   LIG     1      23.120  21.474  22.732  1.00  0.00     0.025 A 
HETATM   22  C   LIG     1      24.292  21.968  22.146  1.00  0.00     0.046 A 
HETATM   23 CL   LIG     1      24.134  23.183  20.880  1.00  0.00    -0.083 Cl
ENDBRANCH   5  17
TORSDOF 1
ENDMDL
MODEL 16
REMARK VINA RESULT:      -4.5      3.201      6.064
REMARK  1 active torsions:
REMARK  status: ('A' for Active; 'I' for Inactive)
REMARK    1  A    between atoms: C_5  and  C_6 
ROOT
HETATM    1 CL   LIG     1      24.675  22.391  27.628  1.00  0.00    -0.084 Cl
HETATM    2  C   LIG     1      25.760  22.929  26.360  1.00  0.00     0.035 A 
HETATM    3  C   LIG     1      25.609  22.443  25.059  1.00  0.00     0.040 A 
HETATM    4  C   LIG     1      26.471  22.859  24.026  1.00  0.00     0.022 A 
HETATM    5  C   LIG     1      26.231  22.323  22.648  1.00  0.00     0.076 C 
HETATM    6  N   LIG     1      27.202  21.967  21.852  1.00  0.00    -0.280 NA
HETATM    7  C   LIG     1      28.625  22.040  22.153  1.00  0.00     0.230 C 
HETATM    8  C   LIG     1      28.993  23.465  22.370  1.00  0.00     0.154 A 
HETATM    9  N   LIG     1      29.849  24.162  21.600  1.00  0.00    -0.133 NA
HETATM   10  N   LIG     1      29.842  25.407  22.053  1.00  0.00    -0.135 NA
HETATM   11  C   LIG     1      28.974  25.449  23.084  1.00  0.00     0.131 A 
HETATM   12  C   LIG     1      28.655  26.707  23.829  1.00  0.00     0.093 C 
HETATM   13  N   LIG     1      28.427  24.235  23.313  1.00  0.00    -0.282 N 
HETATM   14  C   LIG     1      27.496  23.800  24.324  1.00  0.00     0.055 A 
HETATM   15  C   LIG     1      27.645  24.258  25.645  1.00  0.00     0.033 A 
HETATM   16  C   LIG     1      26.780  23.833  26.651  1.00  0.00     0.026 A 
ENDROOT
BRANCH   5  17
HETATM   17  C   LIG     1      24.838  22.195  22.151  1.00  0.00     0.015 A 
HETATM   18  C   LIG     1      24.149  23.353  21.744  1.00  0.00     0.015 A 
HETATM   19  C   LIG     1      22.842  23.266  21.258  1.00  0.00     0.001 A 
HETATM   20  C   LIG     1      22.206  22.028  21.175  1.00  0.00     0.002 A 
HETATM   21  C   LIG     1      22.874  20.870  21.581  1.00  0.00     0.025 A 
HETATM   22  C   LIG     1      24.184  20.943  22.070  1.00  0.00     0.046 A 
HETATM   23 CL   LIG     1      24.941  19.454  22.629  1.00  0.00    -0.083 Cl
ENDBRANCH   5  17
TORSDOF 1
ENDMDL
MODEL 17
REMARK VINA RESULT:      -4.4      2.192      2.566
REMARK  1 active torsions:
REMARK  status: ('A' for Active; 'I' for Inactive)
REMARK    1  A    between atoms: C_5  and  C_6 
ROOT
HETATM    1 CL   LIG     1      27.812  24.943  17.899  1.00  0.00    -0.084 Cl
HETATM    2  C   LIG     1      26.806  24.032  19.009  1.00  0.00     0.035 A 
HETATM    3  C   LIG     1      27.274  23.732  20.290  1.00  0.00     0.040 A 
HETATM    4  C   LIG     1      26.485  22.999  21.197  1.00  0.00     0.022 A 
HETATM    5  C   LIG     1      27.037  22.741  22.566  1.00  0.00     0.076 C 
HETATM    6  N   LIG     1      26.889  21.599  23.181  1.00  0.00    -0.280 NA
HETATM    7  C   LIG     1      26.180  20.436  22.666  1.00  0.00     0.230 C 
HETATM    8  C   LIG     1      24.751  20.798  22.471  1.00  0.00     0.154 A 
HETATM    9  N   LIG     1      23.720  20.241  23.133  1.00  0.00    -0.133 NA
HETATM   10  N   LIG     1      22.628  20.888  22.753  1.00  0.00    -0.135 NA
HETATM   11  C   LIG     1      23.014  21.834  21.873  1.00  0.00     0.131 A 
HETATM   12  C   LIG     1      22.060  22.807  21.255  1.00  0.00     0.093 C 
HETATM   13  N   LIG     1      24.349  21.797  21.669  1.00  0.00    -0.282 N 
HETATM   14  C   LIG     1      25.186  22.579  20.794  1.00  0.00     0.055 A 
HETATM   15  C   LIG     1      24.743  22.871  19.492  1.00  0.00     0.033 A 
HETATM   16  C   LIG     1      25.543  23.598  18.611  1.00  0.00     0.026 A 
ENDROOT
BRANCH   5  17
HETATM   17  C   LIG     1      27.776  23.821  23.266  1.00  0.00     0.015 A 
HETATM   18  C   LIG     1      28.990  24.281  22.722  1.00  0.00     0.015 A 
HETATM   19  C   LIG     1      29.704  25.306  23.347  1.00  0.00     0.001 A 
HETATM   20  C   LIG     1      29.220  25.882  24.521  1.00  0.00     0.002 A 
HETATM   21  C   LIG     1      28.020  25.432  25.077  1.00  0.00     0.025 A 
HETATM   22  C   LIG     1      27.294  24.406  24.460  1.00  0.00     0.046 A 
HETATM   23 CL   LIG     1      25.826  23.842  25.253  1.00  0.00    -0.083 Cl
ENDBRANCH   5  17
TORSDOF 1
ENDMDL
MODEL 18
REMARK VINA RESULT:      -4.3      2.823      4.154
REMARK  1 active torsions:
REMARK  status: ('A' for Active; 'I' for Inactive)
REMARK    1  A    between atoms: C_5  and  C_6 
ROOT
HETATM    1 CL   LIG     1      21.684  22.808  21.255  1.00  0.00    -0.084 Cl
HETATM    2  C   LIG     1      23.436  22.723  21.251  1.00  0.00     0.035 A 
HETATM    3  C   LIG     1      24.145  22.868  22.445  1.00  0.00     0.040 A 
HETATM    4  C   LIG     1      25.552  22.807  22.465  1.00  0.00     0.022 A 
HETATM    5  C   LIG     1      26.246  22.938  23.787  1.00  0.00     0.076 C 
HETATM    6  N   LIG     1      27.347  23.621  23.939  1.00  0.00    -0.280 NA
HETATM    7  C   LIG     1      28.065  24.332  22.890  1.00  0.00     0.230 C 
HETATM    8  C   LIG     1      28.523  23.345  21.876  1.00  0.00     0.154 A 
HETATM    9  N   LIG     1      29.812  23.082  21.590  1.00  0.00    -0.133 NA
HETATM   10  N   LIG     1      29.813  22.090  20.711  1.00  0.00    -0.135 NA
HETATM   11  C   LIG     1      28.525  21.760  20.485  1.00  0.00     0.131 A 
HETATM   12  C   LIG     1      28.119  20.640  19.579  1.00  0.00     0.093 C 
HETATM   13  N   LIG     1      27.687  22.541  21.201  1.00  0.00    -0.282 N 
HETATM   14  C   LIG     1      26.247  22.579  21.244  1.00  0.00     0.055 A 
HETATM   15  C   LIG     1      25.515  22.460  20.050  1.00  0.00     0.033 A 
HETATM   16  C   LIG     1      24.122  22.523  20.055  1.00  0.00     0.026 A 
ENDROOT
BRANCH   5  17
HETATM   17  C   LIG     1      25.673  22.260  24.977  1.00  0.00     0.015 A 
HETATM   18  C   LIG     1      25.055  23.039  25.974  1.00  0.00     0.015 A 
HETATM   19  C   LIG     1      24.493  22.432  27.100  1.00  0.00     0.001 A 
HETATM   20  C   LIG     1      24.543  21.047  27.248  1.00  0.00     0.002 A 
HETATM   21  C   LIG     1      25.158  20.261  26.271  1.00  0.00     0.025 A 
HETATM   22  C   LIG     1      25.725  20.856  25.137  1.00  0.00     0.046 A 
HETATM   23 CL   LIG     1      26.545  19.812  23.979  1.00  0.00    -0.083 Cl
ENDBRANCH   5  17
TORSDOF 1
ENDMDL
MODEL 19
REMARK VINA RESULT:      -4.3      2.883      5.129
REMARK  1 active torsions:
REMARK  status: ('A' for Active; 'I' for Inactive)
REMARK    1  A    between atoms: C_5  and  C_6 
ROOT
HETATM    1 CL   LIG     1      22.486  20.223  17.512  1.00  0.00    -0.084 Cl
HETATM    2  C   LIG     1      23.336  20.271  19.045  1.00  0.00     0.035 A 
HETATM    3  C   LIG     1      24.556  20.943  19.146  1.00  0.00     0.040 A 
HETATM    4  C   LIG     1      25.258  20.992  20.366  1.00  0.00     0.022 A 
HETATM    5  C   LIG     1      26.545  21.758  20.411  1.00  0.00     0.076 C 
HETATM    6  N   LIG     1      27.593  21.335  21.063  1.00  0.00    -0.280 NA
HETATM    7  C   LIG     1      27.681  20.104  21.837  1.00  0.00     0.230 C 
HETATM    8  C   LIG     1      26.705  20.176  22.957  1.00  0.00     0.154 A 
HETATM    9  N   LIG     1      27.034  20.177  24.262  1.00  0.00    -0.133 NA
HETATM   10  N   LIG     1      25.907  20.345  24.939  1.00  0.00    -0.135 NA
HETATM   11  C   LIG     1      24.913  20.454  24.034  1.00  0.00     0.131 A 
HETATM   12  C   LIG     1      23.488  20.705  24.417  1.00  0.00     0.093 C 
HETATM   13  N   LIG     1      25.385  20.344  22.773  1.00  0.00    -0.282 N 
HETATM   14  C   LIG     1      24.695  20.355  21.508  1.00  0.00     0.055 A 
HETATM   15  C   LIG     1      23.477  19.664  21.378  1.00  0.00     0.033 A 
HETATM   16  C   LIG     1      22.801  19.630  20.160  1.00  0.00     0.026 A 
ENDROOT
BRANCH   5  17
HETATM   17  C   LIG     1      26.642  23.056  19.696  1.00  0.00     0.015 A 
HETATM   18  C   LIG     1      26.104  24.208  20.299  1.00  0.00     0.015 A 
HETATM   19  C   LIG     1      26.191  25.447  19.660  1.00  0.00     0.001 A 
HETATM   20  C   LIG     1      26.811  25.552  18.415  1.00  0.00     0.002 A 
HETATM   21  C   LIG     1      27.344  24.416  17.802  1.00  0.00     0.025 A 
HETATM   22  C   LIG     1      27.264  23.168  18.431  1.00  0.00     0.046 A 
HETATM   23 CL   LIG     1      27.895  21.767  17.570  1.00  0.00    -0.083 Cl
ENDBRANCH   5  17
TORSDOF 1
ENDMDL
MODEL 20
REMARK VINA RESULT:      -4.3      3.714      5.392
REMARK  1 active torsions:
REMARK  status: ('A' for Active; 'I' for Inactive)
REMARK    1  A    between atoms: C_5  and  C_6 
ROOT
HETATM    1 CL   LIG     1      23.703  22.376  20.296  1.00  0.00    -0.084 Cl
HETATM    2  C   LIG     1      24.043  21.897  21.949  1.00  0.00     0.035 A 
HETATM    3  C   LIG     1      25.312  22.109  22.490  1.00  0.00     0.040 A 
HETATM    4  C   LIG     1      25.607  21.730  23.814  1.00  0.00     0.022 A 
HETATM    5  C   LIG     1      26.980  22.017  24.341  1.00  0.00     0.076 C 
HETATM    6  N   LIG     1      27.635  21.177  25.096  1.00  0.00    -0.280 NA
HETATM    7  C   LIG     1      27.154  19.878  25.546  1.00  0.00     0.230 C 
HETATM    8  C   LIG     1      25.949  20.083  26.391  1.00  0.00     0.154 A 
HETATM    9  N   LIG     1      25.864  19.767  27.697  1.00  0.00    -0.133 NA
HETATM   10  N   LIG     1      24.677  20.183  28.114  1.00  0.00    -0.135 NA
HETATM   11  C   LIG     1      24.063  20.754  27.058  1.00  0.00     0.131 A 
HETATM   12  C   LIG     1      22.712  21.391  27.149  1.00  0.00     0.093 C 
HETATM   13  N   LIG     1      24.839  20.699  25.953  1.00  0.00    -0.282 N 
HETATM   14  C   LIG     1      24.583  21.137  24.604  1.00  0.00     0.055 A 
HETATM   15  C   LIG     1      23.319  20.911  24.031  1.00  0.00     0.033 A 
HETATM   16  C   LIG     1      23.049  21.296  22.719  1.00  0.00     0.026 A 
ENDROOT
BRANCH   5  17
HETATM   17  C   LIG     1      27.631  23.309  24.006  1.00  0.00     0.015 A 
HETATM   18  C   LIG     1      28.519  23.364  22.916  1.00  0.00     0.015 A 
HETATM   19  C   LIG     1      29.137  24.566  22.565  1.00  0.00     0.001 A 
HETATM   20  C   LIG     1      28.880  25.726  23.296  1.00  0.00     0.002 A 
HETATM   21  C   LIG     1      28.007  25.686  24.385  1.00  0.00     0.025 A 
HETATM   22  C   LIG     1      27.380  24.487  24.748  1.00  0.00     0.046 A 
HETATM   23 CL   LIG     1      26.345  24.495  26.173  1.00  0.00    -0.083 Cl
ENDBRANCH   5  17
TORSDOF 1
ENDMDL
