REMARK  0 active torsions:
REMARK  status: ('A' for Active; 'I' for Inactive)
ROOT
HETATM    1  C   LIG     1      -0.878  -1.268   0.491  1.00  0.00     0.000 C 
HETATM    2  C   LIG     1      -1.562  -0.077  -0.202  1.00  0.00     0.000 C 
HETATM    3  C   LIG     1      -1.093   1.271   0.366  1.00  0.00     0.000 C 
HETATM    4  C   LIG     1       0.308   1.685  -0.103  1.00  0.00     0.000 C 
HETATM    5  C   LIG     1       1.405   0.669   0.255  1.00  0.00     0.000 C 
HETATM    6  C   LIG     1       1.366  -0.570  -0.655  1.00  0.00     0.000 C 
HETATM    7  C   LIG     1       0.452  -1.701  -0.151  1.00  0.00     0.000 C 
ENDROOT
TORSDOF 0
