MODEL 1
REMARK VINA RESULT:      -5.8      0.000      0.000
REMARK  0 active torsions:
REMARK  status: ('A' for Active; 'I' for Inactive)
ROOT
HETATM    1  C   LIG     1      17.269  37.741  25.157  1.00  0.00     0.000 C 
HETATM    2  C   LIG     1      18.629  37.379  25.779  1.00  0.00     0.000 C 
HETATM    3  C   LIG     1      18.501  36.288  26.853  1.00  0.00     0.000 C 
HETATM    4  C   LIG     1      18.285  34.881  26.282  1.00  0.00     0.000 C 
HETATM    5  C   LIG     1      17.031  34.757  25.401  1.00  0.00     0.000 C 
HETATM    6  C   LIG     1      17.233  35.390  24.014  1.00  0.00     0.000 C 
HETATM    7  C   LIG     1      16.878  36.886  23.939  1.00  0.00     0.000 C 
ENDROOT
TORSDOF 0
ENDMDL
MODEL 2
REMARK VINA RESULT:      -5.8      0.062      2.315
REMARK  0 active torsions:
REMARK  status: ('A' for Active; 'I' for Inactive)
ROOT
HETATM    1  C   LIG     1      17.248  35.462  23.987  1.00  0.00     0.000 C 
HETATM    2  C   LIG     1      17.023  34.788  25.351  1.00  0.00     0.000 C 
HETATM    3  C   LIG     1      18.266  34.870  26.250  1.00  0.00     0.000 C 
HETATM    4  C   LIG     1      18.490  36.256  26.869  1.00  0.00     0.000 C 
HETATM    5  C   LIG     1      18.643  37.379  25.831  1.00  0.00     0.000 C 
HETATM    6  C   LIG     1      17.296  37.776  25.204  1.00  0.00     0.000 C 
HETATM    7  C   LIG     1      16.912  36.964  23.954  1.00  0.00     0.000 C 
ENDROOT
TORSDOF 0
ENDMDL
MODEL 3
REMARK VINA RESULT:      -5.5      0.592      3.258
REMARK  0 active torsions:
REMARK  status: ('A' for Active; 'I' for Inactive)
ROOT
HETATM    1  C   LIG     1      17.149  34.824  25.496  1.00  0.00     0.000 C 
HETATM    2  C   LIG     1      17.375  35.167  24.014  1.00  0.00     0.000 C 
HETATM    3  C   LIG     1      16.666  36.467  23.605  1.00  0.00     0.000 C 
HETATM    4  C   LIG     1      17.369  37.737  24.101  1.00  0.00     0.000 C 
HETATM    5  C   LIG     1      17.523  37.801  25.629  1.00  0.00     0.000 C 
HETATM    6  C   LIG     1      18.640  36.874  26.138  1.00  0.00     0.000 C 
HETATM    7  C   LIG     1      18.180  35.441  26.458  1.00  0.00     0.000 C 
ENDROOT
TORSDOF 0
ENDMDL
MODEL 4
REMARK VINA RESULT:      -5.5      0.591      2.482
REMARK  0 active torsions:
REMARK  status: ('A' for Active; 'I' for Inactive)
ROOT
HETATM    1  C   LIG     1      18.641  36.808  26.162  1.00  0.00     0.000 C 
HETATM    2  C   LIG     1      17.534  37.766  25.691  1.00  0.00     0.000 C 
HETATM    3  C   LIG     1      17.384  37.770  24.162  1.00  0.00     0.000 C 
HETATM    4  C   LIG     1      16.673  36.529  23.607  1.00  0.00     0.000 C 
HETATM    5  C   LIG     1      17.373  35.206  23.961  1.00  0.00     0.000 C 
HETATM    6  C   LIG     1      17.137  34.801  25.426  1.00  0.00     0.000 C 
HETATM    7  C   LIG     1      18.170  35.365  26.416  1.00  0.00     0.000 C 
ENDROOT
TORSDOF 0
ENDMDL
MODEL 5
REMARK VINA RESULT:      -5.2      4.182      5.750
REMARK  0 active torsions:
REMARK  status: ('A' for Active; 'I' for Inactive)
ROOT
HETATM    1  C   LIG     1      19.338  36.914  19.655  1.00  0.00     0.000 C 
HETATM    2  C   LIG     1      17.840  36.664  19.902  1.00  0.00     0.000 C 
HETATM    3  C   LIG     1      17.472  36.777  21.389  1.00  0.00     0.000 C 
HETATM    4  C   LIG     1      17.409  38.221  21.902  1.00  0.00     0.000 C 
HETATM    5  C   LIG     1      18.726  38.996  21.731  1.00  0.00     0.000 C 
HETATM    6  C   LIG     1      18.960  39.426  20.273  1.00  0.00     0.000 C 
HETATM    7  C   LIG     1      19.706  38.389  19.416  1.00  0.00     0.000 C 
ENDROOT
TORSDOF 0
ENDMDL
MODEL 6
REMARK VINA RESULT:      -5.2      4.246      5.370
REMARK  0 active torsions:
REMARK  status: ('A' for Active; 'I' for Inactive)
ROOT
HETATM    1  C   LIG     1      18.980  39.498  20.363  1.00  0.00     0.000 C 
HETATM    2  C   LIG     1      18.680  38.971  21.777  1.00  0.00     0.000 C 
HETATM    3  C   LIG     1      17.407  38.113  21.818  1.00  0.00     0.000 C 
HETATM    4  C   LIG     1      17.591  36.707  21.234  1.00  0.00     0.000 C 
HETATM    5  C   LIG     1      18.059  36.702  19.769  1.00  0.00     0.000 C 
HETATM    6  C   LIG     1      19.551  37.052  19.637  1.00  0.00     0.000 C 
HETATM    7  C   LIG     1      19.841  38.557  19.502  1.00  0.00     0.000 C 
ENDROOT
TORSDOF 0
ENDMDL
MODEL 7
REMARK VINA RESULT:      -5.0      4.003      5.550
REMARK  0 active torsions:
REMARK  status: ('A' for Active; 'I' for Inactive)
ROOT
HETATM    1  C   LIG     1      17.267  38.452  21.838  1.00  0.00     0.000 C 
HETATM    2  C   LIG     1      17.682  36.971  21.832  1.00  0.00     0.000 C 
HETATM    3  C   LIG     1      17.711  36.383  20.413  1.00  0.00     0.000 C 
HETATM    4  C   LIG     1      18.928  36.822  19.588  1.00  0.00     0.000 C 
HETATM    5  C   LIG     1      19.044  38.346  19.419  1.00  0.00     0.000 C 
HETATM    6  C   LIG     1      19.547  39.034  20.699  1.00  0.00     0.000 C 
HETATM    7  C   LIG     1      18.435  39.442  21.681  1.00  0.00     0.000 C 
ENDROOT
TORSDOF 0
ENDMDL
MODEL 8
REMARK VINA RESULT:      -5.0      3.884      5.295
REMARK  0 active torsions:
REMARK  status: ('A' for Active; 'I' for Inactive)
ROOT
HETATM    1  C   LIG     1      19.475  39.022  20.871  1.00  0.00     0.000 C 
HETATM    2  C   LIG     1      19.013  38.354  19.564  1.00  0.00     0.000 C 
HETATM    3  C   LIG     1      18.890  36.829  19.705  1.00  0.00     0.000 C 
HETATM    4  C   LIG     1      17.646  36.378  20.483  1.00  0.00     0.000 C 
HETATM    5  C   LIG     1      17.572  36.944  21.911  1.00  0.00     0.000 C 
HETATM    6  C   LIG     1      17.158  38.425  21.926  1.00  0.00     0.000 C 
HETATM    7  C   LIG     1      18.333  39.415  21.824  1.00  0.00     0.000 C 
ENDROOT
TORSDOF 0
ENDMDL
MODEL 9
REMARK VINA RESULT:      -4.9      4.132      5.541
REMARK  0 active torsions:
REMARK  status: ('A' for Active; 'I' for Inactive)
ROOT
HETATM    1  C   LIG     1      17.672  37.307  21.939  1.00  0.00     0.000 C 
HETATM    2  C   LIG     1      17.544  38.797  21.578  1.00  0.00     0.000 C 
HETATM    3  C   LIG     1      18.905  39.436  21.264  1.00  0.00     0.000 C 
HETATM    4  C   LIG     1      19.463  39.055  19.886  1.00  0.00     0.000 C 
HETATM    5  C   LIG     1      19.649  37.542  19.691  1.00  0.00     0.000 C 
HETATM    6  C   LIG     1      18.313  36.820  19.452  1.00  0.00     0.000 C 
HETATM    7  C   LIG     1      17.604  36.351  20.735  1.00  0.00     0.000 C 
ENDROOT
TORSDOF 0
ENDMDL
MODEL 10
REMARK VINA RESULT:      -4.9      0.805      2.015
REMARK  0 active torsions:
REMARK  status: ('A' for Active; 'I' for Inactive)
ROOT
HETATM    1  C   LIG     1      17.585  37.412  26.180  1.00  0.00     0.000 C 
HETATM    2  C   LIG     1      18.350  36.081  26.086  1.00  0.00     0.000 C 
HETATM    3  C   LIG     1      17.474  34.949  25.527  1.00  0.00     0.000 C 
HETATM    4  C   LIG     1      17.249  35.032  24.012  1.00  0.00     0.000 C 
HETATM    5  C   LIG     1      16.588  36.344  23.557  1.00  0.00     0.000 C 
HETATM    6  C   LIG     1      17.574  37.524  23.568  1.00  0.00     0.000 C 
HETATM    7  C   LIG     1      17.649  38.276  24.909  1.00  0.00     0.000 C 
ENDROOT
TORSDOF 0
ENDMDL
MODEL 11
REMARK VINA RESULT:      -4.9      0.857      2.478
REMARK  0 active torsions:
REMARK  status: ('A' for Active; 'I' for Inactive)
ROOT
HETATM    1  C   LIG     1      17.515  37.623  23.468  1.00  0.00     0.000 C 
HETATM    2  C   LIG     1      16.554  36.422  23.441  1.00  0.00     0.000 C 
HETATM    3  C   LIG     1      17.240  35.121  23.885  1.00  0.00     0.000 C 
HETATM    4  C   LIG     1      17.462  35.026  25.400  1.00  0.00     0.000 C 
HETATM    5  C   LIG     1      18.313  36.171  25.973  1.00  0.00     0.000 C 
HETATM    6  C   LIG     1      17.521  37.485  26.079  1.00  0.00     0.000 C 
HETATM    7  C   LIG     1      17.573  38.363  24.816  1.00  0.00     0.000 C 
ENDROOT
TORSDOF 0
ENDMDL
MODEL 12
REMARK VINA RESULT:      -4.7      2.256      4.015
REMARK  0 active torsions:
REMARK  status: ('A' for Active; 'I' for Inactive)
ROOT
HETATM    1  C   LIG     1      16.754  36.057  21.145  1.00  0.00     0.000 C 
HETATM    2  C   LIG     1      17.939  37.030  21.015  1.00  0.00     0.000 C 
HETATM    3  C   LIG     1      17.630  38.404  21.628  1.00  0.00     0.000 C 
HETATM    4  C   LIG     1      17.667  38.418  23.162  1.00  0.00     0.000 C 
HETATM    5  C   LIG     1      16.684  37.432  23.814  1.00  0.00     0.000 C 
HETATM    6  C   LIG     1      17.177  35.978  23.723  1.00  0.00     0.000 C 
HETATM    7  C   LIG     1      16.742  35.237  22.447  1.00  0.00     0.000 C 
ENDROOT
TORSDOF 0
ENDMDL
MODEL 13
REMARK VINA RESULT:      -4.6      2.575      3.685
REMARK  0 active torsions:
REMARK  status: ('A' for Active; 'I' for Inactive)
ROOT
HETATM    1  C   LIG     1      17.256  38.886  22.371  1.00  0.00     0.000 C 
HETATM    2  C   LIG     1      17.604  37.937  23.531  1.00  0.00     0.000 C 
HETATM    3  C   LIG     1      16.720  36.681  23.537  1.00  0.00     0.000 C 
HETATM    4  C   LIG     1      17.098  35.654  22.462  1.00  0.00     0.000 C 
HETATM    5  C   LIG     1      17.037  36.208  21.029  1.00  0.00     0.000 C 
HETATM    6  C   LIG     1      18.234  37.119  20.710  1.00  0.00     0.000 C 
HETATM    7  C   LIG     1      18.017  38.601  21.064  1.00  0.00     0.000 C 
ENDROOT
TORSDOF 0
ENDMDL
MODEL 14
REMARK VINA RESULT:      -4.6     10.346     11.872
REMARK  0 active torsions:
REMARK  status: ('A' for Active; 'I' for Inactive)
ROOT
HETATM    1  C   LIG     1      15.804  31.879  13.893  1.00  0.00     0.000 C 
HETATM    2  C   LIG     1      16.202  32.046  15.370  1.00  0.00     0.000 C 
HETATM    3  C   LIG     1      14.996  32.387  16.259  1.00  0.00     0.000 C 
HETATM    4  C   LIG     1      14.082  31.189  16.546  1.00  0.00     0.000 C 
HETATM    5  C   LIG     1      13.504  30.535  15.280  1.00  0.00     0.000 C 
HETATM    6  C   LIG     1      14.548  29.680  14.543  1.00  0.00     0.000 C 
HETATM    7  C   LIG     1      15.383  30.450  13.505  1.00  0.00     0.000 C 
ENDROOT
TORSDOF 0
ENDMDL
MODEL 15
REMARK VINA RESULT:      -4.6     10.368     12.078
REMARK  0 active torsions:
REMARK  status: ('A' for Active; 'I' for Inactive)
ROOT
HETATM    1  C   LIG     1      14.470  29.632  14.528  1.00  0.00     0.000 C 
HETATM    2  C   LIG     1      13.432  30.493  15.267  1.00  0.00     0.000 C 
HETATM    3  C   LIG     1      14.005  31.122  16.545  1.00  0.00     0.000 C 
HETATM    4  C   LIG     1      14.939  32.312  16.282  1.00  0.00     0.000 C 
HETATM    5  C   LIG     1      16.149  31.964  15.400  1.00  0.00     0.000 C 
HETATM    6  C   LIG     1      15.764  31.821  13.919  1.00  0.00     0.000 C 
HETATM    7  C   LIG     1      15.328  30.403  13.509  1.00  0.00     0.000 C 
ENDROOT
TORSDOF 0
ENDMDL
MODEL 16
REMARK VINA RESULT:      -4.5     10.120     11.466
REMARK  0 active torsions:
REMARK  status: ('A' for Active; 'I' for Inactive)
ROOT
HETATM    1  C   LIG     1      14.117  31.580  17.215  1.00  0.00     0.000 C 
HETATM    2  C   LIG     1      14.704  32.700  16.339  1.00  0.00     0.000 C 
HETATM    3  C   LIG     1      15.937  32.234  15.551  1.00  0.00     0.000 C 
HETATM    4  C   LIG     1      15.601  31.344  14.348  1.00  0.00     0.000 C 
HETATM    5  C   LIG     1      14.827  30.068  14.719  1.00  0.00     0.000 C 
HETATM    6  C   LIG     1      13.350  30.358  15.035  1.00  0.00     0.000 C 
HETATM    7  C   LIG     1      13.070  30.700  16.509  1.00  0.00     0.000 C 
ENDROOT
TORSDOF 0
ENDMDL
MODEL 17
REMARK VINA RESULT:      -4.5     10.132     11.631
REMARK  0 active torsions:
REMARK  status: ('A' for Active; 'I' for Inactive)
ROOT
HETATM    1  C   LIG     1      13.416  30.333  14.987  1.00  0.00     0.000 C 
HETATM    2  C   LIG     1      14.912  30.103  14.715  1.00  0.00     0.000 C 
HETATM    3  C   LIG     1      15.651  31.411  14.397  1.00  0.00     0.000 C 
HETATM    4  C   LIG     1      15.917  32.285  15.630  1.00  0.00     0.000 C 
HETATM    5  C   LIG     1      14.642  32.691  16.387  1.00  0.00     0.000 C 
HETATM    6  C   LIG     1      14.068  31.532  17.218  1.00  0.00     0.000 C 
HETATM    7  C   LIG     1      13.075  30.634  16.458  1.00  0.00     0.000 C 
ENDROOT
TORSDOF 0
ENDMDL
MODEL 18
REMARK VINA RESULT:      -4.5      9.646     11.296
REMARK  0 active torsions:
REMARK  status: ('A' for Active; 'I' for Inactive)
ROOT
HETATM    1  C   LIG     1      16.086  32.290  15.945  1.00  0.00     0.000 C 
HETATM    2  C   LIG     1      15.592  31.848  14.557  1.00  0.00     0.000 C 
HETATM    3  C   LIG     1      15.019  30.423  14.573  1.00  0.00     0.000 C 
HETATM    4  C   LIG     1      13.623  30.324  15.202  1.00  0.00     0.000 C 
HETATM    5  C   LIG     1      13.564  30.822  16.656  1.00  0.00     0.000 C 
HETATM    6  C   LIG     1      13.597  32.357  16.744  1.00  0.00     0.000 C 
HETATM    7  C   LIG     1      15.011  32.959  16.821  1.00  0.00     0.000 C 
ENDROOT
TORSDOF 0
ENDMDL
MODEL 19
REMARK VINA RESULT:      -4.4      1.953      3.521
REMARK  0 active torsions:
REMARK  status: ('A' for Active; 'I' for Inactive)
ROOT
HETATM    1  C   LIG     1      18.419  38.596  23.071  1.00  0.00     0.000 C 
HETATM    2  C   LIG     1      17.405  38.445  21.925  1.00  0.00     0.000 C 
HETATM    3  C   LIG     1      17.365  37.013  21.371  1.00  0.00     0.000 C 
HETATM    4  C   LIG     1      16.627  36.020  22.278  1.00  0.00     0.000 C 
HETATM    5  C   LIG     1      17.223  35.912  23.691  1.00  0.00     0.000 C 
HETATM    6  C   LIG     1      16.860  37.123  24.567  1.00  0.00     0.000 C 
HETATM    7  C   LIG     1      17.851  38.297  24.470  1.00  0.00     0.000 C 
ENDROOT
TORSDOF 0
ENDMDL
MODEL 20
REMARK VINA RESULT:      -4.4      9.924     11.274
REMARK  0 active torsions:
REMARK  status: ('A' for Active; 'I' for Inactive)
ROOT
HETATM    1  C   LIG     1      14.213  32.800  16.704  1.00  0.00     0.000 C 
HETATM    2  C   LIG     1      13.894  31.322  16.989  1.00  0.00     0.000 C 
HETATM    3  C   LIG     1      13.453  30.570  15.724  1.00  0.00     0.000 C 
HETATM    4  C   LIG     1      14.609  30.232  14.773  1.00  0.00     0.000 C 
HETATM    5  C   LIG     1      15.389  31.464  14.285  1.00  0.00     0.000 C 
HETATM    6  C   LIG     1      16.324  32.024  15.369  1.00  0.00     0.000 C 
HETATM    7  C   LIG     1      15.672  33.068  16.293  1.00  0.00     0.000 C 
ENDROOT
TORSDOF 0
ENDMDL
