REMARK  0 active torsions:
REMARK  status: ('A' for Active; 'I' for Inactive)
ROOT
HETATM    1  C   LIG     1       1.840   0.613  -0.013  1.00  0.00     0.000 C 
HETATM    2  C   LIG     1       1.532  -0.859  -0.341  1.00  0.00     0.000 C 
HETATM    3  C   LIG     1       0.522  -1.509   0.628  1.00  0.00     0.000 C 
HETATM    4  C   LIG     1      -0.906  -1.673   0.073  1.00  0.00     0.000 C 
HETATM    5  C   LIG     1      -1.478  -0.492  -0.728  1.00  0.00     0.000 C 
HETATM    6  C   LIG     1      -1.728   0.795   0.077  1.00  0.00     0.000 C 
HETATM    7  C   LIG     1      -0.487   1.519   0.633  1.00  0.00     0.000 C 
HETATM    8  C   LIG     1       0.710   1.607  -0.338  1.00  0.00     0.000 C 
ENDROOT
TORSDOF 0
