MODEL 1
REMARK VINA RESULT:      -5.7      0.000      0.000
REMARK  0 active torsions:
REMARK  status: ('A' for Active; 'I' for Inactive)
ROOT
HETATM    1  C   LIG     1      17.193  38.388  24.762  1.00  0.00     0.000 C 
HETATM    2  C   LIG     1      16.422  37.440  23.825  1.00  0.00     0.000 C 
HETATM    3  C   LIG     1      17.297  36.319  23.226  1.00  0.00     0.000 C 
HETATM    4  C   LIG     1      17.110  34.930  23.864  1.00  0.00     0.000 C 
HETATM    5  C   LIG     1      16.994  34.881  25.397  1.00  0.00     0.000 C 
HETATM    6  C   LIG     1      18.262  35.282  26.170  1.00  0.00     0.000 C 
HETATM    7  C   LIG     1      18.711  36.751  26.054  1.00  0.00     0.000 C 
HETATM    8  C   LIG     1      17.573  37.792  26.130  1.00  0.00     0.000 C 
ENDROOT
TORSDOF 0
ENDMDL
MODEL 2
REMARK VINA RESULT:      -5.5      0.625      2.655
REMARK  0 active torsions:
REMARK  status: ('A' for Active; 'I' for Inactive)
ROOT
HETATM    1  C   LIG     1      16.788  35.734  23.088  1.00  0.00     0.000 C 
HETATM    2  C   LIG     1      17.160  37.222  23.217  1.00  0.00     0.000 C 
HETATM    3  C   LIG     1      16.606  37.889  24.493  1.00  0.00     0.000 C 
HETATM    4  C   LIG     1      17.637  38.114  25.616  1.00  0.00     0.000 C 
HETATM    5  C   LIG     1      18.627  36.969  25.887  1.00  0.00     0.000 C 
HETATM    6  C   LIG     1      18.008  35.677  26.447  1.00  0.00     0.000 C 
HETATM    7  C   LIG     1      17.061  34.899  25.514  1.00  0.00     0.000 C 
HETATM    8  C   LIG     1      17.532  34.787  24.048  1.00  0.00     0.000 C 
ENDROOT
TORSDOF 0
ENDMDL
MODEL 3
REMARK VINA RESULT:      -5.3      2.230      4.042
REMARK  0 active torsions:
REMARK  status: ('A' for Active; 'I' for Inactive)
ROOT
HETATM    1  C   LIG     1      18.339  38.108  20.588  1.00  0.00     0.000 C 
HETATM    2  C   LIG     1      18.170  38.736  21.983  1.00  0.00     0.000 C 
HETATM    3  C   LIG     1      16.725  38.663  22.522  1.00  0.00     0.000 C 
HETATM    4  C   LIG     1      16.480  37.586  23.596  1.00  0.00     0.000 C 
HETATM    5  C   LIG     1      17.131  36.213  23.361  1.00  0.00     0.000 C 
HETATM    6  C   LIG     1      16.588  35.419  22.161  1.00  0.00     0.000 C 
HETATM    7  C   LIG     1      16.858  36.004  20.761  1.00  0.00     0.000 C 
HETATM    8  C   LIG     1      18.278  36.570  20.550  1.00  0.00     0.000 C 
ENDROOT
TORSDOF 0
ENDMDL
MODEL 4
REMARK VINA RESULT:      -5.3      1.162      3.358
REMARK  0 active torsions:
REMARK  status: ('A' for Active; 'I' for Inactive)
ROOT
HETATM    1  C   LIG     1      17.714  35.943  25.324  1.00  0.00     0.000 C 
HETATM    2  C   LIG     1      17.418  37.454  25.321  1.00  0.00     0.000 C 
HETATM    3  C   LIG     1      17.924  38.179  24.057  1.00  0.00     0.000 C 
HETATM    4  C   LIG     1      16.836  38.535  23.026  1.00  0.00     0.000 C 
HETATM    5  C   LIG     1      15.767  37.465  22.748  1.00  0.00     0.000 C 
HETATM    6  C   LIG     1      16.275  36.185  22.062  1.00  0.00     0.000 C 
HETATM    7  C   LIG     1      17.236  35.296  22.873  1.00  0.00     0.000 C 
HETATM    8  C   LIG     1      16.857  35.105  24.358  1.00  0.00     0.000 C 
ENDROOT
TORSDOF 0
ENDMDL
MODEL 5
REMARK VINA RESULT:      -5.3      3.692      5.669
REMARK  0 active torsions:
REMARK  status: ('A' for Active; 'I' for Inactive)
ROOT
HETATM    1  C   LIG     1      17.548  36.237  20.857  1.00  0.00     0.000 C 
HETATM    2  C   LIG     1      17.094  37.456  21.680  1.00  0.00     0.000 C 
HETATM    3  C   LIG     1      18.259  38.225  22.338  1.00  0.00     0.000 C 
HETATM    4  C   LIG     1      18.647  39.545  21.646  1.00  0.00     0.000 C 
HETATM    5  C   LIG     1      18.693  39.535  20.109  1.00  0.00     0.000 C 
HETATM    6  C   LIG     1      19.792  38.657  19.486  1.00  0.00     0.000 C 
HETATM    7  C   LIG     1      19.665  37.135  19.688  1.00  0.00     0.000 C 
HETATM    8  C   LIG     1      18.238  36.569  19.521  1.00  0.00     0.000 C 
ENDROOT
TORSDOF 0
ENDMDL
MODEL 6
REMARK VINA RESULT:      -5.3      3.172      4.903
REMARK  0 active torsions:
REMARK  status: ('A' for Active; 'I' for Inactive)
ROOT
HETATM    1  C   LIG     1      17.491  36.132  20.627  1.00  0.00     0.000 C 
HETATM    2  C   LIG     1      18.708  36.859  20.028  1.00  0.00     0.000 C 
HETATM    3  C   LIG     1      18.429  38.332  19.663  1.00  0.00     0.000 C 
HETATM    4  C   LIG     1      19.001  39.371  20.647  1.00  0.00     0.000 C 
HETATM    5  C   LIG     1      18.857  39.059  22.146  1.00  0.00     0.000 C 
HETATM    6  C   LIG     1      17.416  39.052  22.685  1.00  0.00     0.000 C 
HETATM    7  C   LIG     1      16.484  37.942  22.163  1.00  0.00     0.000 C 
HETATM    8  C   LIG     1      17.125  36.541  22.065  1.00  0.00     0.000 C 
ENDROOT
TORSDOF 0
ENDMDL
MODEL 7
REMARK VINA RESULT:      -5.2      1.990      3.653
REMARK  0 active torsions:
REMARK  status: ('A' for Active; 'I' for Inactive)
ROOT
HETATM    1  C   LIG     1      17.004  36.923  24.286  1.00  0.00     0.000 C 
HETATM    2  C   LIG     1      17.100  35.714  23.338  1.00  0.00     0.000 C 
HETATM    3  C   LIG     1      16.289  35.884  22.037  1.00  0.00     0.000 C 
HETATM    4  C   LIG     1      17.122  36.217  20.784  1.00  0.00     0.000 C 
HETATM    5  C   LIG     1      18.252  37.246  20.957  1.00  0.00     0.000 C 
HETATM    6  C   LIG     1      17.798  38.681  21.277  1.00  0.00     0.000 C 
HETATM    7  C   LIG     1      17.117  38.907  22.640  1.00  0.00     0.000 C 
HETATM    8  C   LIG     1      17.776  38.176  23.830  1.00  0.00     0.000 C 
ENDROOT
TORSDOF 0
ENDMDL
MODEL 8
REMARK VINA RESULT:      -5.1      3.006      4.307
REMARK  0 active torsions:
REMARK  status: ('A' for Active; 'I' for Inactive)
ROOT
HETATM    1  C   LIG     1      18.707  37.302  20.029  1.00  0.00     0.000 C 
HETATM    2  C   LIG     1      17.543  36.342  20.335  1.00  0.00     0.000 C 
HETATM    3  C   LIG     1      17.449  35.940  21.822  1.00  0.00     0.000 C 
HETATM    4  C   LIG     1      16.336  36.645  22.622  1.00  0.00     0.000 C 
HETATM    5  C   LIG     1      16.144  38.149  22.366  1.00  0.00     0.000 C 
HETATM    6  C   LIG     1      17.307  39.050  22.814  1.00  0.00     0.000 C 
HETATM    7  C   LIG     1      18.641  38.892  22.059  1.00  0.00     0.000 C 
HETATM    8  C   LIG     1      18.513  38.746  20.528  1.00  0.00     0.000 C 
ENDROOT
TORSDOF 0
ENDMDL
MODEL 9
REMARK VINA RESULT:      -5.1      2.032      3.221
REMARK  0 active torsions:
REMARK  status: ('A' for Active; 'I' for Inactive)
ROOT
HETATM    1  C   LIG     1      17.201  38.746  23.198  1.00  0.00     0.000 C 
HETATM    2  C   LIG     1      17.391  38.802  21.671  1.00  0.00     0.000 C 
HETATM    3  C   LIG     1      18.412  37.775  21.138  1.00  0.00     0.000 C 
HETATM    4  C   LIG     1      17.800  36.539  20.451  1.00  0.00     0.000 C 
HETATM    5  C   LIG     1      16.572  35.908  21.126  1.00  0.00     0.000 C 
HETATM    6  C   LIG     1      16.829  35.261  22.498  1.00  0.00     0.000 C 
HETATM    7  C   LIG     1      17.221  36.206  23.649  1.00  0.00     0.000 C 
HETATM    8  C   LIG     1      16.420  37.524  23.716  1.00  0.00     0.000 C 
ENDROOT
TORSDOF 0
ENDMDL
MODEL 10
REMARK VINA RESULT:      -5.0      1.265      2.926
REMARK  0 active torsions:
REMARK  status: ('A' for Active; 'I' for Inactive)
ROOT
HETATM    1  C   LIG     1      17.181  35.134  24.629  1.00  0.00     0.000 C 
HETATM    2  C   LIG     1      17.168  35.231  23.093  1.00  0.00     0.000 C 
HETATM    3  C   LIG     1      16.224  36.325  22.551  1.00  0.00     0.000 C 
HETATM    4  C   LIG     1      16.921  37.610  22.065  1.00  0.00     0.000 C 
HETATM    5  C   LIG     1      18.068  38.148  22.936  1.00  0.00     0.000 C 
HETATM    6  C   LIG     1      17.659  38.663  24.326  1.00  0.00     0.000 C 
HETATM    7  C   LIG     1      17.129  37.617  25.326  1.00  0.00     0.000 C 
HETATM    8  C   LIG     1      17.906  36.283  25.352  1.00  0.00     0.000 C 
ENDROOT
TORSDOF 0
ENDMDL
MODEL 11
REMARK VINA RESULT:      -5.0      3.771      5.217
REMARK  0 active torsions:
REMARK  status: ('A' for Active; 'I' for Inactive)
ROOT
HETATM    1  C   LIG     1      17.474  37.989  22.190  1.00  0.00     0.000 C 
HETATM    2  C   LIG     1      17.713  36.628  21.512  1.00  0.00     0.000 C 
HETATM    3  C   LIG     1      17.578  36.671  19.975  1.00  0.00     0.000 C 
HETATM    4  C   LIG     1      18.910  36.657  19.200  1.00  0.00     0.000 C 
HETATM    5  C   LIG     1      20.044  37.535  19.754  1.00  0.00     0.000 C 
HETATM    6  C   LIG     1      19.798  39.052  19.691  1.00  0.00     0.000 C 
HETATM    7  C   LIG     1      18.667  39.610  20.577  1.00  0.00     0.000 C 
HETATM    8  C   LIG     1      18.601  39.021  22.003  1.00  0.00     0.000 C 
ENDROOT
TORSDOF 0
ENDMDL
MODEL 12
REMARK VINA RESULT:      -4.9      3.621      5.123
REMARK  0 active torsions:
REMARK  status: ('A' for Active; 'I' for Inactive)
ROOT
HETATM    1  C   LIG     1      18.988  39.733  21.447  1.00  0.00     0.000 C 
HETATM    2  C   LIG     1      18.310  38.733  22.401  1.00  0.00     0.000 C 
HETATM    3  C   LIG     1      17.027  38.101  21.823  1.00  0.00     0.000 C 
HETATM    4  C   LIG     1      17.180  36.653  21.319  1.00  0.00     0.000 C 
HETATM    5  C   LIG     1      18.453  36.328  20.520  1.00  0.00     0.000 C 
HETATM    6  C   LIG     1      18.574  37.024  19.154  1.00  0.00     0.000 C 
HETATM    7  C   LIG     1      18.737  38.556  19.166  1.00  0.00     0.000 C 
HETATM    8  C   LIG     1      19.703  39.104  20.238  1.00  0.00     0.000 C 
ENDROOT
TORSDOF 0
ENDMDL
MODEL 13
REMARK VINA RESULT:      -4.8      9.826     11.547
REMARK  0 active torsions:
REMARK  status: ('A' for Active; 'I' for Inactive)
ROOT
HETATM    1  C   LIG     1      14.813  32.328  16.814  1.00  0.00     0.000 C 
HETATM    2  C   LIG     1      13.892  31.098  16.901  1.00  0.00     0.000 C 
HETATM    3  C   LIG     1      13.048  30.867  15.630  1.00  0.00     0.000 C 
HETATM    4  C   LIG     1      13.541  29.732  14.713  1.00  0.00     0.000 C 
HETATM    5  C   LIG     1      15.058  29.636  14.483  1.00  0.00     0.000 C 
HETATM    6  C   LIG     1      15.684  30.804  13.701  1.00  0.00     0.000 C 
HETATM    7  C   LIG     1      15.678  32.182  14.388  1.00  0.00     0.000 C 
HETATM    8  C   LIG     1      16.034  32.168  15.891  1.00  0.00     0.000 C 
ENDROOT
TORSDOF 0
ENDMDL
MODEL 14
REMARK VINA RESULT:      -4.7      2.238      4.492
REMARK  0 active torsions:
REMARK  status: ('A' for Active; 'I' for Inactive)
ROOT
HETATM    1  C   LIG     1      16.536  34.749  20.973  1.00  0.00     0.000 C 
HETATM    2  C   LIG     1      16.008  35.061  22.384  1.00  0.00     0.000 C 
HETATM    3  C   LIG     1      17.096  35.579  23.349  1.00  0.00     0.000 C 
HETATM    4  C   LIG     1      17.069  37.096  23.614  1.00  0.00     0.000 C 
HETATM    5  C   LIG     1      16.823  38.007  22.400  1.00  0.00     0.000 C 
HETATM    6  C   LIG     1      17.939  38.014  21.341  1.00  0.00     0.000 C 
HETATM    7  C   LIG     1      18.165  36.706  20.561  1.00  0.00     0.000 C 
HETATM    8  C   LIG     1      16.878  35.979  20.113  1.00  0.00     0.000 C 
ENDROOT
TORSDOF 0
ENDMDL
MODEL 15
REMARK VINA RESULT:      -4.6      9.536     11.092
REMARK  0 active torsions:
REMARK  status: ('A' for Active; 'I' for Inactive)
ROOT
HETATM    1  C   LIG     1      16.232  32.636  15.209  1.00  0.00     0.000 C 
HETATM    2  C   LIG     1      15.715  31.731  14.076  1.00  0.00     0.000 C 
HETATM    3  C   LIG     1      15.505  30.263  14.505  1.00  0.00     0.000 C 
HETATM    4  C   LIG     1      14.038  29.853  14.740  1.00  0.00     0.000 C 
HETATM    5  C   LIG     1      13.149  30.858  15.490  1.00  0.00     0.000 C 
HETATM    6  C   LIG     1      13.522  31.102  16.963  1.00  0.00     0.000 C 
HETATM    7  C   LIG     1      14.870  31.796  17.232  1.00  0.00     0.000 C 
HETATM    8  C   LIG     1      15.197  32.979  16.296  1.00  0.00     0.000 C 
ENDROOT
TORSDOF 0
ENDMDL
MODEL 16
REMARK VINA RESULT:      -4.6      1.439      2.820
REMARK  0 active torsions:
REMARK  status: ('A' for Active; 'I' for Inactive)
ROOT
HETATM    1  C   LIG     1      16.673  36.826  21.579  1.00  0.00     0.000 C 
HETATM    2  C   LIG     1      16.223  35.714  22.544  1.00  0.00     0.000 C 
HETATM    3  C   LIG     1      17.359  35.179  23.441  1.00  0.00     0.000 C 
HETATM    4  C   LIG     1      17.333  35.678  24.899  1.00  0.00     0.000 C 
HETATM    5  C   LIG     1      17.012  37.166  25.116  1.00  0.00     0.000 C 
HETATM    6  C   LIG     1      18.067  38.155  24.589  1.00  0.00     0.000 C 
HETATM    7  C   LIG     1      18.259  38.217  23.062  1.00  0.00     0.000 C 
HETATM    8  C   LIG     1      16.955  38.189  22.236  1.00  0.00     0.000 C 
ENDROOT
TORSDOF 0
ENDMDL
MODEL 17
REMARK VINA RESULT:      -4.5      9.369     11.197
REMARK  0 active torsions:
REMARK  status: ('A' for Active; 'I' for Inactive)
ROOT
HETATM    1  C   LIG     1      13.795  30.024  14.769  1.00  0.00     0.000 C 
HETATM    2  C   LIG     1      15.281  30.357  14.543  1.00  0.00     0.000 C 
HETATM    3  C   LIG     1      15.555  31.864  14.361  1.00  0.00     0.000 C 
HETATM    4  C   LIG     1      16.164  32.573  15.586  1.00  0.00     0.000 C 
HETATM    5  C   LIG     1      15.581  32.205  16.960  1.00  0.00     0.000 C 
HETATM    6  C   LIG     1      14.121  32.629  17.194  1.00  0.00     0.000 C 
HETATM    7  C   LIG     1      13.048  31.934  16.334  1.00  0.00     0.000 C 
HETATM    8  C   LIG     1      13.240  30.413  16.152  1.00  0.00     0.000 C 
ENDROOT
TORSDOF 0
ENDMDL
MODEL 18
REMARK VINA RESULT:      -4.5      9.057     11.006
REMARK  0 active torsions:
REMARK  status: ('A' for Active; 'I' for Inactive)
ROOT
HETATM    1  C   LIG     1      13.487  30.267  15.317  1.00  0.00     0.000 C 
HETATM    2  C   LIG     1      13.054  31.248  16.421  1.00  0.00     0.000 C 
HETATM    3  C   LIG     1      14.097  31.411  17.546  1.00  0.00     0.000 C 
HETATM    4  C   LIG     1      14.919  32.713  17.494  1.00  0.00     0.000 C 
HETATM    5  C   LIG     1      15.415  33.164  16.111  1.00  0.00     0.000 C 
HETATM    6  C   LIG     1      16.459  32.247  15.450  1.00  0.00     0.000 C 
HETATM    7  C   LIG     1      15.987  30.840  15.038  1.00  0.00     0.000 C 
HETATM    8  C   LIG     1      14.592  30.784  14.378  1.00  0.00     0.000 C 
ENDROOT
TORSDOF 0
ENDMDL
MODEL 19
REMARK VINA RESULT:      -4.5      8.977     10.889
REMARK  0 active torsions:
REMARK  status: ('A' for Active; 'I' for Inactive)
ROOT
HETATM    1  C   LIG     1      15.722  31.226  14.426  1.00  0.00     0.000 C 
HETATM    2  C   LIG     1      16.370  32.122  15.496  1.00  0.00     0.000 C 
HETATM    3  C   LIG     1      15.426  33.213  16.043  1.00  0.00     0.000 C 
HETATM    4  C   LIG     1      14.839  32.931  17.440  1.00  0.00     0.000 C 
HETATM    5  C   LIG     1      14.363  31.496  17.715  1.00  0.00     0.000 C 
HETATM    6  C   LIG     1      13.146  31.033  16.896  1.00  0.00     0.000 C 
HETATM    7  C   LIG     1      13.349  30.883  15.376  1.00  0.00     0.000 C 
HETATM    8  C   LIG     1      14.679  30.224  14.953  1.00  0.00     0.000 C 
ENDROOT
TORSDOF 0
ENDMDL
MODEL 20
REMARK VINA RESULT:      -3.9     14.877     16.515
REMARK  0 active torsions:
REMARK  status: ('A' for Active; 'I' for Inactive)
ROOT
HETATM    1  C   LIG     1      27.442  30.597  34.967  1.00  0.00     0.000 C 
HETATM    2  C   LIG     1      26.098  31.028  35.583  1.00  0.00     0.000 C 
HETATM    3  C   LIG     1      25.887  30.515  37.023  1.00  0.00     0.000 C 
HETATM    4  C   LIG     1      26.090  31.568  38.129  1.00  0.00     0.000 C 
HETATM    5  C   LIG     1      27.289  32.517  37.972  1.00  0.00     0.000 C 
HETATM    6  C   LIG     1      28.674  31.856  38.076  1.00  0.00     0.000 C 
HETATM    7  C   LIG     1      29.059  30.868  36.958  1.00  0.00     0.000 C 
HETATM    8  C   LIG     1      28.681  31.317  35.530  1.00  0.00     0.000 C 
ENDROOT
TORSDOF 0
ENDMDL
