REMARK  3 active torsions:
REMARK  status: ('A' for Active; 'I' for Inactive)
REMARK    1  A    between atoms: N_3  and  S_4 
REMARK    2  A    between atoms: S_4  and  C_5 
REMARK    3  A    between atoms: C_5  and  C_8 
ROOT
HETATM    1  O   LIG     1       0.662   2.329  -0.008  1.00  0.00    -0.272 OA
HETATM    2  C   LIG     1       0.259   1.144  -0.156  1.00  0.00     0.242 C 
HETATM    3  N   LIG     1       0.982   0.141  -0.863  1.00  0.00    -0.220 N 
HETATM    4  C   LIG     1       0.048  -0.919  -1.055  1.00  0.00     0.242 C 
HETATM    5  C   LIG     1      -1.312  -0.529  -0.585  1.00  0.00     0.096 C 
HETATM    6  C   LIG     1      -2.232  -1.542   0.090  1.00  0.00     0.042 C 
HETATM    7  C   LIG     1      -3.415  -0.800   0.711  1.00  0.00    -0.030 C 
HETATM    8  C   LIG     1      -3.419   0.543   0.934  1.00  0.00    -0.030 C 
HETATM    9  C   LIG     1      -2.247   1.451   0.568  1.00  0.00     0.042 C 
HETATM   10  C   LIG     1      -0.999   0.588   0.410  1.00  0.00     0.096 C 
HETATM   11  O   LIG     1       0.306  -1.965  -1.707  1.00  0.00    -0.272 OA
ENDROOT
BRANCH   3  12
HETATM   12  S   LIG     1       2.408   0.437  -1.873  1.00  0.00     0.004 SA
BRANCH  12  13
HETATM   13  C   LIG     1       3.660  -0.397  -0.807  1.00  0.00     0.209 C 
HETATM   14 CL   LIG     1       5.005  -0.815  -1.907  1.00  0.00    -0.085 Cl
HETATM   15 CL   LIG     1       3.053  -1.939  -0.128  1.00  0.00    -0.085 Cl
BRANCH  13  16
HETATM   16  C   LIG     1       4.184   0.543   0.305  1.00  0.00     0.229 C 
HETATM   17 CL   LIG     1       5.630  -0.126   1.119  1.00  0.00    -0.104 Cl
HETATM   18 CL   LIG     1       2.973   0.857   1.576  1.00  0.00    -0.104 Cl
ENDBRANCH  13  16
ENDBRANCH  12  13
ENDBRANCH   3  12
TORSDOF 3
