REMARK  1 active torsions:
REMARK  status: ('A' for Active; 'I' for Inactive)
REMARK    1  A    between atoms: C_4  and  C_5 
ROOT
HETATM    1 CL   LIG     1       3.973  -2.234   0.297  1.00  0.00    -0.083 Cl
HETATM    2  C   LIG     1       2.940  -0.821   0.121  1.00  0.00     0.056 A 
HETATM    3  C   LIG     1       1.550  -0.993   0.133  1.00  0.00     0.037 A 
HETATM    4  C   LIG     1       0.690   0.112  -0.010  1.00  0.00    -0.024 A 
HETATM    5  C   LIG     1       1.249   1.393  -0.166  1.00  0.00     0.014 A 
HETATM    6  C   LIG     1       2.635   1.565  -0.178  1.00  0.00     0.026 A 
HETATM    7  C   LIG     1       3.485   0.463  -0.035  1.00  0.00     0.055 A 
HETATM    8 CL   LIG     1       5.224   0.721  -0.056  1.00  0.00    -0.083 Cl
ENDROOT
BRANCH   4   9
HETATM    9  C   LIG     1      -0.784  -0.072   0.004  1.00  0.00    -0.026 A 
HETATM   10  C   LIG     1      -1.604   0.648  -0.886  1.00  0.00     0.012 A 
HETATM   11  C   LIG     1      -2.991   0.472  -0.871  1.00  0.00     0.001 A 
HETATM   12  C   LIG     1      -3.575  -0.421   0.030  1.00  0.00     0.000 A 
HETATM   13  C   LIG     1      -2.772  -1.141   0.918  1.00  0.00     0.001 A 
HETATM   14  C   LIG     1      -1.385  -0.970   0.907  1.00  0.00     0.012 A 
ENDBRANCH   4   9
TORSDOF 1
