MODEL 1
REMARK VINA RESULT:      -7.6      0.000      0.000
REMARK  1 active torsions:
REMARK  status: ('A' for Active; 'I' for Inactive)
REMARK    1  A    between atoms: C_4  and  C_5 
ROOT
HETATM    1 CL   LIG     1      14.732  32.756  20.612  1.00  0.00    -0.083 Cl
HETATM    2  C   LIG     1      15.690  34.197  20.933  1.00  0.00     0.056 A 
HETATM    3  C   LIG     1      16.078  34.472  22.251  1.00  0.00     0.037 A 
HETATM    4  C   LIG     1      16.840  35.617  22.549  1.00  0.00    -0.024 A 
HETATM    5  C   LIG     1      17.206  36.481  21.502  1.00  0.00     0.014 A 
HETATM    6  C   LIG     1      16.820  36.207  20.188  1.00  0.00     0.026 A 
HETATM    7  C   LIG     1      16.062  35.068  19.897  1.00  0.00     0.055 A 
HETATM    8 CL   LIG     1      15.595  34.758  18.231  1.00  0.00    -0.083 Cl
ENDROOT
BRANCH   4   9
HETATM    9  C   LIG     1      17.251  35.907  23.946  1.00  0.00    -0.026 A 
HETATM   10  C   LIG     1      17.459  34.859  24.864  1.00  0.00     0.012 A 
HETATM   11  C   LIG     1      17.847  35.135  26.178  1.00  0.00     0.001 A 
HETATM   12  C   LIG     1      18.031  36.455  26.593  1.00  0.00     0.000 A 
HETATM   13  C   LIG     1      17.828  37.504  25.692  1.00  0.00     0.001 A 
HETATM   14  C   LIG     1      17.441  37.234  24.376  1.00  0.00     0.012 A 
ENDBRANCH   4   9
TORSDOF 1
ENDMDL
MODEL 2
REMARK VINA RESULT:      -7.0      2.771      3.716
REMARK  1 active torsions:
REMARK  status: ('A' for Active; 'I' for Inactive)
REMARK    1  A    between atoms: C_4  and  C_5 
ROOT
HETATM    1 CL   LIG     1      14.773  30.702  20.338  1.00  0.00    -0.083 Cl
HETATM    2  C   LIG     1      15.053  32.262  19.574  1.00  0.00     0.056 A 
HETATM    3  C   LIG     1      15.557  33.315  20.349  1.00  0.00     0.037 A 
HETATM    4  C   LIG     1      15.790  34.579  19.775  1.00  0.00    -0.024 A 
HETATM    5  C   LIG     1      15.509  34.769  18.411  1.00  0.00     0.014 A 
HETATM    6  C   LIG     1      15.008  33.719  17.637  1.00  0.00     0.026 A 
HETATM    7  C   LIG     1      14.778  32.465  18.212  1.00  0.00     0.055 A 
HETATM    8 CL   LIG     1      14.145  31.170  17.206  1.00  0.00    -0.083 Cl
ENDROOT
BRANCH   4   9
HETATM    9  C   LIG     1      16.325  35.694  20.599  1.00  0.00    -0.026 A 
HETATM   10  C   LIG     1      15.618  36.153  21.727  1.00  0.00     0.012 A 
HETATM   11  C   LIG     1      16.125  37.202  22.500  1.00  0.00     0.001 A 
HETATM   12  C   LIG     1      17.337  37.805  22.158  1.00  0.00     0.000 A 
HETATM   13  C   LIG     1      18.047  37.357  21.041  1.00  0.00     0.001 A 
HETATM   14  C   LIG     1      17.547  36.309  20.264  1.00  0.00     0.012 A 
ENDBRANCH   4   9
TORSDOF 1
ENDMDL
MODEL 3
REMARK VINA RESULT:      -7.0      2.937      5.560
REMARK  1 active torsions:
REMARK  status: ('A' for Active; 'I' for Inactive)
REMARK    1  A    between atoms: C_4  and  C_5 
ROOT
HETATM    1 CL   LIG     1      17.764  34.821  25.558  1.00  0.00    -0.083 Cl
HETATM    2  C   LIG     1      17.145  35.629  24.124  1.00  0.00     0.056 A 
HETATM    3  C   LIG     1      16.799  34.856  23.008  1.00  0.00     0.037 A 
HETATM    4  C   LIG     1      16.305  35.465  21.839  1.00  0.00    -0.024 A 
HETATM    5  C   LIG     1      16.164  36.864  21.809  1.00  0.00     0.014 A 
HETATM    6  C   LIG     1      16.509  37.635  22.922  1.00  0.00     0.026 A 
HETATM    7  C   LIG     1      17.000  37.024  24.081  1.00  0.00     0.055 A 
HETATM    8 CL   LIG     1      17.424  38.030  25.459  1.00  0.00    -0.083 Cl
ENDROOT
BRANCH   4   9
HETATM    9  C   LIG     1      15.937  34.644  20.657  1.00  0.00    -0.026 A 
HETATM   10  C   LIG     1      15.762  33.252  20.779  1.00  0.00     0.012 A 
HETATM   11  C   LIG     1      15.415  32.482  19.665  1.00  0.00     0.001 A 
HETATM   12  C   LIG     1      15.240  33.089  18.419  1.00  0.00     0.000 A 
HETATM   13  C   LIG     1      15.412  34.469  18.286  1.00  0.00     0.001 A 
HETATM   14  C   LIG     1      15.758  35.244  19.396  1.00  0.00     0.012 A 
ENDBRANCH   4   9
TORSDOF 1
ENDMDL
MODEL 4
REMARK VINA RESULT:      -6.8      3.427      6.117
REMARK  1 active torsions:
REMARK  status: ('A' for Active; 'I' for Inactive)
REMARK    1  A    between atoms: C_4  and  C_5 
ROOT
HETATM    1 CL   LIG     1      19.247  38.000  20.127  1.00  0.00    -0.083 Cl
HETATM    2  C   LIG     1      17.827  37.137  20.706  1.00  0.00     0.056 A 
HETATM    3  C   LIG     1      17.325  36.073  19.946  1.00  0.00     0.037 A 
HETATM    4  C   LIG     1      16.188  35.361  20.372  1.00  0.00    -0.024 A 
HETATM    5  C   LIG     1      15.563  35.736  21.575  1.00  0.00     0.014 A 
HETATM    6  C   LIG     1      16.063  36.797  22.333  1.00  0.00     0.026 A 
HETATM    7  C   LIG     1      17.194  37.501  21.905  1.00  0.00     0.055 A 
HETATM    8 CL   LIG     1      17.792  38.830  22.887  1.00  0.00    -0.083 Cl
ENDROOT
BRANCH   4   9
HETATM    9  C   LIG     1      15.658  34.232  19.566  1.00  0.00    -0.026 A 
HETATM   10  C   LIG     1      15.408  34.391  18.189  1.00  0.00     0.012 A 
HETATM   11  C   LIG     1      14.910  33.326  17.432  1.00  0.00     0.001 A 
HETATM   12  C   LIG     1      14.654  32.094  18.038  1.00  0.00     0.000 A 
HETATM   13  C   LIG     1      14.898  31.924  19.403  1.00  0.00     0.001 A 
HETATM   14  C   LIG     1      15.397  32.985  20.165  1.00  0.00     0.012 A 
ENDBRANCH   4   9
TORSDOF 1
ENDMDL
MODEL 5
REMARK VINA RESULT:      -6.7      7.403     10.797
REMARK  1 active torsions:
REMARK  status: ('A' for Active; 'I' for Inactive)
REMARK    1  A    between atoms: C_4  and  C_5 
ROOT
HETATM    1 CL   LIG     1      17.215  33.705  15.025  1.00  0.00    -0.083 Cl
HETATM    2  C   LIG     1      15.863  32.687  15.506  1.00  0.00     0.056 A 
HETATM    3  C   LIG     1      15.636  31.492  14.813  1.00  0.00     0.037 A 
HETATM    4  C   LIG     1      14.561  30.653  15.164  1.00  0.00    -0.024 A 
HETATM    5  C   LIG     1      13.718  31.036  16.223  1.00  0.00     0.014 A 
HETATM    6  C   LIG     1      13.944  32.228  16.914  1.00  0.00     0.026 A 
HETATM    7  C   LIG     1      15.014  33.057  16.561  1.00  0.00     0.055 A 
HETATM    8 CL   LIG     1      15.265  34.550  17.455  1.00  0.00    -0.083 Cl
ENDROOT
BRANCH   4   9
HETATM    9  C   LIG     1      14.322  29.385  14.429  1.00  0.00    -0.026 A 
HETATM   10  C   LIG     1      13.019  28.866  14.301  1.00  0.00     0.012 A 
HETATM   11  C   LIG     1      12.798  27.672  13.607  1.00  0.00     0.001 A 
HETATM   12  C   LIG     1      13.870  26.983  13.036  1.00  0.00     0.000 A 
HETATM   13  C   LIG     1      15.167  27.488  13.156  1.00  0.00     0.001 A 
HETATM   14  C   LIG     1      15.395  28.681  13.847  1.00  0.00     0.012 A 
ENDBRANCH   4   9
TORSDOF 1
ENDMDL
MODEL 6
REMARK VINA RESULT:      -6.4      2.570      4.217
REMARK  1 active torsions:
REMARK  status: ('A' for Active; 'I' for Inactive)
REMARK    1  A    between atoms: C_4  and  C_5 
ROOT
HETATM    1 CL   LIG     1      15.020  33.518  18.158  1.00  0.00    -0.083 Cl
HETATM    2  C   LIG     1      15.653  34.262  19.621  1.00  0.00     0.056 A 
HETATM    3  C   LIG     1      16.527  35.350  19.504  1.00  0.00     0.037 A 
HETATM    4  C   LIG     1      17.059  35.969  20.651  1.00  0.00    -0.024 A 
HETATM    5  C   LIG     1      16.699  35.476  21.918  1.00  0.00     0.014 A 
HETATM    6  C   LIG     1      15.827  34.391  22.035  1.00  0.00     0.026 A 
HETATM    7  C   LIG     1      15.301  33.781  20.892  1.00  0.00     0.055 A 
HETATM    8 CL   LIG     1      14.207  32.417  21.082  1.00  0.00    -0.083 Cl
ENDROOT
BRANCH   4   9
HETATM    9  C   LIG     1      17.985  37.123  20.525  1.00  0.00    -0.026 A 
HETATM   10  C   LIG     1      17.858  38.239  21.374  1.00  0.00     0.012 A 
HETATM   11  C   LIG     1      18.732  39.324  21.253  1.00  0.00     0.001 A 
HETATM   12  C   LIG     1      19.740  39.308  20.287  1.00  0.00     0.000 A 
HETATM   13  C   LIG     1      19.877  38.207  19.439  1.00  0.00     0.001 A 
HETATM   14  C   LIG     1      19.007  37.119  19.555  1.00  0.00     0.012 A 
ENDBRANCH   4   9
TORSDOF 1
ENDMDL
MODEL 7
REMARK VINA RESULT:      -6.3      3.471      5.901
REMARK  1 active torsions:
REMARK  status: ('A' for Active; 'I' for Inactive)
REMARK    1  A    between atoms: C_4  and  C_5 
ROOT
HETATM    1 CL   LIG     1      15.354  37.713  23.532  1.00  0.00    -0.083 Cl
HETATM    2  C   LIG     1      16.211  37.082  22.132  1.00  0.00     0.056 A 
HETATM    3  C   LIG     1      15.665  35.996  21.436  1.00  0.00     0.037 A 
HETATM    4  C   LIG     1      16.323  35.460  20.314  1.00  0.00    -0.024 A 
HETATM    5  C   LIG     1      17.540  36.032  19.901  1.00  0.00     0.014 A 
HETATM    6  C   LIG     1      18.085  37.115  20.594  1.00  0.00     0.026 A 
HETATM    7  C   LIG     1      17.426  37.644  21.709  1.00  0.00     0.055 A 
HETATM    8 CL   LIG     1      18.145  39.008  22.555  1.00  0.00    -0.083 Cl
ENDROOT
BRANCH   4   9
HETATM    9  C   LIG     1      15.742  34.308  19.577  1.00  0.00    -0.026 A 
HETATM   10  C   LIG     1      15.444  34.413  18.205  1.00  0.00     0.012 A 
HETATM   11  C   LIG     1      14.898  33.327  17.514  1.00  0.00     0.001 A 
HETATM   12  C   LIG     1      14.642  32.127  18.182  1.00  0.00     0.000 A 
HETATM   13  C   LIG     1      14.933  32.011  19.543  1.00  0.00     0.001 A 
HETATM   14  C   LIG     1      15.480  33.093  20.239  1.00  0.00     0.012 A 
ENDBRANCH   4   9
TORSDOF 1
ENDMDL
MODEL 8
REMARK VINA RESULT:      -6.3      2.674      3.782
REMARK  1 active torsions:
REMARK  status: ('A' for Active; 'I' for Inactive)
REMARK    1  A    between atoms: C_4  and  C_5 
ROOT
HETATM    1 CL   LIG     1      15.269  33.852  16.333  1.00  0.00    -0.083 Cl
HETATM    2  C   LIG     1      15.309  33.753  18.089  1.00  0.00     0.056 A 
HETATM    3  C   LIG     1      15.773  34.854  18.819  1.00  0.00     0.037 A 
HETATM    4  C   LIG     1      15.825  34.812  20.225  1.00  0.00    -0.024 A 
HETATM    5  C   LIG     1      15.403  33.644  20.886  1.00  0.00     0.014 A 
HETATM    6  C   LIG     1      14.940  32.546  20.158  1.00  0.00     0.026 A 
HETATM    7  C   LIG     1      14.890  32.594  18.761  1.00  0.00     0.055 A 
HETATM    8 CL   LIG     1      14.301  31.190  17.881  1.00  0.00    -0.083 Cl
ENDROOT
BRANCH   4   9
HETATM    9  C   LIG     1      16.316  35.981  20.997  1.00  0.00    -0.026 A 
HETATM   10  C   LIG     1      17.564  36.562  20.701  1.00  0.00     0.012 A 
HETATM   11  C   LIG     1      18.024  37.663  21.430  1.00  0.00     0.001 A 
HETATM   12  C   LIG     1      17.247  38.196  22.460  1.00  0.00     0.000 A 
HETATM   13  C   LIG     1      16.007  37.628  22.764  1.00  0.00     0.001 A 
HETATM   14  C   LIG     1      15.542  36.528  22.039  1.00  0.00     0.012 A 
ENDBRANCH   4   9
TORSDOF 1
ENDMDL
MODEL 9
REMARK VINA RESULT:      -6.1      5.390      8.992
REMARK  1 active torsions:
REMARK  status: ('A' for Active; 'I' for Inactive)
REMARK    1  A    between atoms: C_4  and  C_5 
ROOT
HETATM    1 CL   LIG     1      14.624  32.288  20.830  1.00  0.00    -0.083 Cl
HETATM    2  C   LIG     1      14.868  32.737  19.146  1.00  0.00     0.056 A 
HETATM    3  C   LIG     1      14.591  31.795  18.147  1.00  0.00     0.037 A 
HETATM    4  C   LIG     1      14.778  32.115  16.790  1.00  0.00    -0.024 A 
HETATM    5  C   LIG     1      15.249  33.396  16.451  1.00  0.00     0.014 A 
HETATM    6  C   LIG     1      15.525  34.336  17.447  1.00  0.00     0.026 A 
HETATM    7  C   LIG     1      15.337  34.013  18.795  1.00  0.00     0.055 A 
HETATM    8 CL   LIG     1      15.696  35.223  20.018  1.00  0.00    -0.083 Cl
ENDROOT
BRANCH   4   9
HETATM    9  C   LIG     1      14.483  31.115  15.731  1.00  0.00    -0.026 A 
HETATM   10  C   LIG     1      15.453  30.788  14.764  1.00  0.00     0.012 A 
HETATM   11  C   LIG     1      15.173  29.846  13.770  1.00  0.00     0.001 A 
HETATM   12  C   LIG     1      13.925  29.221  13.728  1.00  0.00     0.000 A 
HETATM   13  C   LIG     1      12.954  29.536  14.682  1.00  0.00     0.001 A 
HETATM   14  C   LIG     1      13.229  30.477  15.679  1.00  0.00     0.012 A 
ENDBRANCH   4   9
TORSDOF 1
ENDMDL
MODEL 10
REMARK VINA RESULT:      -6.0      4.408      6.592
REMARK  1 active torsions:
REMARK  status: ('A' for Active; 'I' for Inactive)
REMARK    1  A    between atoms: C_4  and  C_5 
ROOT
HETATM    1 CL   LIG     1      12.979  29.902  15.138  1.00  0.00    -0.083 Cl
HETATM    2  C   LIG     1      14.270  31.024  15.548  1.00  0.00     0.056 A 
HETATM    3  C   LIG     1      14.264  31.631  16.810  1.00  0.00     0.037 A 
HETATM    4  C   LIG     1      15.277  32.539  17.174  1.00  0.00    -0.024 A 
HETATM    5  C   LIG     1      16.295  32.828  16.248  1.00  0.00     0.014 A 
HETATM    6  C   LIG     1      16.302  32.223  14.989  1.00  0.00     0.026 A 
HETATM    7  C   LIG     1      15.293  31.321  14.633  1.00  0.00     0.055 A 
HETATM    8 CL   LIG     1      15.336  30.581  13.039  1.00  0.00    -0.083 Cl
ENDROOT
BRANCH   4   9
HETATM    9  C   LIG     1      15.270  33.180  18.513  1.00  0.00    -0.026 A 
HETATM   10  C   LIG     1      15.569  34.549  18.653  1.00  0.00     0.012 A 
HETATM   11  C   LIG     1      15.561  35.151  19.916  1.00  0.00     0.001 A 
HETATM   12  C   LIG     1      15.255  34.396  21.050  1.00  0.00     0.000 A 
HETATM   13  C   LIG     1      14.957  33.037  20.924  1.00  0.00     0.001 A 
HETATM   14  C   LIG     1      14.963  32.430  19.665  1.00  0.00     0.012 A 
ENDBRANCH   4   9
TORSDOF 1
ENDMDL
MODEL 11
REMARK VINA RESULT:      -5.5      7.761     10.201
REMARK  1 active torsions:
REMARK  status: ('A' for Active; 'I' for Inactive)
REMARK    1  A    between atoms: C_4  and  C_5 
ROOT
HETATM    1 CL   LIG     1      15.313  33.736  17.502  1.00  0.00    -0.083 Cl
HETATM    2  C   LIG     1      15.700  32.972  15.965  1.00  0.00     0.056 A 
HETATM    3  C   LIG     1      16.689  33.544  15.155  1.00  0.00     0.037 A 
HETATM    4  C   LIG     1      17.024  32.965  13.917  1.00  0.00    -0.024 A 
HETATM    5  C   LIG     1      16.349  31.802  13.505  1.00  0.00     0.014 A 
HETATM    6  C   LIG     1      15.363  31.231  14.313  1.00  0.00     0.026 A 
HETATM    7  C   LIG     1      15.035  31.811  15.543  1.00  0.00     0.055 A 
HETATM    8 CL   LIG     1      13.788  31.062  16.531  1.00  0.00    -0.083 Cl
ENDROOT
BRANCH   4   9
HETATM    9  C   LIG     1      18.074  33.573  13.059  1.00  0.00    -0.026 A 
HETATM   10  C   LIG     1      17.725  34.272  11.887  1.00  0.00     0.012 A 
HETATM   11  C   LIG     1      18.715  34.843  11.082  1.00  0.00     0.001 A 
HETATM   12  C   LIG     1      20.061  34.724  11.435  1.00  0.00     0.000 A 
HETATM   13  C   LIG     1      20.420  34.032  12.594  1.00  0.00     0.001 A 
HETATM   14  C   LIG     1      19.434  33.460  13.404  1.00  0.00     0.012 A 
ENDBRANCH   4   9
TORSDOF 1
ENDMDL
MODEL 12
REMARK VINA RESULT:      -5.1      3.113      6.662
REMARK  1 active torsions:
REMARK  status: ('A' for Active; 'I' for Inactive)
REMARK    1  A    between atoms: C_4  and  C_5 
ROOT
HETATM    1 CL   LIG     1      17.987  37.452  20.476  1.00  0.00    -0.083 Cl
HETATM    2  C   LIG     1      16.914  36.085  20.744  1.00  0.00     0.056 A 
HETATM    3  C   LIG     1      16.492  35.330  19.642  1.00  0.00     0.037 A 
HETATM    4  C   LIG     1      15.628  34.231  19.814  1.00  0.00    -0.024 A 
HETATM    5  C   LIG     1      15.195  33.904  21.112  1.00  0.00     0.014 A 
HETATM    6  C   LIG     1      15.616  34.656  22.210  1.00  0.00     0.026 A 
HETATM    7  C   LIG     1      16.474  35.747  22.033  1.00  0.00     0.055 A 
HETATM    8 CL   LIG     1      16.981  36.669  23.442  1.00  0.00    -0.083 Cl
ENDROOT
BRANCH   4   9
HETATM    9  C   LIG     1      15.183  33.431  18.645  1.00  0.00    -0.026 A 
HETATM   10  C   LIG     1      14.606  32.159  18.825  1.00  0.00     0.012 A 
HETATM   11  C   LIG     1      14.186  31.409  17.723  1.00  0.00     0.001 A 
HETATM   12  C   LIG     1      14.338  31.916  16.430  1.00  0.00     0.000 A 
HETATM   13  C   LIG     1      14.909  33.177  16.238  1.00  0.00     0.001 A 
HETATM   14  C   LIG     1      15.329  33.932  17.337  1.00  0.00     0.012 A 
ENDBRANCH   4   9
TORSDOF 1
ENDMDL
MODEL 13
REMARK VINA RESULT:      -5.1     16.151     17.490
REMARK  1 active torsions:
REMARK  status: ('A' for Active; 'I' for Inactive)
REMARK    1  A    between atoms: C_4  and  C_5 
ROOT
HETATM    1 CL   LIG     1      20.360  18.151  31.283  1.00  0.00    -0.083 Cl
HETATM    2  C   LIG     1      20.010  19.868  31.438  1.00  0.00     0.056 A 
HETATM    3  C   LIG     1      20.405  20.537  32.604  1.00  0.00     0.037 A 
HETATM    4  C   LIG     1      20.139  21.909  32.768  1.00  0.00    -0.024 A 
HETATM    5  C   LIG     1      19.468  22.599  31.742  1.00  0.00     0.014 A 
HETATM    6  C   LIG     1      19.073  21.933  30.580  1.00  0.00     0.026 A 
HETATM    7  C   LIG     1      19.341  20.568  30.422  1.00  0.00     0.055 A 
HETATM    8 CL   LIG     1      18.828  19.765  28.945  1.00  0.00    -0.083 Cl
ENDROOT
BRANCH   4   9
HETATM    9  C   LIG     1      20.560  22.618  34.004  1.00  0.00    -0.026 A 
HETATM   10  C   LIG     1      21.906  22.984  34.196  1.00  0.00     0.012 A 
HETATM   11  C   LIG     1      22.299  23.652  35.360  1.00  0.00     0.001 A 
HETATM   12  C   LIG     1      21.357  23.959  36.344  1.00  0.00     0.000 A 
HETATM   13  C   LIG     1      20.019  23.601  36.165  1.00  0.00     0.001 A 
HETATM   14  C   LIG     1      19.620  22.934  35.003  1.00  0.00     0.012 A 
ENDBRANCH   4   9
TORSDOF 1
ENDMDL
MODEL 14
REMARK VINA RESULT:      -4.9     16.236     17.068
REMARK  1 active torsions:
REMARK  status: ('A' for Active; 'I' for Inactive)
REMARK    1  A    between atoms: C_4  and  C_5 
ROOT
HETATM    1 CL   LIG     1      29.780  28.684  31.157  1.00  0.00    -0.083 Cl
HETATM    2  C   LIG     1      28.424  28.605  32.274  1.00  0.00     0.056 A 
HETATM    3  C   LIG     1      28.407  29.462  33.381  1.00  0.00     0.037 A 
HETATM    4  C   LIG     1      27.342  29.425  34.300  1.00  0.00    -0.024 A 
HETATM    5  C   LIG     1      26.293  28.512  34.089  1.00  0.00     0.014 A 
HETATM    6  C   LIG     1      26.309  27.657  32.985  1.00  0.00     0.026 A 
HETATM    7  C   LIG     1      27.370  27.699  32.074  1.00  0.00     0.055 A 
HETATM    8 CL   LIG     1      27.353  26.606  30.697  1.00  0.00    -0.083 Cl
ENDROOT
BRANCH   4   9
HETATM    9  C   LIG     1      27.326  30.335  35.474  1.00  0.00    -0.026 A 
HETATM   10  C   LIG     1      28.521  30.902  35.957  1.00  0.00     0.012 A 
HETATM   11  C   LIG     1      28.502  31.759  37.061  1.00  0.00     0.001 A 
HETATM   12  C   LIG     1      27.295  32.060  37.696  1.00  0.00     0.000 A 
HETATM   13  C   LIG     1      26.102  31.504  37.225  1.00  0.00     0.001 A 
HETATM   14  C   LIG     1      26.115  30.647  36.121  1.00  0.00     0.012 A 
ENDBRANCH   4   9
TORSDOF 1
ENDMDL
MODEL 15
REMARK VINA RESULT:      -4.9     14.971     15.831
REMARK  1 active torsions:
REMARK  status: ('A' for Active; 'I' for Inactive)
REMARK    1  A    between atoms: C_4  and  C_5 
ROOT
HETATM    1 CL   LIG     1      23.159  21.421  18.128  1.00  0.00    -0.083 Cl
HETATM    2  C   LIG     1      24.277  22.338  19.130  1.00  0.00     0.056 A 
HETATM    3  C   LIG     1      25.220  23.166  18.508  1.00  0.00     0.037 A 
HETATM    4  C   LIG     1      26.135  23.912  19.275  1.00  0.00    -0.024 A 
HETATM    5  C   LIG     1      26.087  23.813  20.677  1.00  0.00     0.014 A 
HETATM    6  C   LIG     1      25.146  22.988  21.298  1.00  0.00     0.026 A 
HETATM    7  C   LIG     1      24.239  22.249  20.530  1.00  0.00     0.055 A 
HETATM    8 CL   LIG     1      23.071  21.221  21.349  1.00  0.00    -0.083 Cl
ENDROOT
BRANCH   4   9
HETATM    9  C   LIG     1      27.134  24.790  18.614  1.00  0.00    -0.026 A 
HETATM   10  C   LIG     1      27.818  24.356  17.462  1.00  0.00     0.012 A 
HETATM   11  C   LIG     1      28.757  25.186  16.842  1.00  0.00     0.001 A 
HETATM   12  C   LIG     1      29.026  26.453  17.362  1.00  0.00     0.000 A 
HETATM   13  C   LIG     1      28.354  26.895  18.505  1.00  0.00     0.001 A 
HETATM   14  C   LIG     1      27.413  26.071  19.128  1.00  0.00     0.012 A 
ENDBRANCH   4   9
TORSDOF 1
ENDMDL
MODEL 16
REMARK VINA RESULT:      -4.8     14.926     15.796
REMARK  1 active torsions:
REMARK  status: ('A' for Active; 'I' for Inactive)
REMARK    1  A    between atoms: C_4  and  C_5 
ROOT
HETATM    1 CL   LIG     1      24.690  22.807  22.407  1.00  0.00    -0.083 Cl
HETATM    2  C   LIG     1      24.968  22.983  20.679  1.00  0.00     0.056 A 
HETATM    3  C   LIG     1      25.940  23.890  20.238  1.00  0.00     0.037 A 
HETATM    4  C   LIG     1      26.188  24.063  18.863  1.00  0.00    -0.024 A 
HETATM    5  C   LIG     1      25.443  23.310  17.938  1.00  0.00     0.014 A 
HETATM    6  C   LIG     1      24.475  22.405  18.377  1.00  0.00     0.026 A 
HETATM    7  C   LIG     1      24.232  22.237  19.745  1.00  0.00     0.055 A 
HETATM    8 CL   LIG     1      23.004  21.088  20.257  1.00  0.00    -0.083 Cl
ENDROOT
BRANCH   4   9
HETATM    9  C   LIG     1      27.219  25.025  18.398  1.00  0.00    -0.026 A 
HETATM   10  C   LIG     1      27.395  26.259  19.053  1.00  0.00     0.012 A 
HETATM   11  C   LIG     1      28.368  27.162  18.613  1.00  0.00     0.001 A 
HETATM   12  C   LIG     1      29.173  26.847  17.517  1.00  0.00     0.000 A 
HETATM   13  C   LIG     1      29.008  25.626  16.858  1.00  0.00     0.001 A 
HETATM   14  C   LIG     1      28.038  24.719  17.294  1.00  0.00     0.012 A 
ENDBRANCH   4   9
TORSDOF 1
ENDMDL
MODEL 17
REMARK VINA RESULT:      -4.8     15.033     15.922
REMARK  1 active torsions:
REMARK  status: ('A' for Active; 'I' for Inactive)
REMARK    1  A    between atoms: C_4  and  C_5 
ROOT
HETATM    1 CL   LIG     1      28.946  25.086  16.044  1.00  0.00    -0.083 Cl
HETATM    2  C   LIG     1      28.083  25.171  17.575  1.00  0.00     0.056 A 
HETATM    3  C   LIG     1      27.054  24.254  17.824  1.00  0.00     0.037 A 
HETATM    4  C   LIG     1      26.337  24.293  19.035  1.00  0.00    -0.024 A 
HETATM    5  C   LIG     1      26.671  25.268  19.992  1.00  0.00     0.014 A 
HETATM    6  C   LIG     1      27.697  26.182  19.744  1.00  0.00     0.026 A 
HETATM    7  C   LIG     1      28.406  26.139  18.539  1.00  0.00     0.055 A 
HETATM    8 CL   LIG     1      29.691  27.308  18.265  1.00  0.00    -0.083 Cl
ENDROOT
BRANCH   4   9
HETATM    9  C   LIG     1      25.246  23.319  19.297  1.00  0.00    -0.026 A 
HETATM   10  C   LIG     1      24.725  22.530  18.255  1.00  0.00     0.012 A 
HETATM   11  C   LIG     1      23.699  21.614  18.505  1.00  0.00     0.001 A 
HETATM   12  C   LIG     1      23.181  21.475  19.795  1.00  0.00     0.000 A 
HETATM   13  C   LIG     1      23.691  22.253  20.838  1.00  0.00     0.001 A 
HETATM   14  C   LIG     1      24.717  23.170  20.594  1.00  0.00     0.012 A 
ENDBRANCH   4   9
TORSDOF 1
ENDMDL
