MODEL 1
REMARK VINA RESULT:      -7.2      0.000      0.000
REMARK  1 active torsions:
REMARK  status: ('A' for Active; 'I' for Inactive)
REMARK    1  A    between atoms: O_2  and  C_3 
ROOT
HETATM    1  C   LIG     1      17.287  36.299  22.239  1.00  0.00     0.138 A 
HETATM    2  C   LIG     1      17.806  37.026  21.147  1.00  0.00     0.126 A 
HETATM    3  O   LIG     1      17.817  36.477  19.934  1.00  0.00    -0.272 OA
HETATM    4  C   LIG     1      18.292  37.107  18.864  1.00  0.00     0.288 A 
HETATM    5  O   LIG     1      18.274  36.531  17.745  1.00  0.00    -0.260 OA
HETATM    6  C   LIG     1      18.319  38.344  21.333  1.00  0.00     0.002 A 
HETATM    7  C   LIG     1      18.822  39.024  20.221  1.00  0.00     0.020 A 
HETATM    8  C   LIG     1      18.810  38.402  18.973  1.00  0.00     0.083 A 
HETATM    9  C   LIG     1      18.313  38.937  22.610  1.00  0.00     0.028 A 
HETATM   10  C   LIG     1      17.795  38.194  23.666  1.00  0.00     0.003 A 
HETATM   11  C   LIG     1      17.300  36.927  23.497  1.00  0.00     0.121 A 
HETATM   12  O   LIG     1      16.877  36.458  24.646  1.00  0.00    -0.319 OA
HETATM   13  C   LIG     1      17.081  37.383  25.565  1.00  0.00     0.143 A 
HETATM   14  C   LIG     1      17.663  38.509  24.997  1.00  0.00     0.039 A 
ENDROOT
BRANCH   1  15
HETATM   15  O   LIG     1      16.790  35.003  22.024  1.00  0.00    -0.351 OA
HETATM   16  C   LIG     1      15.469  34.702  21.589  1.00  0.00     0.210 C 
ENDBRANCH   1  15
TORSDOF 1
ENDMDL
MODEL 2
REMARK VINA RESULT:      -6.9      1.048      4.491
REMARK  1 active torsions:
REMARK  status: ('A' for Active; 'I' for Inactive)
REMARK    1  A    between atoms: O_2  and  C_3 
ROOT
HETATM    1  C   LIG     1      17.681  36.482  21.314  1.00  0.00     0.138 A 
HETATM    2  C   LIG     1      17.632  36.677  22.710  1.00  0.00     0.126 A 
HETATM    3  O   LIG     1      17.187  35.700  23.498  1.00  0.00    -0.272 OA
HETATM    4  C   LIG     1      17.114  35.820  24.821  1.00  0.00     0.288 A 
HETATM    5  O   LIG     1      16.684  34.858  25.509  1.00  0.00    -0.260 OA
HETATM    6  C   LIG     1      18.054  37.913  23.283  1.00  0.00     0.002 A 
HETATM    7  C   LIG     1      17.986  38.059  24.672  1.00  0.00     0.020 A 
HETATM    8  C   LIG     1      17.512  37.004  25.450  1.00  0.00     0.083 A 
HETATM    9  C   LIG     1      18.527  38.955  22.463  1.00  0.00     0.028 A 
HETATM   10  C   LIG     1      18.563  38.730  21.090  1.00  0.00     0.003 A 
HETATM   11  C   LIG     1      18.160  37.546  20.530  1.00  0.00     0.121 A 
HETATM   12  O   LIG     1      18.297  37.600  19.227  1.00  0.00    -0.319 OA
HETATM   13  C   LIG     1      18.780  38.789  18.916  1.00  0.00     0.143 A 
HETATM   14  C   LIG     1      18.969  39.550  20.063  1.00  0.00     0.039 A 
ENDROOT
BRANCH   1  15
HETATM   15  O   LIG     1      17.258  35.253  20.780  1.00  0.00    -0.351 OA
HETATM   16  C   LIG     1      15.947  34.986  20.297  1.00  0.00     0.210 C 
ENDBRANCH   1  15
TORSDOF 1
ENDMDL
MODEL 3
REMARK VINA RESULT:      -6.7      8.148      9.286
REMARK  1 active torsions:
REMARK  status: ('A' for Active; 'I' for Inactive)
REMARK    1  A    between atoms: O_2  and  C_3 
ROOT
HETATM    1  C   LIG     1      15.358  31.094  14.271  1.00  0.00     0.138 A 
HETATM    2  C   LIG     1      16.332  32.103  14.112  1.00  0.00     0.126 A 
HETATM    3  O   LIG     1      17.136  32.082  13.051  1.00  0.00    -0.272 OA
HETATM    4  C   LIG     1      18.074  33.002  12.842  1.00  0.00     0.288 A 
HETATM    5  O   LIG     1      18.803  32.925  11.819  1.00  0.00    -0.260 OA
HETATM    6  C   LIG     1      16.459  33.144  15.079  1.00  0.00     0.002 A 
HETATM    7  C   LIG     1      17.438  34.121  14.878  1.00  0.00     0.020 A 
HETATM    8  C   LIG     1      18.255  34.051  13.750  1.00  0.00     0.083 A 
HETATM    9  C   LIG     1      15.615  33.178  16.204  1.00  0.00     0.028 A 
HETATM   10  C   LIG     1      14.666  32.169  16.332  1.00  0.00     0.003 A 
HETATM   11  C   LIG     1      14.535  31.165  15.408  1.00  0.00     0.121 A 
HETATM   12  O   LIG     1      13.571  30.352  15.768  1.00  0.00    -0.319 OA
HETATM   13  C   LIG     1      13.065  30.795  16.903  1.00  0.00     0.143 A 
HETATM   14  C   LIG     1      13.724  31.949  17.309  1.00  0.00     0.039 A 
ENDROOT
BRANCH   1  15
HETATM   15  O   LIG     1      15.258  30.083  13.301  1.00  0.00    -0.351 OA
HETATM   16  C   LIG     1      15.355  28.688  13.568  1.00  0.00     0.210 C 
ENDBRANCH   1  15
TORSDOF 1
ENDMDL
MODEL 4
REMARK VINA RESULT:      -6.5      1.599      3.357
REMARK  1 active torsions:
REMARK  status: ('A' for Active; 'I' for Inactive)
REMARK    1  A    between atoms: O_2  and  C_3 
ROOT
HETATM    1  C   LIG     1      17.349  37.402  22.042  1.00  0.00     0.138 A 
HETATM    2  C   LIG     1      16.799  36.233  21.476  1.00  0.00     0.126 A 
HETATM    3  O   LIG     1      16.583  36.172  20.163  1.00  0.00    -0.272 OA
HETATM    4  C   LIG     1      16.068  35.101  19.568  1.00  0.00     0.288 A 
HETATM    5  O   LIG     1      15.889  35.108  18.322  1.00  0.00    -0.260 OA
HETATM    6  C   LIG     1      16.473  35.115  22.300  1.00  0.00     0.002 A 
HETATM    7  C   LIG     1      15.931  33.978  21.694  1.00  0.00     0.020 A 
HETATM    8  C   LIG     1      15.725  33.969  20.315  1.00  0.00     0.083 A 
HETATM    9  C   LIG     1      16.697  35.164  23.689  1.00  0.00     0.028 A 
HETATM   10  C   LIG     1      17.239  36.333  24.215  1.00  0.00     0.003 A 
HETATM   11  C   LIG     1      17.556  37.412  23.432  1.00  0.00     0.121 A 
HETATM   12  O   LIG     1      18.048  38.373  24.176  1.00  0.00    -0.319 OA
HETATM   13  C   LIG     1      18.064  37.953  25.428  1.00  0.00     0.143 A 
HETATM   14  C   LIG     1      17.560  36.661  25.511  1.00  0.00     0.039 A 
ENDROOT
BRANCH   1  15
HETATM   15  O   LIG     1      17.659  38.486  21.203  1.00  0.00    -0.351 OA
HETATM   16  C   LIG     1      18.975  38.859  20.811  1.00  0.00     0.210 C 
ENDBRANCH   1  15
TORSDOF 1
ENDMDL
MODEL 5
REMARK VINA RESULT:      -6.5      0.997      1.093
REMARK  1 active torsions:
REMARK  status: ('A' for Active; 'I' for Inactive)
REMARK    1  A    between atoms: O_2  and  C_3 
ROOT
HETATM    1  C   LIG     1      17.457  36.244  21.481  1.00  0.00     0.138 A 
HETATM    2  C   LIG     1      17.966  37.361  20.786  1.00  0.00     0.126 A 
HETATM    3  O   LIG     1      18.096  37.312  19.461  1.00  0.00    -0.272 OA
HETATM    4  C   LIG     1      18.568  38.329  18.747  1.00  0.00     0.288 A 
HETATM    5  O   LIG     1      18.667  38.218  17.497  1.00  0.00    -0.260 OA
HETATM    6  C   LIG     1      18.341  38.543  21.491  1.00  0.00     0.002 A 
HETATM    7  C   LIG     1      18.839  39.624  20.759  1.00  0.00     0.020 A 
HETATM    8  C   LIG     1      18.955  39.519  19.374  1.00  0.00     0.083 A 
HETATM    9  C   LIG     1      18.208  38.609  22.891  1.00  0.00     0.028 A 
HETATM   10  C   LIG     1      17.704  37.490  23.546  1.00  0.00     0.003 A 
HETATM   11  C   LIG     1      17.341  36.350  22.877  1.00  0.00     0.121 A 
HETATM   12  O   LIG     1      16.901  35.455  23.729  1.00  0.00    -0.319 OA
HETATM   13  C   LIG     1      16.965  35.977  24.940  1.00  0.00     0.143 A 
HETATM   14  C   LIG     1      17.469  37.271  24.883  1.00  0.00     0.039 A 
ENDROOT
BRANCH   1  15
HETATM   15  O   LIG     1      17.097  35.094  20.757  1.00  0.00    -0.351 OA
HETATM   16  C   LIG     1      15.765  34.740  20.406  1.00  0.00     0.210 C 
ENDBRANCH   1  15
TORSDOF 1
ENDMDL
MODEL 6
REMARK VINA RESULT:      -6.5      1.946      4.069
REMARK  1 active torsions:
REMARK  status: ('A' for Active; 'I' for Inactive)
REMARK    1  A    between atoms: O_2  and  C_3 
ROOT
HETATM    1  C   LIG     1      16.863  37.095  22.477  1.00  0.00     0.138 A 
HETATM    2  C   LIG     1      16.365  36.072  21.642  1.00  0.00     0.126 A 
HETATM    3  O   LIG     1      15.447  35.229  22.108  1.00  0.00    -0.272 OA
HETATM    4  C   LIG     1      14.938  34.243  21.375  1.00  0.00     0.288 A 
HETATM    5  O   LIG     1      14.072  33.479  21.875  1.00  0.00    -0.260 OA
HETATM    6  C   LIG     1      16.840  35.936  20.304  1.00  0.00     0.002 A 
HETATM    7  C   LIG     1      16.317  34.907  19.516  1.00  0.00     0.020 A 
HETATM    8  C   LIG     1      15.357  34.051  20.054  1.00  0.00     0.083 A 
HETATM    9  C   LIG     1      17.810  36.822  19.798  1.00  0.00     0.028 A 
HETATM   10  C   LIG     1      18.280  37.819  20.646  1.00  0.00     0.003 A 
HETATM   11  C   LIG     1      17.831  37.958  21.934  1.00  0.00     0.121 A 
HETATM   12  O   LIG     1      18.434  38.971  22.508  1.00  0.00    -0.319 OA
HETATM   13  C   LIG     1      19.267  39.501  21.632  1.00  0.00     0.143 A 
HETATM   14  C   LIG     1      19.211  38.807  20.430  1.00  0.00     0.039 A 
ENDROOT
BRANCH   1  15
HETATM   15  O   LIG     1      16.376  37.203  23.790  1.00  0.00    -0.351 OA
HETATM   16  C   LIG     1      17.123  36.895  24.962  1.00  0.00     0.210 C 
ENDBRANCH   1  15
TORSDOF 1
ENDMDL
MODEL 7
REMARK VINA RESULT:      -6.3      7.790      9.887
REMARK  1 active torsions:
REMARK  status: ('A' for Active; 'I' for Inactive)
REMARK    1  A    between atoms: O_2  and  C_3 
ROOT
HETATM    1  C   LIG     1      15.892  31.527  13.877  1.00  0.00     0.138 A 
HETATM    2  C   LIG     1      15.252  31.759  15.113  1.00  0.00     0.126 A 
HETATM    3  O   LIG     1      14.250  30.970  15.495  1.00  0.00    -0.272 OA
HETATM    4  C   LIG     1      13.604  31.134  16.647  1.00  0.00     0.288 A 
HETATM    5  O   LIG     1      12.665  30.354  16.949  1.00  0.00    -0.260 OA
HETATM    6  C   LIG     1      15.671  32.832  15.955  1.00  0.00     0.002 A 
HETATM    7  C   LIG     1      15.006  33.021  17.169  1.00  0.00     0.020 A 
HETATM    8  C   LIG     1      13.962  32.166  17.521  1.00  0.00     0.083 A 
HETATM    9  C   LIG     1      16.729  33.673  15.563  1.00  0.00     0.028 A 
HETATM   10  C   LIG     1      17.339  33.418  14.339  1.00  0.00     0.003 A 
HETATM   11  C   LIG     1      16.944  32.390  13.523  1.00  0.00     0.121 A 
HETATM   12  O   LIG     1      17.681  32.374  12.439  1.00  0.00    -0.319 OA
HETATM   13  C   LIG     1      18.550  33.365  12.521  1.00  0.00     0.143 A 
HETATM   14  C   LIG     1      18.377  34.062  13.709  1.00  0.00     0.039 A 
ENDROOT
BRANCH   1  15
HETATM   15  O   LIG     1      15.456  30.462  13.071  1.00  0.00    -0.351 OA
HETATM   16  C   LIG     1      15.423  29.098  13.474  1.00  0.00     0.210 C 
ENDBRANCH   1  15
TORSDOF 1
ENDMDL
MODEL 8
REMARK VINA RESULT:      -6.3      7.507     10.058
REMARK  1 active torsions:
REMARK  status: ('A' for Active; 'I' for Inactive)
REMARK    1  A    between atoms: O_2  and  C_3 
ROOT
HETATM    1  C   LIG     1      16.117  31.881  14.715  1.00  0.00     0.138 A 
HETATM    2  C   LIG     1      15.434  30.681  14.427  1.00  0.00     0.126 A 
HETATM    3  O   LIG     1      15.917  29.852  13.504  1.00  0.00    -0.272 OA
HETATM    4  C   LIG     1      15.321  28.706  13.185  1.00  0.00     0.288 A 
HETATM    5  O   LIG     1      15.829  27.967  12.303  1.00  0.00    -0.260 OA
HETATM    6  C   LIG     1      14.231  30.350  15.118  1.00  0.00     0.002 A 
HETATM    7  C   LIG     1      13.590  29.150  14.799  1.00  0.00     0.020 A 
HETATM    8  C   LIG     1      14.138  28.319  13.823  1.00  0.00     0.083 A 
HETATM    9  C   LIG     1      13.709  31.217  16.098  1.00  0.00     0.028 A 
HETATM   10  C   LIG     1      14.407  32.393  16.357  1.00  0.00     0.003 A 
HETATM   11  C   LIG     1      15.564  32.720  15.699  1.00  0.00     0.121 A 
HETATM   12  O   LIG     1      16.013  33.873  16.133  1.00  0.00    -0.319 OA
HETATM   13  C   LIG     1      15.181  34.312  17.059  1.00  0.00     0.143 A 
HETATM   14  C   LIG     1      14.141  33.410  17.243  1.00  0.00     0.039 A 
ENDROOT
BRANCH   1  15
HETATM   15  O   LIG     1      17.300  32.179  14.018  1.00  0.00    -0.351 OA
HETATM   16  C   LIG     1      17.464  33.278  13.129  1.00  0.00     0.210 C 
ENDBRANCH   1  15
TORSDOF 1
ENDMDL
MODEL 9
REMARK VINA RESULT:      -6.1      6.883      9.451
REMARK  1 active torsions:
REMARK  status: ('A' for Active; 'I' for Inactive)
REMARK    1  A    between atoms: O_2  and  C_3 
ROOT
HETATM    1  C   LIG     1      14.686  32.033  15.971  1.00  0.00     0.138 A 
HETATM    2  C   LIG     1      15.718  32.725  15.302  1.00  0.00     0.126 A 
HETATM    3  O   LIG     1      16.226  33.832  15.838  1.00  0.00    -0.272 OA
HETATM    4  C   LIG     1      17.198  34.531  15.259  1.00  0.00     0.288 A 
HETATM    5  O   LIG     1      17.635  35.570  15.819  1.00  0.00    -0.260 OA
HETATM    6  C   LIG     1      16.220  32.245  14.056  1.00  0.00     0.002 A 
HETATM    7  C   LIG     1      17.242  32.965  13.431  1.00  0.00     0.020 A 
HETATM    8  C   LIG     1      17.738  34.119  14.036  1.00  0.00     0.083 A 
HETATM    9  C   LIG     1      15.692  31.075  13.477  1.00  0.00     0.028 A 
HETATM   10  C   LIG     1      14.675  30.418  14.162  1.00  0.00     0.003 A 
HETATM   11  C   LIG     1      14.187  30.870  15.360  1.00  0.00     0.121 A 
HETATM   12  O   LIG     1      13.240  30.068  15.786  1.00  0.00    -0.319 OA
HETATM   13  C   LIG     1      13.094  29.101  14.899  1.00  0.00     0.143 A 
HETATM   14  C   LIG     1      13.983  29.273  13.845  1.00  0.00     0.039 A 
ENDROOT
BRANCH   1  15
HETATM   15  O   LIG     1      14.213  32.531  17.197  1.00  0.00    -0.351 OA
HETATM   16  C   LIG     1      14.746  32.191  18.472  1.00  0.00     0.210 C 
ENDBRANCH   1  15
TORSDOF 1
ENDMDL
MODEL 10
REMARK VINA RESULT:      -6.0      1.744      3.875
REMARK  1 active torsions:
REMARK  status: ('A' for Active; 'I' for Inactive)
REMARK    1  A    between atoms: O_2  and  C_3 
ROOT
HETATM    1  C   LIG     1      17.746  36.764  20.286  1.00  0.00     0.138 A 
HETATM    2  C   LIG     1      16.779  35.760  20.502  1.00  0.00     0.126 A 
HETATM    3  O   LIG     1      16.521  34.874  19.542  1.00  0.00    -0.272 OA
HETATM    4  C   LIG     1      15.622  33.904  19.681  1.00  0.00     0.288 A 
HETATM    5  O   LIG     1      15.425  33.099  18.734  1.00  0.00    -0.260 OA
HETATM    6  C   LIG     1      16.077  35.686  21.742  1.00  0.00     0.002 A 
HETATM    7  C   LIG     1      15.128  34.673  21.909  1.00  0.00     0.020 A 
HETATM    8  C   LIG     1      14.897  33.773  20.870  1.00  0.00     0.083 A 
HETATM    9  C   LIG     1      16.340  36.615  22.766  1.00  0.00     0.028 A 
HETATM   10  C   LIG     1      17.298  37.593  22.521  1.00  0.00     0.003 A 
HETATM   11  C   LIG     1      17.978  37.672  21.334  1.00  0.00     0.121 A 
HETATM   12  O   LIG     1      18.818  38.679  21.368  1.00  0.00    -0.319 OA
HETATM   13  C   LIG     1      18.708  39.263  22.546  1.00  0.00     0.143 A 
HETATM   14  C   LIG     1      17.755  38.614  23.321  1.00  0.00     0.039 A 
ENDROOT
BRANCH   1  15
HETATM   15  O   LIG     1      18.420  36.810  19.055  1.00  0.00    -0.351 OA
HETATM   16  C   LIG     1      18.811  38.004  18.386  1.00  0.00     0.210 C 
ENDBRANCH   1  15
TORSDOF 1
ENDMDL
MODEL 11
REMARK VINA RESULT:      -5.7      5.477      8.877
REMARK  1 active torsions:
REMARK  status: ('A' for Active; 'I' for Inactive)
REMARK    1  A    between atoms: O_2  and  C_3 
ROOT
HETATM    1  C   LIG     1      15.657  32.945  16.124  1.00  0.00     0.138 A 
HETATM    2  C   LIG     1      15.396  32.914  17.510  1.00  0.00     0.126 A 
HETATM    3  O   LIG     1      15.841  33.899  18.288  1.00  0.00    -0.272 OA
HETATM    4  C   LIG     1      15.629  33.929  19.601  1.00  0.00     0.288 A 
HETATM    5  O   LIG     1      16.078  34.889  20.280  1.00  0.00    -0.260 OA
HETATM    6  C   LIG     1      14.658  31.836  18.083  1.00  0.00     0.002 A 
HETATM    7  C   LIG     1      14.424  31.850  19.461  1.00  0.00     0.020 A 
HETATM    8  C   LIG     1      14.913  32.905  20.229  1.00  0.00     0.083 A 
HETATM    9  C   LIG     1      14.180  30.789  17.272  1.00  0.00     0.028 A 
HETATM   10  C   LIG     1      14.456  30.849  15.910  1.00  0.00     0.003 A 
HETATM   11  C   LIG     1      15.163  31.881  15.350  1.00  0.00     0.121 A 
HETATM   12  O   LIG     1      15.278  31.692  14.057  1.00  0.00    -0.319 OA
HETATM   13  C   LIG     1      14.664  30.563  13.753  1.00  0.00     0.143 A 
HETATM   14  C   LIG     1      14.122  29.985  14.894  1.00  0.00     0.039 A 
ENDROOT
BRANCH   1  15
HETATM   15  O   LIG     1      16.387  34.021  15.590  1.00  0.00    -0.351 OA
HETATM   16  C   LIG     1      17.547  33.891  14.777  1.00  0.00     0.210 C 
ENDBRANCH   1  15
TORSDOF 1
ENDMDL
MODEL 12
REMARK VINA RESULT:      -5.7      7.415     10.508
REMARK  1 active torsions:
REMARK  status: ('A' for Active; 'I' for Inactive)
REMARK    1  A    between atoms: O_2  and  C_3 
ROOT
HETATM    1  C   LIG     1      15.951  31.256  14.337  1.00  0.00     0.138 A 
HETATM    2  C   LIG     1      15.261  31.911  15.379  1.00  0.00     0.126 A 
HETATM    3  O   LIG     1      15.691  33.094  15.814  1.00  0.00    -0.272 OA
HETATM    4  C   LIG     1      15.087  33.763  16.791  1.00  0.00     0.288 A 
HETATM    5  O   LIG     1      15.544  34.877  17.156  1.00  0.00    -0.260 OA
HETATM    6  C   LIG     1      14.107  31.315  15.968  1.00  0.00     0.002 A 
HETATM    7  C   LIG     1      13.457  32.003  16.997  1.00  0.00     0.020 A 
HETATM    8  C   LIG     1      13.950  33.238  17.414  1.00  0.00     0.083 A 
HETATM    9  C   LIG     1      13.640  30.066  15.518  1.00  0.00     0.028 A 
HETATM   10  C   LIG     1      14.344  29.446  14.490  1.00  0.00     0.003 A 
HETATM   11  C   LIG     1      15.454  30.010  13.917  1.00  0.00     0.121 A 
HETATM   12  O   LIG     1      15.919  29.221  12.978  1.00  0.00    -0.319 OA
HETATM   13  C   LIG     1      15.144  28.154  12.919  1.00  0.00     0.143 A 
HETATM   14  C   LIG     1      14.125  28.244  13.859  1.00  0.00     0.039 A 
ENDROOT
BRANCH   1  15
HETATM   15  O   LIG     1      17.085  31.868  13.777  1.00  0.00    -0.351 OA
HETATM   16  C   LIG     1      17.057  33.022  12.945  1.00  0.00     0.210 C 
ENDBRANCH   1  15
TORSDOF 1
ENDMDL
MODEL 13
REMARK VINA RESULT:      -5.5      1.805      5.461
REMARK  1 active torsions:
REMARK  status: ('A' for Active; 'I' for Inactive)
REMARK    1  A    between atoms: O_2  and  C_3 
ROOT
HETATM    1  C   LIG     1      17.151  37.121  22.517  1.00  0.00     0.138 A 
HETATM    2  C   LIG     1      17.415  36.619  23.809  1.00  0.00     0.126 A 
HETATM    3  O   LIG     1      17.887  37.433  24.751  1.00  0.00    -0.272 OA
HETATM    4  C   LIG     1      18.156  37.023  25.987  1.00  0.00     0.288 A 
HETATM    5  O   LIG     1      18.601  37.843  26.831  1.00  0.00    -0.260 OA
HETATM    6  C   LIG     1      17.180  35.245  24.112  1.00  0.00     0.002 A 
HETATM    7  C   LIG     1      17.456  34.793  25.406  1.00  0.00     0.020 A 
HETATM    8  C   LIG     1      17.949  35.689  26.354  1.00  0.00     0.083 A 
HETATM    9  C   LIG     1      16.680  34.372  23.126  1.00  0.00     0.028 A 
HETATM   10  C   LIG     1      16.432  34.900  21.863  1.00  0.00     0.003 A 
HETATM   11  C   LIG     1      16.654  36.218  21.562  1.00  0.00     0.121 A 
HETATM   12  O   LIG     1      16.338  36.448  20.310  1.00  0.00    -0.319 OA
HETATM   13  C   LIG     1      15.913  35.316  19.781  1.00  0.00     0.143 A 
HETATM   14  C   LIG     1      15.952  34.297  20.725  1.00  0.00     0.039 A 
ENDROOT
BRANCH   1  15
HETATM   15  O   LIG     1      17.394  38.479  22.250  1.00  0.00    -0.351 OA
HETATM   16  C   LIG     1      18.548  38.984  21.588  1.00  0.00     0.210 C 
ENDBRANCH   1  15
TORSDOF 1
ENDMDL
MODEL 14
REMARK VINA RESULT:      -5.5      1.723      4.590
REMARK  1 active torsions:
REMARK  status: ('A' for Active; 'I' for Inactive)
REMARK    1  A    between atoms: O_2  and  C_3 
ROOT
HETATM    1  C   LIG     1      17.097  36.090  20.230  1.00  0.00     0.138 A 
HETATM    2  C   LIG     1      17.243  36.865  21.400  1.00  0.00     0.126 A 
HETATM    3  O   LIG     1      18.026  37.941  21.385  1.00  0.00    -0.272 OA
HETATM    4  C   LIG     1      18.207  38.713  22.454  1.00  0.00     0.288 A 
HETATM    5  O   LIG     1      18.961  39.717  22.374  1.00  0.00    -0.260 OA
HETATM    6  C   LIG     1      16.558  36.502  22.597  1.00  0.00     0.002 A 
HETATM    7  C   LIG     1      16.734  37.300  23.731  1.00  0.00     0.020 A 
HETATM    8  C   LIG     1      17.566  38.416  23.661  1.00  0.00     0.083 A 
HETATM    9  C   LIG     1      15.726  35.366  22.627  1.00  0.00     0.028 A 
HETATM   10  C   LIG     1      15.604  34.624  21.456  1.00  0.00     0.003 A 
HETATM   11  C   LIG     1      16.258  34.965  20.301  1.00  0.00     0.121 A 
HETATM   12  O   LIG     1      15.969  34.103  19.355  1.00  0.00    -0.319 OA
HETATM   13  C   LIG     1      15.142  33.206  19.860  1.00  0.00     0.143 A 
HETATM   14  C   LIG     1      14.876  33.488  21.193  1.00  0.00     0.039 A 
ENDROOT
BRANCH   1  15
HETATM   15  O   LIG     1      17.785  36.474  19.066  1.00  0.00    -0.351 OA
HETATM   16  C   LIG     1      19.122  36.958  19.035  1.00  0.00     0.210 C 
ENDBRANCH   1  15
TORSDOF 1
ENDMDL
MODEL 15
REMARK VINA RESULT:      -5.3      1.823      3.794
REMARK  1 active torsions:
REMARK  status: ('A' for Active; 'I' for Inactive)
REMARK    1  A    between atoms: O_2  and  C_3 
ROOT
HETATM    1  C   LIG     1      16.489  36.835  22.187  1.00  0.00     0.138 A 
HETATM    2  C   LIG     1      17.490  37.508  21.456  1.00  0.00     0.126 A 
HETATM    3  O   LIG     1      18.025  38.626  21.944  1.00  0.00    -0.272 OA
HETATM    4  C   LIG     1      18.971  39.308  21.306  1.00  0.00     0.288 A 
HETATM    5  O   LIG     1      19.435  40.358  21.821  1.00  0.00    -0.260 OA
HETATM    6  C   LIG     1      17.935  36.999  20.200  1.00  0.00     0.002 A 
HETATM    7  C   LIG     1      18.930  37.701  19.513  1.00  0.00     0.020 A 
HETATM    8  C   LIG     1      19.454  38.866  20.069  1.00  0.00     0.083 A 
HETATM    9  C   LIG     1      17.379  35.818  19.672  1.00  0.00     0.028 A 
HETATM   10  C   LIG     1      16.393  35.179  20.417  1.00  0.00     0.003 A 
HETATM   11  C   LIG     1      15.960  35.660  21.625  1.00  0.00     0.121 A 
HETATM   12  O   LIG     1      15.031  34.871  22.111  1.00  0.00    -0.319 OA
HETATM   13  C   LIG     1      14.844  33.884  21.254  1.00  0.00     0.143 A 
HETATM   14  C   LIG     1      15.684  34.030  20.157  1.00  0.00     0.039 A 
ENDROOT
BRANCH   1  15
HETATM   15  O   LIG     1      16.072  37.361  23.421  1.00  0.00    -0.351 OA
HETATM   16  C   LIG     1      16.812  37.271  24.633  1.00  0.00     0.210 C 
ENDBRANCH   1  15
TORSDOF 1
ENDMDL
MODEL 16
REMARK VINA RESULT:      -5.1     19.809     21.441
REMARK  1 active torsions:
REMARK  status: ('A' for Active; 'I' for Inactive)
REMARK    1  A    between atoms: O_2  and  C_3 
ROOT
HETATM    1  C   LIG     1      14.517  18.229  12.441  1.00  0.00     0.138 A 
HETATM    2  C   LIG     1      14.869  18.297  13.806  1.00  0.00     0.126 A 
HETATM    3  O   LIG     1      16.149  18.410  14.153  1.00  0.00    -0.272 OA
HETATM    4  C   LIG     1      16.548  18.478  15.420  1.00  0.00     0.288 A 
HETATM    5  O   LIG     1      17.774  18.584  15.681  1.00  0.00    -0.260 OA
HETATM    6  C   LIG     1      13.862  18.247  14.815  1.00  0.00     0.002 A 
HETATM    7  C   LIG     1      14.260  18.318  16.154  1.00  0.00     0.020 A 
HETATM    8  C   LIG     1      15.614  18.435  16.461  1.00  0.00     0.083 A 
HETATM    9  C   LIG     1      12.504  18.129  14.463  1.00  0.00     0.028 A 
HETATM   10  C   LIG     1      12.192  18.063  13.109  1.00  0.00     0.003 A 
HETATM   11  C   LIG     1      13.151  18.111  12.131  1.00  0.00     0.121 A 
HETATM   12  O   LIG     1      12.588  18.031  10.950  1.00  0.00    -0.319 OA
HETATM   13  C   LIG     1      11.283  17.933  11.126  1.00  0.00     0.143 A 
HETATM   14  C   LIG     1      10.975  17.948  12.480  1.00  0.00     0.039 A 
ENDROOT
BRANCH   1  15
HETATM   15  O   LIG     1      15.532  18.281  11.471  1.00  0.00    -0.351 OA
HETATM   16  C   LIG     1      15.948  19.461  10.793  1.00  0.00     0.210 C 
ENDBRANCH   1  15
TORSDOF 1
ENDMDL
MODEL 17
REMARK VINA RESULT:      -4.5     15.502     16.769
REMARK  1 active torsions:
REMARK  status: ('A' for Active; 'I' for Inactive)
REMARK    1  A    between atoms: O_2  and  C_3 
ROOT
HETATM    1  C   LIG     1      25.143  22.238  20.835  1.00  0.00     0.138 A 
HETATM    2  C   LIG     1      25.750  23.321  20.166  1.00  0.00     0.126 A 
HETATM    3  O   LIG     1      26.545  24.150  20.838  1.00  0.00    -0.272 OA
HETATM    4  C   LIG     1      27.147  25.190  20.268  1.00  0.00     0.288 A 
HETATM    5  O   LIG     1      27.887  25.936  20.960  1.00  0.00    -0.260 OA
HETATM    6  C   LIG     1      25.517  23.534  18.775  1.00  0.00     0.002 A 
HETATM    7  C   LIG     1      26.141  24.621  18.156  1.00  0.00     0.020 A 
HETATM    8  C   LIG     1      26.964  25.458  18.907  1.00  0.00     0.083 A 
HETATM    9  C   LIG     1      24.679  22.665  18.050  1.00  0.00     0.028 A 
HETATM   10  C   LIG     1      24.095  21.607  18.740  1.00  0.00     0.003 A 
HETATM   11  C   LIG     1      24.313  21.394  20.076  1.00  0.00     0.121 A 
HETATM   12  O   LIG     1      23.648  20.335  20.472  1.00  0.00    -0.319 OA
HETATM   13  C   LIG     1      22.999  19.847  19.431  1.00  0.00     0.143 A 
HETATM   14  C   LIG     1      23.248  20.617  18.302  1.00  0.00     0.039 A 
ENDROOT
BRANCH   1  15
HETATM   15  O   LIG     1      25.391  22.055  22.205  1.00  0.00    -0.351 OA
HETATM   16  C   LIG     1      24.534  22.494  23.252  1.00  0.00     0.210 C 
ENDBRANCH   1  15
TORSDOF 1
ENDMDL
MODEL 18
REMARK VINA RESULT:      -4.4      1.918      5.199
REMARK  1 active torsions:
REMARK  status: ('A' for Active; 'I' for Inactive)
REMARK    1  A    between atoms: O_2  and  C_3 
ROOT
HETATM    1  C   LIG     1      18.499  38.477  21.351  1.00  0.00     0.138 A 
HETATM    2  C   LIG     1      17.867  37.273  21.726  1.00  0.00     0.126 A 
HETATM    3  O   LIG     1      17.579  37.049  23.007  1.00  0.00    -0.272 OA
HETATM    4  C   LIG     1      16.985  35.936  23.427  1.00  0.00     0.288 A 
HETATM    5  O   LIG     1      16.741  35.787  24.652  1.00  0.00    -0.260 OA
HETATM    6  C   LIG     1      17.533  36.294  20.743  1.00  0.00     0.002 A 
HETATM    7  C   LIG     1      16.908  35.117  21.164  1.00  0.00     0.020 A 
HETATM    8  C   LIG     1      16.630  34.934  22.518  1.00  0.00     0.083 A 
HETATM    9  C   LIG     1      17.831  36.517  19.385  1.00  0.00     0.028 A 
HETATM   10  C   LIG     1      18.455  37.713  19.049  1.00  0.00     0.003 A 
HETATM   11  C   LIG     1      18.779  38.660  19.985  1.00  0.00     0.121 A 
HETATM   12  O   LIG     1      19.354  39.685  19.402  1.00  0.00    -0.319 OA
HETATM   13  C   LIG     1      19.416  39.435  18.107  1.00  0.00     0.143 A 
HETATM   14  C   LIG     1      18.858  38.195  17.826  1.00  0.00     0.039 A 
ENDROOT
BRANCH   1  15
HETATM   15  O   LIG     1      18.815  39.421  22.342  1.00  0.00    -0.351 OA
HETATM   16  C   LIG     1      19.955  39.358  23.191  1.00  0.00     0.210 C 
ENDBRANCH   1  15
TORSDOF 1
ENDMDL
