REMARK  14 active torsions:
REMARK  status: ('A' for Active; 'I' for Inactive)
REMARK    1  A    between atoms: C_3  and  C_4 
REMARK    2  A    between atoms: C_3  and  O_10 
REMARK    3  A    between atoms: O_10  and  C_11 
REMARK    4  A    between atoms: C_12  and  O_17 
REMARK    5  A    between atoms: C_13  and  O_14 
REMARK    6  A    between atoms: C_15  and  O_16 
REMARK    7  A    between atoms: C_19  and  C_20 
REMARK    8  A    between atoms: C_20  and  O_21 
REMARK    9  A    between atoms: O_21  and  C_22 
REMARK   10  A    between atoms: C_23  and  O_28 
REMARK   11  A    between atoms: C_24  and  O_25 
REMARK   12  A    between atoms: C_26  and  O_27 
REMARK   13  A    between atoms: C_30  and  C_31 
REMARK   14  A    between atoms: C_31  and  O_32 
ROOT
HETATM    1  N   LIG     1       1.544   3.477  -0.091  1.00  0.00    -0.194 NA
HETATM    2  C   LIG     1       2.151   2.498   0.035  1.00  0.00     0.096 C 
HETATM    3  C   LIG     1       2.919   1.254   0.192  1.00  0.00     0.264 C 
ENDROOT
BRANCH   3   4
HETATM    4  C   LIG     1       4.345   1.593   0.541  1.00  0.00    -0.016 A 
HETATM    5  C   LIG     1       4.644   2.280   1.737  1.00  0.00     0.011 A 
HETATM    6  C   LIG     1       5.966   2.603   2.062  1.00  0.00     0.001 A 
HETATM    7  C   LIG     1       7.005   2.247   1.198  1.00  0.00     0.000 A 
HETATM    8  C   LIG     1       6.720   1.565   0.011  1.00  0.00     0.001 A 
HETATM    9  C   LIG     1       5.399   1.222  -0.311  1.00  0.00     0.011 A 
ENDBRANCH   3   4
BRANCH   3  10
HETATM   10  O   LIG     1       2.367   0.494   1.259  1.00  0.00    -0.334 OA
BRANCH  10  11
HETATM   11  C   LIG     1       1.528  -0.578   0.837  1.00  0.00     0.293 C 
HETATM   12  C   LIG     1       2.363  -1.871   0.624  1.00  0.00     0.204 C 
HETATM   13  C   LIG     1       1.450  -3.027   0.164  1.00  0.00     0.183 C 
HETATM   14  C   LIG     1       0.548  -2.571  -1.004  1.00  0.00     0.180 C 
HETATM   15  C   LIG     1      -0.179  -1.256  -0.624  1.00  0.00     0.180 C 
HETATM   16  O   LIG     1       0.755  -0.231  -0.311  1.00  0.00    -0.348 OA
BRANCH  12  17
HETATM   17  O   LIG     1       3.385  -1.655  -0.317  1.00  0.00    -0.388 OA
HETATM   18  H   LIG     1       4.022  -2.410  -0.226  1.00  0.00     0.210 HD
ENDBRANCH  12  17
BRANCH  13  19
HETATM   19  O   LIG     1       0.645  -3.445   1.246  1.00  0.00    -0.390 OA
HETATM   20  H   LIG     1       0.352  -4.382   1.054  1.00  0.00     0.210 HD
ENDBRANCH  13  19
BRANCH  14  21
HETATM   21  O   LIG     1       1.319  -2.373  -2.167  1.00  0.00    -0.390 OA
HETATM   22  H   LIG     1       1.533  -3.276  -2.528  1.00  0.00     0.210 HD
ENDBRANCH  14  21
BRANCH  15  23
HETATM   23  C   LIG     1      -1.078  -0.772  -1.780  1.00  0.00     0.205 C 
BRANCH  23  24
HETATM   24  O   LIG     1      -2.199  -0.059  -1.288  1.00  0.00    -0.356 OA
BRANCH  24  25
HETATM   25  C   LIG     1      -3.269  -0.924  -0.923  1.00  0.00     0.291 C 
HETATM   26  C   LIG     1      -4.587  -0.439  -1.553  1.00  0.00     0.204 C 
HETATM   27  C   LIG     1      -5.046   0.870  -0.902  1.00  0.00     0.183 C 
HETATM   28  C   LIG     1      -5.125   0.671   0.614  1.00  0.00     0.180 C 
HETATM   29  C   LIG     1      -3.814   0.073   1.193  1.00  0.00     0.179 C 
HETATM   30  O   LIG     1      -3.344  -1.071   0.489  1.00  0.00    -0.348 OA
BRANCH  26  31
HETATM   31  O   LIG     1      -4.385  -0.249  -2.936  1.00  0.00    -0.388 OA
HETATM   32  H   LIG     1      -5.224  -0.514  -3.402  1.00  0.00     0.210 HD
ENDBRANCH  26  31
BRANCH  27  33
HETATM   33  O   LIG     1      -6.325   1.214  -1.385  1.00  0.00    -0.390 OA
HETATM   34  H   LIG     1      -6.183   1.725  -2.238  1.00  0.00     0.210 HD
ENDBRANCH  27  33
BRANCH  28  35
HETATM   35  O   LIG     1      -5.440   1.889   1.236  1.00  0.00    -0.390 OA
HETATM   36  H   LIG     1      -5.740   1.670   2.157  1.00  0.00     0.210 HD
ENDBRANCH  28  35
BRANCH  29  37
HETATM   37  C   LIG     1      -2.683   1.084   1.507  1.00  0.00     0.198 C 
BRANCH  37  38
HETATM   38  O   LIG     1      -2.400   1.935   0.431  1.00  0.00    -0.398 OA
HETATM   39  H   LIG     1      -2.882   2.787   0.599  1.00  0.00     0.209 HD
ENDBRANCH  37  38
ENDBRANCH  29  37
ENDBRANCH  24  25
ENDBRANCH  23  24
ENDBRANCH  15  23
ENDBRANCH  10  11
ENDBRANCH   3  10
TORSDOF 14
