REMARK  4 active torsions:
REMARK  status: ('A' for Active; 'I' for Inactive)
REMARK    1  A    between atoms: O_1  and  C_2 
REMARK    2  A    between atoms: C_2  and  C_7 
REMARK    3  A    between atoms: C_2  and  C_3 
REMARK    4  A    between atoms: C_3  and  N_5 
ROOT
HETATM    1  C   LIG     1      -0.305   0.363   0.836  1.00  0.00     0.183 C 
ENDROOT
BRANCH   1   2
HETATM    2  O   LIG     1      -0.238   1.536   1.609  1.00  0.00    -0.389 OA
HETATM    3  H   LIG     1      -0.047   2.295   1.000  1.00  0.00     0.210 HD
ENDBRANCH   1   2
BRANCH   1   4
HETATM    4  C   LIG     1       1.084  -0.027   0.360  1.00  0.00    -0.028 A 
HETATM    5  C   LIG     1       1.637  -1.266   0.734  1.00  0.00     0.010 A 
HETATM    6  C   LIG     1       2.912  -1.634   0.294  1.00  0.00     0.001 A 
HETATM    7  C   LIG     1       3.649  -0.773  -0.522  1.00  0.00     0.000 A 
HETATM    8  C   LIG     1       3.112   0.460  -0.899  1.00  0.00     0.001 A 
HETATM    9  C   LIG     1       1.837   0.834  -0.463  1.00  0.00     0.010 A 
ENDBRANCH   1   4
BRANCH   1  10
HETATM   10  C   LIG     1      -1.314   0.510  -0.344  1.00  0.00     0.248 C 
HETATM   11  C   LIG     1      -1.492  -0.807  -1.117  1.00  0.00     0.045 C 
BRANCH  10  12
HETATM   12  N   LIG     1      -2.627   1.055   0.070  1.00  0.00     0.086 N 
HETATM   13  C   LIG     1      -3.284   0.313   1.153  1.00  0.00     0.307 C 
HETATM   14  H   LIG     1      -2.502   2.046   0.383  1.00  0.00     0.315 HD
ENDBRANCH  10  12
ENDBRANCH   1  10
TORSDOF 4
