MODEL 1
REMARK VINA RESULT:      -7.1      0.000      0.000
REMARK  4 active torsions:
REMARK  status: ('A' for Active; 'I' for Inactive)
REMARK    1  A    between atoms: O_1  and  C_2 
REMARK    2  A    between atoms: C_2  and  C_7 
REMARK    3  A    between atoms: C_2  and  C_3 
REMARK    4  A    between atoms: C_3  and  N_5 
ROOT
HETATM    1  C   LIG     1      16.553  37.087  23.054  1.00  0.00     0.183 C 
ENDROOT
BRANCH   1   2
HETATM    2  O   LIG     1      15.674  38.147  23.341  1.00  0.00    -0.389 OA
HETATM    3  H   LIG     1      16.150  38.998  23.159  1.00  0.00     0.210 HD
ENDBRANCH   1   2
BRANCH   1   4
HETATM    4  C   LIG     1      17.197  36.583  24.335  1.00  0.00    -0.028 A 
HETATM    5  C   LIG     1      17.844  37.483  25.201  1.00  0.00     0.010 A 
HETATM    6  C   LIG     1      18.433  37.027  26.384  1.00  0.00     0.001 A 
HETATM    7  C   LIG     1      18.384  35.672  26.716  1.00  0.00     0.000 A 
HETATM    8  C   LIG     1      17.746  34.768  25.864  1.00  0.00     0.001 A 
HETATM    9  C   LIG     1      17.154  35.217  24.679  1.00  0.00     0.010 A 
ENDBRANCH   1   4
BRANCH   1  10
HETATM   10  C   LIG     1      17.609  37.491  21.981  1.00  0.00     0.248 C 
HETATM   11  C   LIG     1      17.559  36.574  20.748  1.00  0.00     0.045 C 
BRANCH  10  12
HETATM   12  N   LIG     1      17.523  38.914  21.578  1.00  0.00     0.086 N 
HETATM   13  C   LIG     1      18.691  39.414  20.844  1.00  0.00     0.307 C 
HETATM   14  H   LIG     1      16.677  39.047  20.976  1.00  0.00     0.315 HD
ENDBRANCH  10  12
ENDBRANCH   1  10
TORSDOF 4
ENDMDL
MODEL 2
REMARK VINA RESULT:      -6.8      1.013      2.163
REMARK  4 active torsions:
REMARK  status: ('A' for Active; 'I' for Inactive)
REMARK    1  A    between atoms: O_1  and  C_2 
REMARK    2  A    between atoms: C_2  and  C_7 
REMARK    3  A    between atoms: C_2  and  C_3 
REMARK    4  A    between atoms: C_3  and  N_5 
ROOT
HETATM    1  C   LIG     1      16.120  37.161  23.107  1.00  0.00     0.183 C 
ENDROOT
BRANCH   1   2
HETATM    2  O   LIG     1      15.213  38.158  23.510  1.00  0.00    -0.389 OA
HETATM    3  H   LIG     1      14.690  38.437  22.715  1.00  0.00     0.210 HD
ENDBRANCH   1   2
BRANCH   1   4
HETATM    4  C   LIG     1      16.913  36.664  24.303  1.00  0.00    -0.028 A 
HETATM    5  C   LIG     1      17.162  35.288  24.463  1.00  0.00     0.010 A 
HETATM    6  C   LIG     1      17.896  34.823  25.559  1.00  0.00     0.001 A 
HETATM    7  C   LIG     1      18.389  35.724  26.506  1.00  0.00     0.000 A 
HETATM    8  C   LIG     1      18.148  37.091  26.359  1.00  0.00     0.001 A 
HETATM    9  C   LIG     1      17.415  37.563  25.266  1.00  0.00     0.010 A 
ENDBRANCH   1   4
BRANCH   1  10
HETATM   10  C   LIG     1      17.044  37.659  21.953  1.00  0.00     0.248 C 
HETATM   11  C   LIG     1      18.109  38.648  22.453  1.00  0.00     0.045 C 
BRANCH  10  12
HETATM   12  N   LIG     1      17.671  36.558  21.186  1.00  0.00     0.086 N 
HETATM   13  C   LIG     1      16.726  35.577  20.639  1.00  0.00     0.307 C 
HETATM   14  H   LIG     1      18.216  36.964  20.390  1.00  0.00     0.315 HD
ENDBRANCH  10  12
ENDBRANCH   1  10
TORSDOF 4
ENDMDL
MODEL 3
REMARK VINA RESULT:      -6.7      1.580      4.843
REMARK  4 active torsions:
REMARK  status: ('A' for Active; 'I' for Inactive)
REMARK    1  A    between atoms: O_1  and  C_2 
REMARK    2  A    between atoms: C_2  and  C_7 
REMARK    3  A    between atoms: C_2  and  C_3 
REMARK    4  A    between atoms: C_3  and  N_5 
ROOT
HETATM    1  C   LIG     1      16.779  37.792  22.837  1.00  0.00     0.183 C 
ENDROOT
BRANCH   1   2
HETATM    2  O   LIG     1      15.623  37.081  22.468  1.00  0.00    -0.389 OA
HETATM    3  H   LIG     1      14.935  37.737  22.187  1.00  0.00     0.210 HD
ENDBRANCH   1   2
BRANCH   1   4
HETATM    4  C   LIG     1      17.714  37.920  21.647  1.00  0.00    -0.028 A 
HETATM    5  C   LIG     1      18.406  39.124  21.419  1.00  0.00     0.010 A 
HETATM    6  C   LIG     1      19.273  39.246  20.329  1.00  0.00     0.001 A 
HETATM    7  C   LIG     1      19.459  38.173  19.456  1.00  0.00     0.000 A 
HETATM    8  C   LIG     1      18.777  36.973  19.670  1.00  0.00     0.001 A 
HETATM    9  C   LIG     1      17.909  36.843  20.759  1.00  0.00     0.010 A 
ENDBRANCH   1   4
BRANCH   1  10
HETATM   10  C   LIG     1      17.480  37.147  24.072  1.00  0.00     0.248 C 
HETATM   11  C   LIG     1      17.224  37.945  25.361  1.00  0.00     0.045 C 
BRANCH  10  12
HETATM   12  N   LIG     1      17.136  35.719  24.264  1.00  0.00     0.086 N 
HETATM   13  C   LIG     1      17.515  35.169  25.571  1.00  0.00     0.307 C 
HETATM   14  H   LIG     1      16.103  35.598  24.146  1.00  0.00     0.315 HD
ENDBRANCH  10  12
ENDBRANCH   1  10
TORSDOF 4
ENDMDL
MODEL 4
REMARK VINA RESULT:      -6.5      2.224      5.005
REMARK  4 active torsions:
REMARK  status: ('A' for Active; 'I' for Inactive)
REMARK    1  A    between atoms: O_1  and  C_2 
REMARK    2  A    between atoms: C_2  and  C_7 
REMARK    3  A    between atoms: C_2  and  C_3 
REMARK    4  A    between atoms: C_3  and  N_5 
ROOT
HETATM    1  C   LIG     1      16.840  37.054  22.522  1.00  0.00     0.183 C 
ENDROOT
BRANCH   1   2
HETATM    2  O   LIG     1      15.541  37.567  22.356  1.00  0.00    -0.389 OA
HETATM    3  H   LIG     1      14.897  36.837  22.543  1.00  0.00     0.210 HD
ENDBRANCH   1   2
BRANCH   1   4
HETATM    4  C   LIG     1      17.754  37.586  21.431  1.00  0.00    -0.028 A 
HETATM    5  C   LIG     1      18.201  36.732  20.406  1.00  0.00     0.010 A 
HETATM    6  C   LIG     1      19.037  37.217  19.395  1.00  0.00     0.001 A 
HETATM    7  C   LIG     1      19.436  38.555  19.395  1.00  0.00     0.000 A 
HETATM    8  C   LIG     1      19.000  39.412  20.408  1.00  0.00     0.001 A 
HETATM    9  C   LIG     1      18.163  38.934  21.422  1.00  0.00     0.010 A 
ENDBRANCH   1   4
BRANCH   1  10
HETATM   10  C   LIG     1      16.839  35.495  22.583  1.00  0.00     0.248 C 
HETATM   11  C   LIG     1      17.160  34.974  23.993  1.00  0.00     0.045 C 
BRANCH  10  12
HETATM   12  N   LIG     1      15.588  34.889  22.074  1.00  0.00     0.086 N 
HETATM   13  C   LIG     1      15.734  34.152  20.812  1.00  0.00     0.307 C 
HETATM   14  H   LIG     1      15.210  34.230  22.794  1.00  0.00     0.315 HD
ENDBRANCH  10  12
ENDBRANCH   1  10
TORSDOF 4
ENDMDL
MODEL 5
REMARK VINA RESULT:      -6.2      3.252      4.872
REMARK  4 active torsions:
REMARK  status: ('A' for Active; 'I' for Inactive)
REMARK    1  A    between atoms: O_1  and  C_2 
REMARK    2  A    between atoms: C_2  and  C_7 
REMARK    3  A    between atoms: C_2  and  C_3 
REMARK    4  A    between atoms: C_3  and  N_5 
ROOT
HETATM    1  C   LIG     1      17.055  35.131  21.857  1.00  0.00     0.183 C 
ENDROOT
BRANCH   1   2
HETATM    2  O   LIG     1      17.034  35.091  23.263  1.00  0.00    -0.389 OA
HETATM    3  H   LIG     1      17.836  35.570  23.596  1.00  0.00     0.210 HD
ENDBRANCH   1   2
BRANCH   1   4
HETATM    4  C   LIG     1      17.579  36.476  21.383  1.00  0.00    -0.028 A 
HETATM    5  C   LIG     1      17.354  37.633  22.152  1.00  0.00     0.010 A 
HETATM    6  C   LIG     1      17.839  38.873  21.724  1.00  0.00     0.001 A 
HETATM    7  C   LIG     1      18.554  38.973  20.528  1.00  0.00     0.000 A 
HETATM    8  C   LIG     1      18.783  37.832  19.756  1.00  0.00     0.001 A 
HETATM    9  C   LIG     1      18.301  36.589  20.178  1.00  0.00     0.010 A 
ENDBRANCH   1   4
BRANCH   1  10
HETATM   10  C   LIG     1      15.657  34.796  21.252  1.00  0.00     0.248 C 
HETATM   11  C   LIG     1      14.703  36.000  21.304  1.00  0.00     0.045 C 
BRANCH  10  12
HETATM   12  N   LIG     1      15.728  34.244  19.880  1.00  0.00     0.086 N 
HETATM   13  C   LIG     1      15.398  32.817  19.777  1.00  0.00     0.307 C 
HETATM   14  H   LIG     1      15.071  34.776  19.264  1.00  0.00     0.315 HD
ENDBRANCH  10  12
ENDBRANCH   1  10
TORSDOF 4
ENDMDL
MODEL 6
REMARK VINA RESULT:      -6.1      7.072      9.539
REMARK  4 active torsions:
REMARK  status: ('A' for Active; 'I' for Inactive)
REMARK    1  A    between atoms: O_1  and  C_2 
REMARK    2  A    between atoms: C_2  and  C_7 
REMARK    3  A    between atoms: C_2  and  C_3 
REMARK    4  A    between atoms: C_3  and  N_5 
ROOT
HETATM    1  C   LIG     1      15.505  33.170  17.082  1.00  0.00     0.183 C 
ENDROOT
BRANCH   1   2
HETATM    2  O   LIG     1      15.325  34.404  16.431  1.00  0.00    -0.389 OA
HETATM    3  H   LIG     1      15.864  35.085  16.910  1.00  0.00     0.210 HD
ENDBRANCH   1   2
BRANCH   1   4
HETATM    4  C   LIG     1      14.777  32.072  16.326  1.00  0.00    -0.028 A 
HETATM    5  C   LIG     1      13.516  31.627  16.766  1.00  0.00     0.010 A 
HETATM    6  C   LIG     1      12.838  30.622  16.071  1.00  0.00     0.001 A 
HETATM    7  C   LIG     1      13.407  30.048  14.932  1.00  0.00     0.000 A 
HETATM    8  C   LIG     1      14.658  30.479  14.486  1.00  0.00     0.001 A 
HETATM    9  C   LIG     1      15.342  31.485  15.176  1.00  0.00     0.010 A 
ENDBRANCH   1   4
BRANCH   1  10
HETATM   10  C   LIG     1      15.074  33.242  18.579  1.00  0.00     0.248 C 
HETATM   11  C   LIG     1      15.616  32.055  19.392  1.00  0.00     0.045 C 
BRANCH  10  12
HETATM   12  N   LIG     1      15.425  34.525  19.230  1.00  0.00     0.086 N 
HETATM   13  C   LIG     1      15.846  34.406  20.631  1.00  0.00     0.307 C 
HETATM   14  H   LIG     1      16.201  34.979  18.694  1.00  0.00     0.315 HD
ENDBRANCH  10  12
ENDBRANCH   1  10
TORSDOF 4
ENDMDL
MODEL 7
REMARK VINA RESULT:      -5.9      8.022     10.446
REMARK  4 active torsions:
REMARK  status: ('A' for Active; 'I' for Inactive)
REMARK    1  A    between atoms: O_1  and  C_2 
REMARK    2  A    between atoms: C_2  and  C_7 
REMARK    3  A    between atoms: C_2  and  C_3 
REMARK    4  A    between atoms: C_3  and  N_5 
ROOT
HETATM    1  C   LIG     1      13.671  32.335  16.795  1.00  0.00     0.183 C 
ENDROOT
BRANCH   1   2
HETATM    2  O   LIG     1      12.584  31.847  17.542  1.00  0.00    -0.389 OA
HETATM    3  H   LIG     1      12.527  30.867  17.398  1.00  0.00     0.210 HD
ENDBRANCH   1   2
BRANCH   1   4
HETATM    4  C   LIG     1      14.071  31.323  15.735  1.00  0.00    -0.028 A 
HETATM    5  C   LIG     1      15.321  31.426  15.096  1.00  0.00     0.010 A 
HETATM    6  C   LIG     1      15.698  30.495  14.124  1.00  0.00     0.001 A 
HETATM    7  C   LIG     1      14.835  29.452  13.778  1.00  0.00     0.000 A 
HETATM    8  C   LIG     1      13.592  29.340  14.404  1.00  0.00     0.001 A 
HETATM    9  C   LIG     1      13.209  30.267  15.378  1.00  0.00     0.010 A 
ENDBRANCH   1   4
BRANCH   1  10
HETATM   10  C   LIG     1      14.867  32.731  17.715  1.00  0.00     0.248 C 
HETATM   11  C   LIG     1      15.242  34.214  17.566  1.00  0.00     0.045 C 
BRANCH  10  12
HETATM   12  N   LIG     1      14.653  32.386  19.139  1.00  0.00     0.086 N 
HETATM   13  C   LIG     1      15.445  33.179  20.087  1.00  0.00     0.307 C 
HETATM   14  H   LIG     1      13.641  32.515  19.373  1.00  0.00     0.315 HD
ENDBRANCH  10  12
ENDBRANCH   1  10
TORSDOF 4
ENDMDL
MODEL 8
REMARK VINA RESULT:      -5.3      9.746     10.828
REMARK  4 active torsions:
REMARK  status: ('A' for Active; 'I' for Inactive)
REMARK    1  A    between atoms: O_1  and  C_2 
REMARK    2  A    between atoms: C_2  and  C_7 
REMARK    3  A    between atoms: C_2  and  C_3 
REMARK    4  A    between atoms: C_3  and  N_5 
ROOT
HETATM    1  C   LIG     1      16.306  31.436  14.327  1.00  0.00     0.183 C 
ENDROOT
BRANCH   1   2
HETATM    2  O   LIG     1      16.017  30.782  13.116  1.00  0.00    -0.389 OA
HETATM    3  H   LIG     1      15.147  30.318  13.218  1.00  0.00     0.210 HD
ENDBRANCH   1   2
BRANCH   1   4
HETATM    4  C   LIG     1      15.078  31.444  15.221  1.00  0.00    -0.028 A 
HETATM    5  C   LIG     1      14.051  30.503  15.019  1.00  0.00     0.010 A 
HETATM    6  C   LIG     1      12.921  30.501  15.842  1.00  0.00     0.001 A 
HETATM    7  C   LIG     1      12.802  31.434  16.874  1.00  0.00     0.000 A 
HETATM    8  C   LIG     1      13.813  32.374  17.084  1.00  0.00     0.001 A 
HETATM    9  C   LIG     1      14.947  32.382  16.265  1.00  0.00     0.010 A 
ENDBRANCH   1   4
BRANCH   1  10
HETATM   10  C   LIG     1      16.870  32.870  14.085  1.00  0.00     0.248 C 
HETATM   11  C   LIG     1      18.117  33.150  14.939  1.00  0.00     0.045 C 
BRANCH  10  12
HETATM   12  N   LIG     1      17.136  33.164  12.658  1.00  0.00     0.086 N 
HETATM   13  C   LIG     1      18.473  33.704  12.383  1.00  0.00     0.307 C 
HETATM   14  H   LIG     1      17.019  32.285  12.101  1.00  0.00     0.315 HD
ENDBRANCH  10  12
ENDBRANCH   1  10
TORSDOF 4
ENDMDL
MODEL 9
REMARK VINA RESULT:      -5.1     10.294     12.265
REMARK  4 active torsions:
REMARK  status: ('A' for Active; 'I' for Inactive)
REMARK    1  A    between atoms: O_1  and  C_2 
REMARK    2  A    between atoms: C_2  and  C_7 
REMARK    3  A    between atoms: C_2  and  C_3 
REMARK    4  A    between atoms: C_3  and  N_5 
ROOT
HETATM    1  C   LIG     1      14.695  29.817  13.727  1.00  0.00     0.183 C 
ENDROOT
BRANCH   1   2
HETATM    2  O   LIG     1      15.910  30.199  13.130  1.00  0.00    -0.389 OA
HETATM    3  H   LIG     1      16.635  30.055  13.791  1.00  0.00     0.210 HD
ENDBRANCH   1   2
BRANCH   1   4
HETATM    4  C   LIG     1      14.413  30.689  14.938  1.00  0.00    -0.028 A 
HETATM    5  C   LIG     1      15.355  31.648  15.354  1.00  0.00     0.010 A 
HETATM    6  C   LIG     1      15.099  32.459  16.463  1.00  0.00     0.001 A 
HETATM    7  C   LIG     1      13.902  32.323  17.171  1.00  0.00     0.000 A 
HETATM    8  C   LIG     1      12.959  31.374  16.769  1.00  0.00     0.001 A 
HETATM    9  C   LIG     1      13.209  30.561  15.660  1.00  0.00     0.010 A 
ENDBRANCH   1   4
BRANCH   1  10
HETATM   10  C   LIG     1      14.681  28.297  14.077  1.00  0.00     0.248 C 
HETATM   11  C   LIG     1      13.375  27.617  13.634  1.00  0.00     0.045 C 
BRANCH  10  12
HETATM   12  N   LIG     1      15.856  27.563  13.556  1.00  0.00     0.086 N 
HETATM   13  C   LIG     1      15.674  26.985  12.219  1.00  0.00     0.307 C 
HETATM   14  H   LIG     1      16.676  28.212  13.522  1.00  0.00     0.315 HD
ENDBRANCH  10  12
ENDBRANCH   1  10
TORSDOF 4
ENDMDL
MODEL 10
REMARK VINA RESULT:      -5.1      7.050      8.843
REMARK  4 active torsions:
REMARK  status: ('A' for Active; 'I' for Inactive)
REMARK    1  A    between atoms: O_1  and  C_2 
REMARK    2  A    between atoms: C_2  and  C_7 
REMARK    3  A    between atoms: C_2  and  C_3 
REMARK    4  A    between atoms: C_3  and  N_5 
ROOT
HETATM    1  C   LIG     1      14.703  32.796  16.310  1.00  0.00     0.183 C 
ENDROOT
BRANCH   1   2
HETATM    2  O   LIG     1      15.726  33.251  15.460  1.00  0.00    -0.389 OA
HETATM    3  H   LIG     1      15.307  33.579  14.623  1.00  0.00     0.210 HD
ENDBRANCH   1   2
BRANCH   1   4
HETATM    4  C   LIG     1      15.029  33.148  17.752  1.00  0.00    -0.028 A 
HETATM    5  C   LIG     1      15.058  32.142  18.736  1.00  0.00     0.010 A 
HETATM    6  C   LIG     1      15.364  32.458  20.063  1.00  0.00     0.001 A 
HETATM    7  C   LIG     1      15.645  33.778  20.424  1.00  0.00     0.000 A 
HETATM    8  C   LIG     1      15.618  34.786  19.457  1.00  0.00     0.001 A 
HETATM    9  C   LIG     1      15.313  34.476  18.128  1.00  0.00     0.010 A 
ENDBRANCH   1   4
BRANCH   1  10
HETATM   10  C   LIG     1      14.435  31.272  16.121  1.00  0.00     0.248 C 
HETATM   11  C   LIG     1      12.936  30.937  16.199  1.00  0.00     0.045 C 
BRANCH  10  12
HETATM   12  N   LIG     1      15.030  30.719  14.883  1.00  0.00     0.086 N 
HETATM   13  C   LIG     1      14.256  29.638  14.261  1.00  0.00     0.307 C 
HETATM   14  H   LIG     1      15.136  31.489  14.182  1.00  0.00     0.315 HD
ENDBRANCH  10  12
ENDBRANCH   1  10
TORSDOF 4
ENDMDL
MODEL 11
REMARK VINA RESULT:      -4.9      6.404      8.144
REMARK  4 active torsions:
REMARK  status: ('A' for Active; 'I' for Inactive)
REMARK    1  A    between atoms: O_1  and  C_2 
REMARK    2  A    between atoms: C_2  and  C_7 
REMARK    3  A    between atoms: C_2  and  C_3 
REMARK    4  A    between atoms: C_3  and  N_5 
ROOT
HETATM    1  C   LIG     1      15.303  33.387  16.357  1.00  0.00     0.183 C 
ENDROOT
BRANCH   1   2
HETATM    2  O   LIG     1      15.607  34.750  16.190  1.00  0.00    -0.389 OA
HETATM    3  H   LIG     1      14.756  35.240  16.048  1.00  0.00     0.210 HD
ENDBRANCH   1   2
BRANCH   1   4
HETATM    4  C   LIG     1      15.180  33.058  17.835  1.00  0.00    -0.028 A 
HETATM    5  C   LIG     1      14.724  31.790  18.240  1.00  0.00     0.010 A 
HETATM    6  C   LIG     1      14.615  31.478  19.599  1.00  0.00     0.001 A 
HETATM    7  C   LIG     1      14.959  32.424  20.566  1.00  0.00     0.000 A 
HETATM    8  C   LIG     1      15.412  33.687  20.177  1.00  0.00     0.001 A 
HETATM    9  C   LIG     1      15.524  34.005  18.820  1.00  0.00     0.010 A 
ENDBRANCH   1   4
BRANCH   1  10
HETATM   10  C   LIG     1      16.340  32.475  15.632  1.00  0.00     0.248 C 
HETATM   11  C   LIG     1      15.717  31.728  14.442  1.00  0.00     0.045 C 
BRANCH  10  12
HETATM   12  N   LIG     1      17.565  33.195  15.215  1.00  0.00     0.086 N 
HETATM   13  C   LIG     1      17.717  33.354  13.764  1.00  0.00     0.307 C 
HETATM   14  H   LIG     1      17.566  34.147  15.650  1.00  0.00     0.315 HD
ENDBRANCH  10  12
ENDBRANCH   1  10
TORSDOF 4
ENDMDL
MODEL 12
REMARK VINA RESULT:      -4.9     10.319     12.655
REMARK  4 active torsions:
REMARK  status: ('A' for Active; 'I' for Inactive)
REMARK    1  A    between atoms: O_1  and  C_2 
REMARK    2  A    between atoms: C_2  and  C_7 
REMARK    3  A    between atoms: C_2  and  C_3 
REMARK    4  A    between atoms: C_3  and  N_5 
ROOT
HETATM    1  C   LIG     1      17.670  34.348  12.833  1.00  0.00     0.183 C 
ENDROOT
BRANCH   1   2
HETATM    2  O   LIG     1      16.608  34.768  12.012  1.00  0.00    -0.389 OA
HETATM    3  H   LIG     1      15.844  34.154  12.159  1.00  0.00     0.210 HD
ENDBRANCH   1   2
BRANCH   1   4
HETATM    4  C   LIG     1      18.977  34.401  12.061  1.00  0.00    -0.028 A 
HETATM    5  C   LIG     1      18.989  34.824  10.719  1.00  0.00     0.010 A 
HETATM    6  C   LIG     1      20.189  34.881  10.005  1.00  0.00     0.001 A 
HETATM    7  C   LIG     1      21.390  34.519  10.619  1.00  0.00     0.000 A 
HETATM    8  C   LIG     1      21.392  34.097  11.951  1.00  0.00     0.001 A 
HETATM    9  C   LIG     1      20.195  34.037  12.671  1.00  0.00     0.010 A 
ENDBRANCH   1   4
BRANCH   1  10
HETATM   10  C   LIG     1      17.401  32.937  13.442  1.00  0.00     0.248 C 
HETATM   11  C   LIG     1      17.462  32.952  14.978  1.00  0.00     0.045 C 
BRANCH  10  12
HETATM   12  N   LIG     1      16.135  32.328  12.975  1.00  0.00     0.086 N 
HETATM   13  C   LIG     1      15.585  31.299  13.866  1.00  0.00     0.307 C 
HETATM   14  H   LIG     1      15.415  33.079  12.862  1.00  0.00     0.315 HD
ENDBRANCH  10  12
ENDBRANCH   1  10
TORSDOF 4
ENDMDL
MODEL 13
REMARK VINA RESULT:      -4.9      9.733     10.727
REMARK  4 active torsions:
REMARK  status: ('A' for Active; 'I' for Inactive)
REMARK    1  A    between atoms: O_1  and  C_2 
REMARK    2  A    between atoms: C_2  and  C_7 
REMARK    3  A    between atoms: C_2  and  C_3 
REMARK    4  A    between atoms: C_3  and  N_5 
ROOT
HETATM    1  C   LIG     1      16.688  32.513  15.402  1.00  0.00     0.183 C 
ENDROOT
BRANCH   1   2
HETATM    2  O   LIG     1      17.780  31.627  15.406  1.00  0.00    -0.389 OA
HETATM    3  H   LIG     1      17.437  30.715  15.223  1.00  0.00     0.210 HD
ENDBRANCH   1   2
BRANCH   1   4
HETATM    4  C   LIG     1      15.385  31.734  15.460  1.00  0.00    -0.028 A 
HETATM    5  C   LIG     1      14.436  32.019  16.459  1.00  0.00     0.010 A 
HETATM    6  C   LIG     1      13.232  31.310  16.514  1.00  0.00     0.001 A 
HETATM    7  C   LIG     1      12.961  30.312  15.576  1.00  0.00     0.000 A 
HETATM    8  C   LIG     1      13.896  30.019  14.580  1.00  0.00     0.001 A 
HETATM    9  C   LIG     1      15.102  30.724  14.519  1.00  0.00     0.010 A 
ENDBRANCH   1   4
BRANCH   1  10
HETATM   10  C   LIG     1      16.742  33.485  14.184  1.00  0.00     0.248 C 
HETATM   11  C   LIG     1      17.492  34.785  14.516  1.00  0.00     0.045 C 
BRANCH  10  12
HETATM   12  N   LIG     1      17.293  32.862  12.959  1.00  0.00     0.086 N 
HETATM   13  C   LIG     1      18.524  33.483  12.457  1.00  0.00     0.307 C 
HETATM   14  H   LIG     1      17.491  31.852  13.149  1.00  0.00     0.315 HD
ENDBRANCH  10  12
ENDBRANCH   1  10
TORSDOF 4
ENDMDL
MODEL 14
REMARK VINA RESULT:      -4.8      9.723     11.975
REMARK  4 active torsions:
REMARK  status: ('A' for Active; 'I' for Inactive)
REMARK    1  A    between atoms: O_1  and  C_2 
REMARK    2  A    between atoms: C_2  and  C_7 
REMARK    3  A    between atoms: C_2  and  C_3 
REMARK    4  A    between atoms: C_3  and  N_5 
ROOT
HETATM    1  C   LIG     1      14.796  31.336  15.072  1.00  0.00     0.183 C 
ENDROOT
BRANCH   1   2
HETATM    2  O   LIG     1      14.569  31.379  16.459  1.00  0.00    -0.389 OA
HETATM    3  H   LIG     1      14.179  30.509  16.734  1.00  0.00     0.210 HD
ENDBRANCH   1   2
BRANCH   1   4
HETATM    4  C   LIG     1      14.479  29.950  14.535  1.00  0.00    -0.028 A 
HETATM    5  C   LIG     1      15.521  29.091  14.138  1.00  0.00     0.010 A 
HETATM    6  C   LIG     1      15.237  27.813  13.650  1.00  0.00     0.001 A 
HETATM    7  C   LIG     1      13.914  27.376  13.552  1.00  0.00     0.000 A 
HETATM    8  C   LIG     1      12.871  28.220  13.941  1.00  0.00     0.001 A 
HETATM    9  C   LIG     1      13.148  29.500  14.431  1.00  0.00     0.010 A 
ENDBRANCH   1   4
BRANCH   1  10
HETATM   10  C   LIG     1      16.244  31.791  14.714  1.00  0.00     0.248 C 
HETATM   11  C   LIG     1      16.332  32.365  13.290  1.00  0.00     0.045 C 
BRANCH  10  12
HETATM   12  N   LIG     1      16.823  32.736  15.696  1.00  0.00     0.086 N 
HETATM   13  C   LIG     1      17.252  34.021  15.129  1.00  0.00     0.307 C 
HETATM   14  H   LIG     1      16.115  32.929  16.442  1.00  0.00     0.315 HD
ENDBRANCH  10  12
ENDBRANCH   1  10
TORSDOF 4
ENDMDL
MODEL 15
REMARK VINA RESULT:      -4.6     10.104     12.129
REMARK  4 active torsions:
REMARK  status: ('A' for Active; 'I' for Inactive)
REMARK    1  A    between atoms: O_1  and  C_2 
REMARK    2  A    between atoms: C_2  and  C_7 
REMARK    3  A    between atoms: C_2  and  C_3 
REMARK    4  A    between atoms: C_3  and  N_5 
ROOT
HETATM    1  C   LIG     1      14.483  29.918  14.007  1.00  0.00     0.183 C 
ENDROOT
BRANCH   1   2
HETATM    2  O   LIG     1      15.735  29.340  13.728  1.00  0.00    -0.389 OA
HETATM    3  H   LIG     1      16.023  28.830  14.527  1.00  0.00     0.210 HD
ENDBRANCH   1   2
BRANCH   1   4
HETATM    4  C   LIG     1      14.606  30.888  15.170  1.00  0.00    -0.028 A 
HETATM    5  C   LIG     1      13.750  30.770  16.281  1.00  0.00     0.010 A 
HETATM    6  C   LIG     1      13.861  31.654  17.358  1.00  0.00     0.001 A 
HETATM    7  C   LIG     1      14.825  32.665  17.340  1.00  0.00     0.000 A 
HETATM    8  C   LIG     1      15.679  32.794  16.242  1.00  0.00     0.001 A 
HETATM    9  C   LIG     1      15.574  31.912  15.162  1.00  0.00     0.010 A 
ENDBRANCH   1   4
BRANCH   1  10
HETATM   10  C   LIG     1      13.392  28.832  14.255  1.00  0.00     0.248 C 
HETATM   11  C   LIG     1      11.985  29.337  13.897  1.00  0.00     0.045 C 
BRANCH  10  12
HETATM   12  N   LIG     1      13.676  27.548  13.575  1.00  0.00     0.086 N 
HETATM   13  C   LIG     1      12.484  26.798  13.162  1.00  0.00     0.307 C 
HETATM   14  H   LIG     1      14.256  27.733  12.724  1.00  0.00     0.315 HD
ENDBRANCH  10  12
ENDBRANCH   1  10
TORSDOF 4
ENDMDL
MODEL 16
REMARK VINA RESULT:      -4.6      9.650     11.948
REMARK  4 active torsions:
REMARK  status: ('A' for Active; 'I' for Inactive)
REMARK    1  A    between atoms: O_1  and  C_2 
REMARK    2  A    between atoms: C_2  and  C_7 
REMARK    3  A    between atoms: C_2  and  C_3 
REMARK    4  A    between atoms: C_3  and  N_5 
ROOT
HETATM    1  C   LIG     1      15.763  31.083  14.792  1.00  0.00     0.183 C 
ENDROOT
BRANCH   1   2
HETATM    2  O   LIG     1      16.244  31.722  13.636  1.00  0.00    -0.389 OA
HETATM    3  H   LIG     1      15.487  31.824  13.003  1.00  0.00     0.210 HD
ENDBRANCH   1   2
BRANCH   1   4
HETATM    4  C   LIG     1      14.929  29.872  14.410  1.00  0.00    -0.028 A 
HETATM    5  C   LIG     1      15.558  28.686  13.987  1.00  0.00     0.010 A 
HETATM    6  C   LIG     1      14.797  27.566  13.639  1.00  0.00     0.001 A 
HETATM    7  C   LIG     1      13.403  27.615  13.709  1.00  0.00     0.000 A 
HETATM    8  C   LIG     1      12.767  28.787  14.126  1.00  0.00     0.001 A 
HETATM    9  C   LIG     1      13.522  29.911  14.475  1.00  0.00     0.010 A 
ENDBRANCH   1   4
BRANCH   1  10
HETATM   10  C   LIG     1      14.982  32.071  15.712  1.00  0.00     0.248 C 
HETATM   11  C   LIG     1      14.370  31.362  16.931  1.00  0.00     0.045 C 
BRANCH  10  12
HETATM   12  N   LIG     1      15.787  33.240  16.136  1.00  0.00     0.086 N 
HETATM   13  C   LIG     1      15.075  34.194  16.995  1.00  0.00     0.307 C 
HETATM   14  H   LIG     1      16.632  32.903  16.654  1.00  0.00     0.315 HD
ENDBRANCH  10  12
ENDBRANCH   1  10
TORSDOF 4
ENDMDL
MODEL 17
REMARK VINA RESULT:      -4.5      9.539     12.116
REMARK  4 active torsions:
REMARK  status: ('A' for Active; 'I' for Inactive)
REMARK    1  A    between atoms: O_1  and  C_2 
REMARK    2  A    between atoms: C_2  and  C_7 
REMARK    3  A    between atoms: C_2  and  C_3 
REMARK    4  A    between atoms: C_3  and  N_5 
ROOT
HETATM    1  C   LIG     1      17.621  33.296  13.106  1.00  0.00     0.183 C 
ENDROOT
BRANCH   1   2
HETATM    2  O   LIG     1      16.981  32.087  12.781  1.00  0.00    -0.389 OA
HETATM    3  H   LIG     1      16.103  32.070  13.242  1.00  0.00     0.210 HD
ENDBRANCH   1   2
BRANCH   1   4
HETATM    4  C   LIG     1      18.956  33.388  12.386  1.00  0.00    -0.028 A 
HETATM    5  C   LIG     1      19.991  34.181  12.916  1.00  0.00     0.010 A 
HETATM    6  C   LIG     1      21.224  34.265  12.263  1.00  0.00     0.001 A 
HETATM    7  C   LIG     1      21.439  33.561  11.076  1.00  0.00     0.000 A 
HETATM    8  C   LIG     1      20.419  32.772  10.539  1.00  0.00     0.001 A 
HETATM    9  C   LIG     1      19.184  32.683  11.188  1.00  0.00     0.010 A 
ENDBRANCH   1   4
BRANCH   1  10
HETATM   10  C   LIG     1      17.768  33.471  14.648  1.00  0.00     0.248 C 
HETATM   11  C   LIG     1      17.230  34.829  15.128  1.00  0.00     0.045 C 
BRANCH  10  12
HETATM   12  N   LIG     1      17.165  32.365  15.426  1.00  0.00     0.086 N 
HETATM   13  C   LIG     1      15.847  32.666  15.998  1.00  0.00     0.307 C 
HETATM   14  H   LIG     1      17.067  31.526  14.807  1.00  0.00     0.315 HD
ENDBRANCH  10  12
ENDBRANCH   1  10
TORSDOF 4
ENDMDL
