REMARK  5 active torsions:
REMARK  status: ('A' for Active; 'I' for Inactive)
REMARK    1  A    between atoms: C_2  and  S_3 
REMARK    2  A    between atoms: S_3  and  C_4 
REMARK    3  A    between atoms: C_4  and  C_5 
REMARK    4  A    between atoms: C_10  and  O_11 
REMARK    5  A    between atoms: O_11  and  C_12 
REMARK       I    between atoms: C_12  and  N_13 
ROOT
HETATM    1  C   LIG     1       0.195  -1.895   0.288  1.00  0.00    -0.015 A 
HETATM    2  C   LIG     1       0.015  -3.276   0.476  1.00  0.00     0.011 A 
HETATM    3  C   LIG     1      -1.259  -3.841   0.389  1.00  0.00     0.001 A 
HETATM    4  C   LIG     1      -2.365  -3.034   0.119  1.00  0.00     0.003 A 
HETATM    5  C   LIG     1      -2.200  -1.661  -0.076  1.00  0.00     0.038 A 
HETATM    6  C   LIG     1      -0.919  -1.081  -0.011  1.00  0.00     0.088 A 
ENDROOT
BRANCH   6   7
HETATM    7  O   LIG     1      -0.722   0.297  -0.197  1.00  0.00    -0.261 OA
BRANCH   7   8
HETATM    8  C   LIG     1      -1.491   1.128  -1.020  1.00  0.00     0.365 C 
HETATM    9  N   LIG     1      -1.340   2.546  -0.909  1.00  0.00    -0.341 N 
HETATM   10  C   LIG     1      -2.092   3.470  -1.748  1.00  0.00     0.151 C 
HETATM   11  H   LIG     1      -0.670   2.928  -0.205  1.00  0.00     0.164 HD
HETATM   12  O   LIG     1      -2.269   0.640  -1.885  1.00  0.00    -0.238 OA
ENDBRANCH   7   8
ENDBRANCH   6   7
BRANCH   1  13
HETATM   13  C   LIG     1       1.573  -1.296   0.379  1.00  0.00     0.115 C 
BRANCH  13  14
HETATM   14  S   LIG     1       1.690  -0.240   1.867  1.00  0.00    -0.165 SA
BRANCH  14  15
HETATM   15  C   LIG     1       3.173   0.684   1.332  1.00  0.00     0.069 C 
HETATM   16  C   LIG     1       2.772   1.915   0.528  1.00  0.00     0.016 C 
ENDBRANCH  14  15
ENDBRANCH  13  14
ENDBRANCH   1  13
TORSDOF 5
