REMARK  4 active torsions:
REMARK  status: ('A' for Active; 'I' for Inactive)
REMARK    1  A    between atoms: C_2  and  C_7 
REMARK    2  A    between atoms: C_2  and  C_3 
REMARK    3  A    between atoms: C_3  and  C_4 
REMARK    4  A    between atoms: C_7  and  C_8 
ROOT
HETATM    1  O   LIG     1      -1.006  -1.523  -0.438  1.00  0.00    -0.298 OA
HETATM    2  C   LIG     1      -0.624  -0.446  -0.873  1.00  0.00     0.134 C 
ENDROOT
BRANCH   2   3
HETATM    3  C   LIG     1       0.852  -0.213  -1.079  1.00  0.00     0.082 C 
BRANCH   3   4
HETATM    4  C   LIG     1       1.649  -0.320   0.238  1.00  0.00    -0.016 C 
HETATM    5  C   LIG     1       3.154  -0.249  -0.049  1.00  0.00     0.010 C 
HETATM    6  C   LIG     1       1.252   0.783   1.231  1.00  0.00     0.010 C 
ENDBRANCH   3   4
ENDBRANCH   2   3
BRANCH   2   7
HETATM    7  C   LIG     1      -1.639   0.610  -1.229  1.00  0.00     0.156 C 
BRANCH   7   8
HETATM    8  C   LIG     1      -2.246   1.206   0.011  1.00  0.00     0.130 C 
HETATM    9  C   LIG     1      -3.214   0.430   0.853  1.00  0.00     0.091 C 
HETATM   10  O   LIG     1      -1.951   2.345   0.340  1.00  0.00    -0.298 OA
ENDBRANCH   7   8
ENDBRANCH   2   7
TORSDOF 4
