MODEL 1
REMARK VINA RESULT:      -6.7      0.000      0.000
REMARK  2 active torsions:
REMARK  status: ('A' for Active; 'I' for Inactive)
REMARK    1  A    between atoms: N_3  and  C_4 
REMARK    2  A    between atoms: C_12  and  N_13 
ROOT
HETATM    1  O   LIG     1      16.423  31.456  13.570  1.00  0.00    -0.265 OA
HETATM    2  C   LIG     1      15.822  31.775  14.633  1.00  0.00     0.288 A 
HETATM    3  N   LIG     1      14.842  30.967  15.151  1.00  0.00    -0.197 N 
HETATM    4  N   LIG     1      14.173  31.338  16.248  1.00  0.00    -0.174 NA
HETATM    5  C   LIG     1      14.441  32.494  16.903  1.00  0.00     0.169 A 
HETATM    6  C   LIG     1      15.443  33.343  16.434  1.00  0.00     0.068 A 
HETATM    7  C   LIG     1      16.146  32.979  15.276  1.00  0.00     0.108 A 
HETATM    8 BR   LIG     1      17.530  34.095  14.542  1.00  0.00    -0.043 Br
ENDROOT
BRANCH   3   9
HETATM    9  C   LIG     1      14.485  29.717  14.532  1.00  0.00     0.062 A 
HETATM   10  C   LIG     1      15.476  28.812  14.104  1.00  0.00     0.032 A 
HETATM   11  C   LIG     1      15.114  27.592  13.525  1.00  0.00     0.002 A 
HETATM   12  C   LIG     1      13.765  27.258  13.377  1.00  0.00     0.000 A 
HETATM   13  C   LIG     1      12.775  28.142  13.813  1.00  0.00     0.002 A 
HETATM   14  C   LIG     1      13.132  29.364  14.394  1.00  0.00     0.032 A 
ENDBRANCH   3   9
BRANCH   6  15
HETATM   15  N   LIG     1      15.722  34.561  17.137  1.00  0.00    -0.397 N 
HETATM   16  H   LIG     1      16.624  35.073  17.023  1.00  0.00     0.156 HD
HETATM   17  H   LIG     1      15.017  34.968  17.792  1.00  0.00     0.156 HD
ENDBRANCH   6  15
TORSDOF 2
ENDMDL
MODEL 2
REMARK VINA RESULT:      -6.6      7.630     10.535
REMARK  2 active torsions:
REMARK  status: ('A' for Active; 'I' for Inactive)
REMARK    1  A    between atoms: N_3  and  C_4 
REMARK    2  A    between atoms: C_12  and  N_13 
ROOT
HETATM    1  O   LIG     1      18.457  37.069  21.875  1.00  0.00    -0.265 OA
HETATM    2  C   LIG     1      17.480  36.300  21.658  1.00  0.00     0.288 A 
HETATM    3  N   LIG     1      16.806  35.715  22.699  1.00  0.00    -0.197 N 
HETATM    4  N   LIG     1      15.807  34.860  22.459  1.00  0.00    -0.174 NA
HETATM    5  C   LIG     1      15.402  34.554  21.202  1.00  0.00     0.169 A 
HETATM    6  C   LIG     1      16.036  35.137  20.105  1.00  0.00     0.068 A 
HETATM    7  C   LIG     1      17.097  36.025  20.337  1.00  0.00     0.108 A 
HETATM    8 BR   LIG     1      18.046  36.862  18.888  1.00  0.00    -0.043 Br
ENDROOT
BRANCH   3   9
HETATM    9  C   LIG     1      17.156  35.977  24.071  1.00  0.00     0.062 A 
HETATM   10  C   LIG     1      17.519  34.929  24.938  1.00  0.00     0.032 A 
HETATM   11  C   LIG     1      17.879  35.201  26.262  1.00  0.00     0.002 A 
HETATM   12  C   LIG     1      17.892  36.518  26.729  1.00  0.00     0.000 A 
HETATM   13  C   LIG     1      17.549  37.567  25.871  1.00  0.00     0.002 A 
HETATM   14  C   LIG     1      17.189  37.299  24.546  1.00  0.00     0.032 A 
ENDBRANCH   3   9
BRANCH   6  15
HETATM   15  N   LIG     1      15.597  34.810  18.780  1.00  0.00    -0.397 N 
HETATM   16  H   LIG     1      15.579  35.516  18.013  1.00  0.00     0.156 HD
HETATM   17  H   LIG     1      15.278  33.842  18.552  1.00  0.00     0.156 HD
ENDBRANCH   6  15
TORSDOF 2
ENDMDL
MODEL 3
REMARK VINA RESULT:      -6.5      3.327      5.485
REMARK  2 active torsions:
REMARK  status: ('A' for Active; 'I' for Inactive)
REMARK    1  A    between atoms: N_3  and  C_4 
REMARK    2  A    between atoms: C_12  and  N_13 
ROOT
HETATM    1  O   LIG     1      16.467  31.515  13.288  1.00  0.00    -0.265 OA
HETATM    2  C   LIG     1      16.307  32.329  14.238  1.00  0.00     0.288 A 
HETATM    3  N   LIG     1      17.068  33.468  14.318  1.00  0.00    -0.197 N 
HETATM    4  N   LIG     1      16.930  34.299  15.356  1.00  0.00    -0.174 NA
HETATM    5  C   LIG     1      16.034  34.075  16.349  1.00  0.00     0.169 A 
HETATM    6  C   LIG     1      15.218  32.945  16.308  1.00  0.00     0.068 A 
HETATM    7  C   LIG     1      15.359  32.053  15.234  1.00  0.00     0.108 A 
HETATM    8 BR   LIG     1      14.294  30.456  15.102  1.00  0.00    -0.043 Br
ENDROOT
BRANCH   3   9
HETATM    9  C   LIG     1      18.045  33.798  13.313  1.00  0.00     0.062 A 
HETATM   10  C   LIG     1      17.671  34.472  12.134  1.00  0.00     0.032 A 
HETATM   11  C   LIG     1      18.634  34.807  11.177  1.00  0.00     0.002 A 
HETATM   12  C   LIG     1      19.977  34.483  11.391  1.00  0.00     0.000 A 
HETATM   13  C   LIG     1      20.360  33.829  12.564  1.00  0.00     0.002 A 
HETATM   14  C   LIG     1      19.400  33.494  13.525  1.00  0.00     0.032 A 
ENDBRANCH   3   9
BRANCH   6  15
HETATM   15  N   LIG     1      14.270  32.720  17.360  1.00  0.00    -0.397 N 
HETATM   16  H   LIG     1      14.539  32.270  18.261  1.00  0.00     0.156 HD
HETATM   17  H   LIG     1      13.272  33.004  17.243  1.00  0.00     0.156 HD
ENDBRANCH   6  15
TORSDOF 2
ENDMDL
MODEL 4
REMARK VINA RESULT:      -6.4      2.550      5.656
REMARK  2 active torsions:
REMARK  status: ('A' for Active; 'I' for Inactive)
REMARK    1  A    between atoms: N_3  and  C_4 
REMARK    2  A    between atoms: C_12  and  N_13 
ROOT
HETATM    1  O   LIG     1      16.325  32.389  15.826  1.00  0.00    -0.265 OA
HETATM    2  C   LIG     1      15.208  31.828  15.998  1.00  0.00     0.288 A 
HETATM    3  N   LIG     1      14.505  32.013  17.162  1.00  0.00    -0.197 N 
HETATM    4  N   LIG     1      13.348  31.374  17.359  1.00  0.00    -0.174 NA
HETATM    5  C   LIG     1      12.810  30.547  16.429  1.00  0.00     0.169 A 
HETATM    6  C   LIG     1      13.470  30.339  15.218  1.00  0.00     0.068 A 
HETATM    7  C   LIG     1      14.693  30.990  14.999  1.00  0.00     0.108 A 
HETATM    8 BR   LIG     1      15.686  30.748  13.369  1.00  0.00    -0.043 Br
ENDROOT
BRANCH   3   9
HETATM    9  C   LIG     1      14.989  32.874  18.210  1.00  0.00     0.062 A 
HETATM   10  C   LIG     1      15.145  34.258  17.996  1.00  0.00     0.032 A 
HETATM   11  C   LIG     1      15.594  35.085  19.030  1.00  0.00     0.002 A 
HETATM   12  C   LIG     1      15.881  34.545  20.286  1.00  0.00     0.000 A 
HETATM   13  C   LIG     1      15.715  33.176  20.513  1.00  0.00     0.002 A 
HETATM   14  C   LIG     1      15.264  32.345  19.482  1.00  0.00     0.032 A 
ENDBRANCH   3   9
BRANCH   6  15
HETATM   15  N   LIG     1      12.890  29.466  14.240  1.00  0.00    -0.397 N 
HETATM   16  H   LIG     1      13.443  29.081  13.443  1.00  0.00     0.156 HD
HETATM   17  H   LIG     1      11.883  29.195  14.302  1.00  0.00     0.156 HD
ENDBRANCH   6  15
TORSDOF 2
ENDMDL
MODEL 5
REMARK VINA RESULT:      -6.3      3.105      5.955
REMARK  2 active torsions:
REMARK  status: ('A' for Active; 'I' for Inactive)
REMARK    1  A    between atoms: N_3  and  C_4 
REMARK    2  A    between atoms: C_12  and  N_13 
ROOT
HETATM    1  O   LIG     1      13.344  31.383  17.400  1.00  0.00    -0.265 OA
HETATM    2  C   LIG     1      14.321  31.631  16.642  1.00  0.00     0.288 A 
HETATM    3  N   LIG     1      15.313  32.491  17.039  1.00  0.00    -0.197 N 
HETATM    4  N   LIG     1      16.317  32.791  16.209  1.00  0.00    -0.174 NA
HETATM    5  C   LIG     1      16.417  32.253  14.969  1.00  0.00     0.169 A 
HETATM    6  C   LIG     1      15.448  31.355  14.520  1.00  0.00     0.068 A 
HETATM    7  C   LIG     1      14.378  31.039  15.372  1.00  0.00     0.108 A 
HETATM    8 BR   LIG     1      12.985  29.828  14.834  1.00  0.00    -0.043 Br
ENDROOT
BRANCH   3   9
HETATM    9  C   LIG     1      15.302  33.113  18.338  1.00  0.00     0.062 A 
HETATM   10  C   LIG     1      15.119  32.346  19.505  1.00  0.00     0.032 A 
HETATM   11  C   LIG     1      15.133  32.960  20.761  1.00  0.00     0.002 A 
HETATM   12  C   LIG     1      15.339  34.338  20.867  1.00  0.00     0.000 A 
HETATM   13  C   LIG     1      15.537  35.105  19.715  1.00  0.00     0.002 A 
HETATM   14  C   LIG     1      15.525  34.495  18.456  1.00  0.00     0.032 A 
ENDBRANCH   3   9
BRANCH   6  15
HETATM   15  N   LIG     1      15.565  30.787  13.209  1.00  0.00    -0.397 N 
HETATM   16  H   LIG     1      15.118  31.224  12.374  1.00  0.00     0.156 HD
HETATM   17  H   LIG     1      16.107  29.906  13.059  1.00  0.00     0.156 HD
ENDBRANCH   6  15
TORSDOF 2
ENDMDL
MODEL 6
REMARK VINA RESULT:      -6.2      1.740      2.445
REMARK  2 active torsions:
REMARK  status: ('A' for Active; 'I' for Inactive)
REMARK    1  A    between atoms: N_3  and  C_4 
REMARK    2  A    between atoms: C_12  and  N_13 
ROOT
HETATM    1  O   LIG     1      14.180  31.274  16.645  1.00  0.00    -0.265 OA
HETATM    2  C   LIG     1      15.006  31.763  15.826  1.00  0.00     0.288 A 
HETATM    3  N   LIG     1      15.332  31.090  14.676  1.00  0.00    -0.197 N 
HETATM    4  N   LIG     1      16.247  31.589  13.839  1.00  0.00    -0.174 NA
HETATM    5  C   LIG     1      16.868  32.773  14.068  1.00  0.00     0.169 A 
HETATM    6  C   LIG     1      16.560  33.511  15.211  1.00  0.00     0.068 A 
HETATM    7  C   LIG     1      15.612  32.996  16.108  1.00  0.00     0.108 A 
HETATM    8 BR   LIG     1      15.137  33.932  17.720  1.00  0.00    -0.043 Br
ENDROOT
BRANCH   3   9
HETATM    9  C   LIG     1      14.726  29.828  14.339  1.00  0.00     0.062 A 
HETATM   10  C   LIG     1      13.327  29.671  14.353  1.00  0.00     0.032 A 
HETATM   11  C   LIG     1      12.751  28.446  14.002  1.00  0.00     0.002 A 
HETATM   12  C   LIG     1      13.562  27.372  13.624  1.00  0.00     0.000 A 
HETATM   13  C   LIG     1      14.951  27.523  13.593  1.00  0.00     0.002 A 
HETATM   14  C   LIG     1      15.531  28.747  13.942  1.00  0.00     0.032 A 
ENDBRANCH   3   9
BRANCH   6  15
HETATM   15  N   LIG     1      17.218  34.763  15.441  1.00  0.00    -0.397 N 
HETATM   16  H   LIG     1      17.362  35.462  14.680  1.00  0.00     0.156 HD
HETATM   17  H   LIG     1      17.578  35.006  16.392  1.00  0.00     0.156 HD
ENDBRANCH   6  15
TORSDOF 2
ENDMDL
MODEL 7
REMARK VINA RESULT:      -6.1      7.709      9.786
REMARK  2 active torsions:
REMARK  status: ('A' for Active; 'I' for Inactive)
REMARK    1  A    between atoms: N_3  and  C_4 
REMARK    2  A    between atoms: C_12  and  N_13 
ROOT
HETATM    1  O   LIG     1      17.341  34.630  23.907  1.00  0.00    -0.265 OA
HETATM    2  C   LIG     1      17.052  35.853  23.802  1.00  0.00     0.288 A 
HETATM    3  N   LIG     1      16.459  36.336  22.664  1.00  0.00    -0.197 N 
HETATM    4  N   LIG     1      16.205  37.642  22.538  1.00  0.00    -0.174 NA
HETATM    5  C   LIG     1      16.493  38.534  23.519  1.00  0.00     0.169 A 
HETATM    6  C   LIG     1      17.077  38.096  24.707  1.00  0.00     0.068 A 
HETATM    7  C   LIG     1      17.365  36.730  24.852  1.00  0.00     0.108 A 
HETATM    8 BR   LIG     1      18.189  36.036  26.445  1.00  0.00    -0.043 Br
ENDROOT
BRANCH   3   9
HETATM    9  C   LIG     1      16.110  35.471  21.567  1.00  0.00     0.062 A 
HETATM   10  C   LIG     1      15.331  34.317  21.775  1.00  0.00     0.032 A 
HETATM   11  C   LIG     1      14.980  33.498  20.697  1.00  0.00     0.002 A 
HETATM   12  C   LIG     1      15.392  33.828  19.403  1.00  0.00     0.000 A 
HETATM   13  C   LIG     1      16.152  34.980  19.184  1.00  0.00     0.002 A 
HETATM   14  C   LIG     1      16.504  35.803  20.259  1.00  0.00     0.032 A 
ENDBRANCH   3   9
BRANCH   6  15
HETATM   15  N   LIG     1      17.373  39.045  25.740  1.00  0.00    -0.397 N 
HETATM   16  H   LIG     1      17.773  39.985  25.530  1.00  0.00     0.156 HD
HETATM   17  H   LIG     1      17.195  38.811  26.742  1.00  0.00     0.156 HD
ENDBRANCH   6  15
TORSDOF 2
ENDMDL
MODEL 8
REMARK VINA RESULT:      -6.0      3.497      5.633
REMARK  2 active torsions:
REMARK  status: ('A' for Active; 'I' for Inactive)
REMARK    1  A    between atoms: N_3  and  C_4 
REMARK    2  A    between atoms: C_12  and  N_13 
ROOT
HETATM    1  O   LIG     1      17.185  34.686  15.306  1.00  0.00    -0.265 OA
HETATM    2  C   LIG     1      16.728  33.570  14.936  1.00  0.00     0.288 A 
HETATM    3  N   LIG     1      17.200  32.964  13.799  1.00  0.00    -0.197 N 
HETATM    4  N   LIG     1      16.674  31.807  13.384  1.00  0.00    -0.174 NA
HETATM    5  C   LIG     1      15.685  31.176  14.064  1.00  0.00     0.169 A 
HETATM    6  C   LIG     1      15.181  31.735  15.238  1.00  0.00     0.068 A 
HETATM    7  C   LIG     1      15.711  32.957  15.682  1.00  0.00     0.108 A 
HETATM    8 BR   LIG     1      15.066  33.815  17.278  1.00  0.00    -0.043 Br
ENDROOT
BRANCH   3   9
HETATM    9  C   LIG     1      18.251  33.550  13.009  1.00  0.00     0.062 A 
HETATM   10  C   LIG     1      19.603  33.389  13.369  1.00  0.00     0.032 A 
HETATM   11  C   LIG     1      20.614  33.945  12.579  1.00  0.00     0.002 A 
HETATM   12  C   LIG     1      20.289  34.656  11.421  1.00  0.00     0.000 A 
HETATM   13  C   LIG     1      18.951  34.808  11.047  1.00  0.00     0.002 A 
HETATM   14  C   LIG     1      17.936  34.252  11.833  1.00  0.00     0.032 A 
ENDBRANCH   3   9
BRANCH   6  15
HETATM   15  N   LIG     1      14.139  31.058  15.952  1.00  0.00    -0.397 N 
HETATM   16  H   LIG     1      13.248  30.771  15.492  1.00  0.00     0.156 HD
HETATM   17  H   LIG     1      14.249  30.837  16.967  1.00  0.00     0.156 HD
ENDBRANCH   6  15
TORSDOF 2
ENDMDL
MODEL 9
REMARK VINA RESULT:      -6.0      4.728      8.136
REMARK  2 active torsions:
REMARK  status: ('A' for Active; 'I' for Inactive)
REMARK    1  A    between atoms: N_3  and  C_4 
REMARK    2  A    between atoms: C_12  and  N_13 
ROOT
HETATM    1  O   LIG     1      15.991  35.132  18.094  1.00  0.00    -0.265 OA
HETATM    2  C   LIG     1      15.524  34.178  18.776  1.00  0.00     0.288 A 
HETATM    3  N   LIG     1      15.463  34.262  20.144  1.00  0.00    -0.197 N 
HETATM    4  N   LIG     1      15.016  33.228  20.863  1.00  0.00    -0.174 NA
HETATM    5  C   LIG     1      14.588  32.077  20.288  1.00  0.00     0.169 A 
HETATM    6  C   LIG     1      14.607  31.944  18.900  1.00  0.00     0.068 A 
HETATM    7  C   LIG     1      15.086  33.014  18.129  1.00  0.00     0.108 A 
HETATM    8 BR   LIG     1      15.169  32.917  16.209  1.00  0.00    -0.043 Br
ENDROOT
BRANCH   3   9
HETATM    9  C   LIG     1      15.890  35.442  20.851  1.00  0.00     0.062 A 
HETATM   10  C   LIG     1      15.001  36.147  21.685  1.00  0.00     0.032 A 
HETATM   11  C   LIG     1      15.436  37.278  22.383  1.00  0.00     0.002 A 
HETATM   12  C   LIG     1      16.760  37.709  22.265  1.00  0.00     0.000 A 
HETATM   13  C   LIG     1      17.653  37.007  21.452  1.00  0.00     0.002 A 
HETATM   14  C   LIG     1      17.223  35.874  20.753  1.00  0.00     0.032 A 
ENDBRANCH   3   9
BRANCH   6  15
HETATM   15  N   LIG     1      14.147  30.725  18.301  1.00  0.00    -0.397 N 
HETATM   16  H   LIG     1      14.783  30.097  17.764  1.00  0.00     0.156 HD
HETATM   17  H   LIG     1      13.147  30.437  18.388  1.00  0.00     0.156 HD
ENDBRANCH   6  15
TORSDOF 2
ENDMDL
MODEL 10
REMARK VINA RESULT:      -5.9      5.833      7.530
REMARK  2 active torsions:
REMARK  status: ('A' for Active; 'I' for Inactive)
REMARK    1  A    between atoms: N_3  and  C_4 
REMARK    2  A    between atoms: C_12  and  N_13 
ROOT
HETATM    1  O   LIG     1      14.884  35.506  21.892  1.00  0.00    -0.265 OA
HETATM    2  C   LIG     1      15.914  36.006  21.363  1.00  0.00     0.288 A 
HETATM    3  N   LIG     1      16.430  35.483  20.204  1.00  0.00    -0.197 N 
HETATM    4  N   LIG     1      17.551  35.985  19.678  1.00  0.00    -0.174 NA
HETATM    5  C   LIG     1      18.210  37.029  20.239  1.00  0.00     0.169 A 
HETATM    6  C   LIG     1      17.720  37.615  21.406  1.00  0.00     0.068 A 
HETATM    7  C   LIG     1      16.551  37.093  21.981  1.00  0.00     0.108 A 
HETATM    8 BR   LIG     1      15.811  37.821  23.600  1.00  0.00    -0.043 Br
ENDROOT
BRANCH   3   9
HETATM    9  C   LIG     1      15.803  34.376  19.529  1.00  0.00     0.062 A 
HETATM   10  C   LIG     1      15.410  34.480  18.180  1.00  0.00     0.032 A 
HETATM   11  C   LIG     1      14.823  33.389  17.531  1.00  0.00     0.002 A 
HETATM   12  C   LIG     1      14.634  32.185  18.214  1.00  0.00     0.000 A 
HETATM   13  C   LIG     1      15.036  32.067  19.547  1.00  0.00     0.002 A 
HETATM   14  C   LIG     1      15.624  33.155  20.201  1.00  0.00     0.032 A 
ENDBRANCH   3   9
BRANCH   6  15
HETATM   15  N   LIG     1      18.420  38.722  21.988  1.00  0.00    -0.397 N 
HETATM   16  H   LIG     1      18.089  39.191  22.859  1.00  0.00     0.156 HD
HETATM   17  H   LIG     1      19.291  39.091  21.544  1.00  0.00     0.156 HD
ENDBRANCH   6  15
TORSDOF 2
ENDMDL
MODEL 11
REMARK VINA RESULT:      -5.8      6.725      9.317
REMARK  2 active torsions:
REMARK  status: ('A' for Active; 'I' for Inactive)
REMARK    1  A    between atoms: N_3  and  C_4 
REMARK    2  A    between atoms: C_12  and  N_13 
ROOT
HETATM    1  O   LIG     1      16.978  35.597  18.486  1.00  0.00    -0.265 OA
HETATM    2  C   LIG     1      16.541  35.375  19.649  1.00  0.00     0.288 A 
HETATM    3  N   LIG     1      17.011  36.091  20.721  1.00  0.00    -0.197 N 
HETATM    4  N   LIG     1      16.583  35.814  21.956  1.00  0.00    -0.174 NA
HETATM    5  C   LIG     1      15.665  34.847  22.204  1.00  0.00     0.169 A 
HETATM    6  C   LIG     1      15.137  34.102  21.150  1.00  0.00     0.068 A 
HETATM    7  C   LIG     1      15.585  34.369  19.847  1.00  0.00     0.108 A 
HETATM    8 BR   LIG     1      14.929  33.381  18.333  1.00  0.00    -0.043 Br
ENDROOT
BRANCH   3   9
HETATM    9  C   LIG     1      17.984  37.141  20.562  1.00  0.00     0.062 A 
HETATM   10  C   LIG     1      19.052  37.006  19.654  1.00  0.00     0.032 A 
HETATM   11  C   LIG     1      19.977  38.043  19.494  1.00  0.00     0.002 A 
HETATM   12  C   LIG     1      19.841  39.224  20.228  1.00  0.00     0.000 A 
HETATM   13  C   LIG     1      18.776  39.373  21.120  1.00  0.00     0.002 A 
HETATM   14  C   LIG     1      17.847  38.339  21.283  1.00  0.00     0.032 A 
ENDBRANCH   3   9
BRANCH   6  15
HETATM   15  N   LIG     1      14.163  33.086  21.423  1.00  0.00    -0.397 N 
HETATM   16  H   LIG     1      14.307  32.091  21.145  1.00  0.00     0.156 HD
HETATM   17  H   LIG     1      13.271  33.325  21.911  1.00  0.00     0.156 HD
ENDBRANCH   6  15
TORSDOF 2
ENDMDL
MODEL 12
REMARK VINA RESULT:      -5.6      2.606      3.266
REMARK  2 active torsions:
REMARK  status: ('A' for Active; 'I' for Inactive)
REMARK    1  A    between atoms: N_3  and  C_4 
REMARK    2  A    between atoms: C_12  and  N_13 
ROOT
HETATM    1  O   LIG     1      14.230  30.766  18.408  1.00  0.00    -0.265 OA
HETATM    2  C   LIG     1      14.597  31.863  17.906  1.00  0.00     0.288 A 
HETATM    3  N   LIG     1      14.689  32.014  16.545  1.00  0.00    -0.197 N 
HETATM    4  N   LIG     1      15.130  33.162  16.022  1.00  0.00    -0.174 NA
HETATM    5  C   LIG     1      15.480  34.221  16.793  1.00  0.00     0.169 A 
HETATM    6  C   LIG     1      15.385  34.133  18.181  1.00  0.00     0.068 A 
HETATM    7  C   LIG     1      14.938  32.930  18.750  1.00  0.00     0.108 A 
HETATM    8 BR   LIG     1      14.795  32.707  20.655  1.00  0.00    -0.043 Br
ENDROOT
BRANCH   3   9
HETATM    9  C   LIG     1      14.339  30.949  15.640  1.00  0.00     0.062 A 
HETATM   10  C   LIG     1      13.008  30.501  15.532  1.00  0.00     0.032 A 
HETATM   11  C   LIG     1      12.678  29.482  14.632  1.00  0.00     0.002 A 
HETATM   12  C   LIG     1      13.667  28.910  13.828  1.00  0.00     0.000 A 
HETATM   13  C   LIG     1      14.987  29.359  13.917  1.00  0.00     0.002 A 
HETATM   14  C   LIG     1      15.321  30.379  14.814  1.00  0.00     0.032 A 
ENDBRANCH   3   9
BRANCH   6  15
HETATM   15  N   LIG     1      15.752  35.261  18.987  1.00  0.00    -0.397 N 
HETATM   16  H   LIG     1      16.210  36.106  18.582  1.00  0.00     0.156 HD
HETATM   17  H   LIG     1      15.568  35.259  20.015  1.00  0.00     0.156 HD
ENDBRANCH   6  15
TORSDOF 2
ENDMDL
MODEL 13
REMARK VINA RESULT:      -5.4      5.153      8.549
REMARK  2 active torsions:
REMARK  status: ('A' for Active; 'I' for Inactive)
REMARK    1  A    between atoms: N_3  and  C_4 
REMARK    2  A    between atoms: C_12  and  N_13 
ROOT
HETATM    1  O   LIG     1      15.809  33.471  21.445  1.00  0.00    -0.265 OA
HETATM    2  C   LIG     1      15.678  33.683  20.208  1.00  0.00     0.288 A 
HETATM    3  N   LIG     1      15.986  34.908  19.673  1.00  0.00    -0.197 N 
HETATM    4  N   LIG     1      15.794  35.142  18.371  1.00  0.00    -0.174 NA
HETATM    5  C   LIG     1      15.319  34.193  17.527  1.00  0.00     0.169 A 
HETATM    6  C   LIG     1      15.010  32.922  18.012  1.00  0.00     0.068 A 
HETATM    7  C   LIG     1      15.191  32.662  19.379  1.00  0.00     0.108 A 
HETATM    8 BR   LIG     1      14.774  30.947  20.144  1.00  0.00    -0.043 Br
ENDROOT
BRANCH   3   9
HETATM    9  C   LIG     1      16.500  35.981  20.483  1.00  0.00     0.062 A 
HETATM   10  C   LIG     1      15.814  36.409  21.637  1.00  0.00     0.032 A 
HETATM   11  C   LIG     1      16.337  37.437  22.427  1.00  0.00     0.002 A 
HETATM   12  C   LIG     1      17.550  38.040  22.083  1.00  0.00     0.000 A 
HETATM   13  C   LIG     1      18.245  37.611  20.949  1.00  0.00     0.002 A 
HETATM   14  C   LIG     1      17.727  36.582  20.156  1.00  0.00     0.032 A 
ENDBRANCH   3   9
BRANCH   6  15
HETATM   15  N   LIG     1      14.513  31.924  17.111  1.00  0.00    -0.397 N 
HETATM   16  H   LIG     1      14.340  30.941  17.413  1.00  0.00     0.156 HD
HETATM   17  H   LIG     1      14.313  32.163  16.114  1.00  0.00     0.156 HD
ENDBRANCH   6  15
TORSDOF 2
ENDMDL
MODEL 14
REMARK VINA RESULT:      -5.3      2.723      4.902
REMARK  2 active torsions:
REMARK  status: ('A' for Active; 'I' for Inactive)
REMARK    1  A    between atoms: N_3  and  C_4 
REMARK    2  A    between atoms: C_12  and  N_13 
ROOT
HETATM    1  O   LIG     1      15.718  30.408  13.300  1.00  0.00    -0.265 OA
HETATM    2  C   LIG     1      15.189  30.929  14.320  1.00  0.00     0.288 A 
HETATM    3  N   LIG     1      15.702  32.080  14.863  1.00  0.00    -0.197 N 
HETATM    4  N   LIG     1      15.170  32.596  15.975  1.00  0.00    -0.174 NA
HETATM    5  C   LIG     1      14.104  32.035  16.596  1.00  0.00     0.169 A 
HETATM    6  C   LIG     1      13.527  30.876  16.076  1.00  0.00     0.068 A 
HETATM    7  C   LIG     1      14.081  30.310  14.917  1.00  0.00     0.108 A 
HETATM    8 BR   LIG     1      13.368  28.703  14.139  1.00  0.00    -0.043 Br
ENDROOT
BRANCH   3   9
HETATM    9  C   LIG     1      16.831  32.756  14.277  1.00  0.00     0.062 A 
HETATM   10  C   LIG     1      18.081  32.772  14.926  1.00  0.00     0.032 A 
HETATM   11  C   LIG     1      19.175  33.412  14.334  1.00  0.00     0.002 A 
HETATM   12  C   LIG     1      19.035  34.032  13.089  1.00  0.00     0.000 A 
HETATM   13  C   LIG     1      17.803  34.007  12.431  1.00  0.00     0.002 A 
HETATM   14  C   LIG     1      16.707  33.367  13.018  1.00  0.00     0.032 A 
ENDBRANCH   3   9
BRANCH   6  15
HETATM   15  N   LIG     1      12.397  30.292  16.737  1.00  0.00    -0.397 N 
HETATM   16  H   LIG     1      12.502  29.579  17.491  1.00  0.00     0.156 HD
HETATM   17  H   LIG     1      11.426  30.571  16.471  1.00  0.00     0.156 HD
ENDBRANCH   6  15
TORSDOF 2
ENDMDL
MODEL 15
REMARK VINA RESULT:      -5.3      9.875     11.199
REMARK  2 active torsions:
REMARK  status: ('A' for Active; 'I' for Inactive)
REMARK    1  A    between atoms: N_3  and  C_4 
REMARK    2  A    between atoms: C_12  and  N_13 
ROOT
HETATM    1  O   LIG     1      17.771  35.617  21.617  1.00  0.00    -0.265 OA
HETATM    2  C   LIG     1      17.997  36.854  21.720  1.00  0.00     0.288 A 
HETATM    3  N   LIG     1      17.992  37.465  22.948  1.00  0.00    -0.197 N 
HETATM    4  N   LIG     1      18.179  38.785  23.045  1.00  0.00    -0.174 NA
HETATM    5  C   LIG     1      18.402  39.566  21.959  1.00  0.00     0.169 A 
HETATM    6  C   LIG     1      18.439  38.995  20.687  1.00  0.00     0.068 A 
HETATM    7  C   LIG     1      18.230  37.613  20.564  1.00  0.00     0.108 A 
HETATM    8 BR   LIG     1      18.243  36.739  18.851  1.00  0.00    -0.043 Br
ENDROOT
BRANCH   3   9
HETATM    9  C   LIG     1      17.768  36.724  24.162  1.00  0.00     0.062 A 
HETATM   10  C   LIG     1      17.135  35.466  24.136  1.00  0.00     0.032 A 
HETATM   11  C   LIG     1      16.945  34.747  25.320  1.00  0.00     0.002 A 
HETATM   12  C   LIG     1      17.393  35.268  26.537  1.00  0.00     0.000 A 
HETATM   13  C   LIG     1      18.037  36.508  26.571  1.00  0.00     0.002 A 
HETATM   14  C   LIG     1      18.230  37.230  25.389  1.00  0.00     0.032 A 
ENDBRANCH   3   9
BRANCH   6  15
HETATM   15  N   LIG     1      18.680  39.829  19.546  1.00  0.00    -0.397 N 
HETATM   16  H   LIG     1      18.911  40.841  19.638  1.00  0.00     0.156 HD
HETATM   17  H   LIG     1      18.625  39.434  18.580  1.00  0.00     0.156 HD
ENDBRANCH   6  15
TORSDOF 2
ENDMDL
MODEL 16
REMARK VINA RESULT:      -5.0      7.625     10.662
REMARK  2 active torsions:
REMARK  status: ('A' for Active; 'I' for Inactive)
REMARK    1  A    between atoms: N_3  and  C_4 
REMARK    2  A    between atoms: C_12  and  N_13 
ROOT
HETATM    1  O   LIG     1      15.795  34.158  22.952  1.00  0.00    -0.265 OA
HETATM    2  C   LIG     1      16.321  34.934  22.108  1.00  0.00     0.288 A 
HETATM    3  N   LIG     1      17.056  36.017  22.516  1.00  0.00    -0.197 N 
HETATM    4  N   LIG     1      17.565  36.864  21.617  1.00  0.00    -0.174 NA
HETATM    5  C   LIG     1      17.404  36.687  20.282  1.00  0.00     0.169 A 
HETATM    6  C   LIG     1      16.683  35.591  19.809  1.00  0.00     0.068 A 
HETATM    7  C   LIG     1      16.129  34.698  20.738  1.00  0.00     0.108 A 
HETATM    8 BR   LIG     1      15.102  33.169  20.181  1.00  0.00    -0.043 Br
ENDROOT
BRANCH   3   9
HETATM    9  C   LIG     1      17.289  36.292  23.911  1.00  0.00     0.062 A 
HETATM   10  C   LIG     1      17.603  35.254  24.810  1.00  0.00     0.032 A 
HETATM   11  C   LIG     1      17.849  35.539  26.157  1.00  0.00     0.002 A 
HETATM   12  C   LIG     1      17.795  36.857  26.617  1.00  0.00     0.000 A 
HETATM   13  C   LIG     1      17.499  37.895  25.729  1.00  0.00     0.002 A 
HETATM   14  C   LIG     1      17.254  37.616  24.380  1.00  0.00     0.032 A 
ENDBRANCH   3   9
BRANCH   6  15
HETATM   15  N   LIG     1      16.522  35.409  18.396  1.00  0.00    -0.397 N 
HETATM   16  H   LIG     1      15.714  34.888  17.992  1.00  0.00     0.156 HD
HETATM   17  H   LIG     1      17.225  35.799  17.728  1.00  0.00     0.156 HD
ENDBRANCH   6  15
TORSDOF 2
ENDMDL
MODEL 17
REMARK VINA RESULT:      -4.9      9.885     10.748
REMARK  2 active torsions:
REMARK  status: ('A' for Active; 'I' for Inactive)
REMARK    1  A    between atoms: N_3  and  C_4 
REMARK    2  A    between atoms: C_12  and  N_13 
ROOT
HETATM    1  O   LIG     1      17.921  36.349  20.312  1.00  0.00    -0.265 OA
HETATM    2  C   LIG     1      17.795  37.240  21.196  1.00  0.00     0.288 A 
HETATM    3  N   LIG     1      18.247  38.516  20.972  1.00  0.00    -0.197 N 
HETATM    4  N   LIG     1      18.158  39.441  21.933  1.00  0.00    -0.174 NA
HETATM    5  C   LIG     1      17.607  39.177  23.143  1.00  0.00     0.169 A 
HETATM    6  C   LIG     1      17.110  37.903  23.419  1.00  0.00     0.068 A 
HETATM    7  C   LIG     1      17.208  36.915  22.428  1.00  0.00     0.108 A 
HETATM    8 BR   LIG     1      16.571  35.124  22.723  1.00  0.00    -0.043 Br
ENDROOT
BRANCH   3   9
HETATM    9  C   LIG     1      18.844  38.898  19.719  1.00  0.00     0.062 A 
HETATM   10  C   LIG     1      20.232  38.776  19.513  1.00  0.00     0.032 A 
HETATM   11  C   LIG     1      20.796  39.130  18.283  1.00  0.00     0.002 A 
HETATM   12  C   LIG     1      19.983  39.597  17.247  1.00  0.00     0.000 A 
HETATM   13  C   LIG     1      18.603  39.706  17.437  1.00  0.00     0.002 A 
HETATM   14  C   LIG     1      18.034  39.352  18.665  1.00  0.00     0.032 A 
ENDBRANCH   3   9
BRANCH   6  15
HETATM   15  N   LIG     1      16.525  37.636  24.700  1.00  0.00    -0.397 N 
HETATM   16  H   LIG     1      17.058  37.754  25.589  1.00  0.00     0.156 HD
HETATM   17  H   LIG     1      15.536  37.308  24.772  1.00  0.00     0.156 HD
ENDBRANCH   6  15
TORSDOF 2
ENDMDL
MODEL 18
REMARK VINA RESULT:      -4.9     23.468     24.955
REMARK  2 active torsions:
REMARK  status: ('A' for Active; 'I' for Inactive)
REMARK    1  A    between atoms: N_3  and  C_4 
REMARK    2  A    between atoms: C_12  and  N_13 
ROOT
HETATM    1  O   LIG     1      26.775  29.545  34.184  1.00  0.00    -0.265 OA
HETATM    2  C   LIG     1      26.917  28.518  34.903  1.00  0.00     0.288 A 
HETATM    3  N   LIG     1      27.155  28.634  36.249  1.00  0.00    -0.197 N 
HETATM    4  N   LIG     1      27.358  27.543  36.994  1.00  0.00    -0.174 NA
HETATM    5  C   LIG     1      27.316  26.292  36.472  1.00  0.00     0.169 A 
HETATM    6  C   LIG     1      27.056  26.113  35.114  1.00  0.00     0.068 A 
HETATM    7  C   LIG     1      26.855  27.247  34.312  1.00  0.00     0.108 A 
HETATM    8 BR   LIG     1      26.511  27.101  32.426  1.00  0.00    -0.043 Br
ENDROOT
BRANCH   3   9
HETATM    9  C   LIG     1      27.215  29.917  36.899  1.00  0.00     0.062 A 
HETATM   10  C   LIG     1      28.400  30.679  36.888  1.00  0.00     0.032 A 
HETATM   11  C   LIG     1      28.437  31.934  37.504  1.00  0.00     0.002 A 
HETATM   12  C   LIG     1      27.294  32.445  38.126  1.00  0.00     0.000 A 
HETATM   13  C   LIG     1      26.110  31.703  38.128  1.00  0.00     0.002 A 
HETATM   14  C   LIG     1      26.067  30.448  37.512  1.00  0.00     0.032 A 
ENDBRANCH   3   9
BRANCH   6  15
HETATM   15  N   LIG     1      27.009  24.786  34.573  1.00  0.00    -0.397 N 
HETATM   16  H   LIG     1      26.112  24.269  34.450  1.00  0.00     0.156 HD
HETATM   17  H   LIG     1      27.889  24.298  34.289  1.00  0.00     0.156 HD
ENDBRANCH   6  15
TORSDOF 2
ENDMDL
MODEL 19
REMARK VINA RESULT:      -4.9      9.355     11.040
REMARK  2 active torsions:
REMARK  status: ('A' for Active; 'I' for Inactive)
REMARK    1  A    between atoms: N_3  and  C_4 
REMARK    2  A    between atoms: C_12  and  N_13 
ROOT
HETATM    1  O   LIG     1      17.569  35.608  22.244  1.00  0.00    -0.265 OA
HETATM    2  C   LIG     1      17.628  36.646  22.959  1.00  0.00     0.288 A 
HETATM    3  N   LIG     1      17.965  37.856  22.409  1.00  0.00    -0.197 N 
HETATM    4  N   LIG     1      18.078  38.940  23.182  1.00  0.00    -0.174 NA
HETATM    5  C   LIG     1      17.845  38.904  24.518  1.00  0.00     0.169 A 
HETATM    6  C   LIG     1      17.478  37.705  25.128  1.00  0.00     0.068 A 
HETATM    7  C   LIG     1      17.369  36.553  24.335  1.00  0.00     0.108 A 
HETATM    8 BR   LIG     1      16.888  34.850  25.089  1.00  0.00    -0.043 Br
ENDROOT
BRANCH   3   9
HETATM    9  C   LIG     1      18.228  38.001  21.000  1.00  0.00     0.062 A 
HETATM   10  C   LIG     1      18.525  39.261  20.446  1.00  0.00     0.032 A 
HETATM   11  C   LIG     1      18.801  39.383  19.080  1.00  0.00     0.002 A 
HETATM   12  C   LIG     1      18.794  38.252  18.259  1.00  0.00     0.000 A 
HETATM   13  C   LIG     1      18.516  36.995  18.804  1.00  0.00     0.002 A 
HETATM   14  C   LIG     1      18.241  36.868  20.169  1.00  0.00     0.032 A 
ENDBRANCH   3   9
BRANCH   6  15
HETATM   15  N   LIG     1      17.229  37.679  26.540  1.00  0.00    -0.397 N 
HETATM   16  H   LIG     1      16.446  37.129  26.955  1.00  0.00     0.156 HD
HETATM   17  H   LIG     1      17.836  38.221  27.195  1.00  0.00     0.156 HD
ENDBRANCH   6  15
TORSDOF 2
ENDMDL
MODEL 20
REMARK VINA RESULT:      -4.9      2.072      2.774
REMARK  2 active torsions:
REMARK  status: ('A' for Active; 'I' for Inactive)
REMARK    1  A    between atoms: N_3  and  C_4 
REMARK    2  A    between atoms: C_12  and  N_13 
ROOT
HETATM    1  O   LIG     1      13.290  30.318  16.637  1.00  0.00    -0.265 OA
HETATM    2  C   LIG     1      14.115  30.820  15.825  1.00  0.00     0.288 A 
HETATM    3  N   LIG     1      14.236  30.321  14.554  1.00  0.00    -0.197 N 
HETATM    4  N   LIG     1      15.150  30.822  13.717  1.00  0.00    -0.174 NA
HETATM    5  C   LIG     1      15.969  31.844  14.067  1.00  0.00     0.169 A 
HETATM    6  C   LIG     1      15.875  32.406  15.340  1.00  0.00     0.068 A 
HETATM    7  C   LIG     1      14.932  31.883  16.238  1.00  0.00     0.108 A 
HETATM    8 BR   LIG     1      14.743  32.578  18.021  1.00  0.00    -0.043 Br
ENDROOT
BRANCH   3   9
HETATM    9  C   LIG     1      13.411  29.238  14.083  1.00  0.00     0.062 A 
HETATM   10  C   LIG     1      12.060  29.452  13.747  1.00  0.00     0.032 A 
HETATM   11  C   LIG     1      11.277  28.396  13.270  1.00  0.00     0.002 A 
HETATM   12  C   LIG     1      11.834  27.124  13.114  1.00  0.00     0.000 A 
HETATM   13  C   LIG     1      13.177  26.906  13.430  1.00  0.00     0.002 A 
HETATM   14  C   LIG     1      13.965  27.959  13.906  1.00  0.00     0.032 A 
ENDBRANCH   3   9
BRANCH   6  15
HETATM   15  N   LIG     1      16.742  33.490  15.699  1.00  0.00    -0.397 N 
HETATM   16  H   LIG     1      16.631  34.016  16.593  1.00  0.00     0.156 HD
HETATM   17  H   LIG     1      17.515  33.784  15.060  1.00  0.00     0.156 HD
ENDBRANCH   6  15
TORSDOF 2
ENDMDL
