REMARK  2 active torsions:
REMARK  status: ('A' for Active; 'I' for Inactive)
REMARK    1  A    between atoms: N_3  and  C_4 
REMARK    2  A    between atoms: C_12  and  N_13 
ROOT
HETATM    1  O   LIG     1      -0.420  -0.725   2.110  1.00  0.00    -0.265 OA
HETATM    2  C   LIG     1      -0.990  -0.481   1.011  1.00  0.00     0.288 A 
HETATM    3  N   LIG     1      -0.272  -0.013  -0.060  1.00  0.00    -0.197 N 
HETATM    4  N   LIG     1      -0.891   0.294  -1.204  1.00  0.00    -0.174 NA
HETATM    5  C   LIG     1      -2.228   0.139  -1.368  1.00  0.00     0.169 A 
HETATM    6  C   LIG     1      -3.005  -0.354  -0.320  1.00  0.00     0.068 A 
HETATM    7  C   LIG     1      -2.375  -0.668   0.894  1.00  0.00     0.108 A 
HETATM    8 BR   LIG     1      -3.366  -1.334   2.402  1.00  0.00    -0.043 Br
ENDROOT
BRANCH   3   9
HETATM    9  C   LIG     1       1.153   0.183   0.011  1.00  0.00     0.062 A 
HETATM   10  C   LIG     1       2.001  -0.838   0.482  1.00  0.00     0.032 A 
HETATM   11  C   LIG     1       3.385  -0.642   0.524  1.00  0.00     0.002 A 
HETATM   12  C   LIG     1       3.936   0.566   0.088  1.00  0.00     0.000 A 
HETATM   13  C   LIG     1       3.104   1.579  -0.396  1.00  0.00     0.002 A 
HETATM   14  C   LIG     1       1.719   1.387  -0.441  1.00  0.00     0.032 A 
ENDBRANCH   3   9
BRANCH   6  15
HETATM   15  N   LIG     1      -4.417  -0.519  -0.505  1.00  0.00    -0.397 N 
HETATM   16  H   LIG     1      -5.036  -0.886   0.250  1.00  0.00     0.156 HD
HETATM   17  H   LIG     1      -4.864  -0.274  -1.417  1.00  0.00     0.156 HD
ENDBRANCH   6  15
TORSDOF 2
