MODEL 1
REMARK VINA RESULT:      -6.2      0.000      0.000
REMARK  1 active torsions:
REMARK  status: ('A' for Active; 'I' for Inactive)
REMARK    1  A    between atoms: O_2  and  C_3 
ROOT
HETATM    1  C   LIG     1      16.723  36.094  22.793  1.00  0.00     0.198 A 
HETATM    2  C   LIG     1      17.166  36.096  24.117  1.00  0.00     0.157 A 
HETATM    3  N   LIG     1      17.455  34.943  24.776  1.00  0.00    -0.251 NA
HETATM    4  C   LIG     1      17.885  34.967  26.067  1.00  0.00     0.137 A 
HETATM    5  C   LIG     1      18.031  36.194  26.723  1.00  0.00     0.138 A 
HETATM    6  N   LIG     1      17.743  37.348  26.065  1.00  0.00    -0.238 NA
HETATM    7  C   LIG     1      17.314  37.328  24.776  1.00  0.00     0.183 A 
HETATM    8  N   LIG     1      17.027  38.484  24.125  1.00  0.00    -0.220 NA
HETATM    9  C   LIG     1      16.597  38.465  22.836  1.00  0.00     0.238 A 
HETATM   10  N   LIG     1      16.448  37.280  22.182  1.00  0.00    -0.216 NA
ENDROOT
BRANCH   1  11
HETATM   11  O   LIG     1      16.566  34.884  22.109  1.00  0.00    -0.338 OA
HETATM   12  C   LIG     1      15.638  34.715  21.045  1.00  0.00     0.211 C 
ENDBRANCH   1  11
TORSDOF 1
ENDMDL
MODEL 2
REMARK VINA RESULT:      -5.9      2.658      4.897
REMARK  1 active torsions:
REMARK  status: ('A' for Active; 'I' for Inactive)
REMARK    1  A    between atoms: O_2  and  C_3 
ROOT
HETATM    1  C   LIG     1      16.847  37.361  22.624  1.00  0.00     0.198 A 
HETATM    2  C   LIG     1      17.694  37.796  21.603  1.00  0.00     0.157 A 
HETATM    3  N   LIG     1      18.259  39.032  21.620  1.00  0.00    -0.251 NA
HETATM    4  C   LIG     1      19.081  39.437  20.613  1.00  0.00     0.137 A 
HETATM    5  C   LIG     1      19.347  38.570  19.549  1.00  0.00     0.138 A 
HETATM    6  N   LIG     1      18.783  37.333  19.530  1.00  0.00    -0.238 NA
HETATM    7  C   LIG     1      17.962  36.925  20.534  1.00  0.00     0.183 A 
HETATM    8  N   LIG     1      17.401  35.689  20.509  1.00  0.00    -0.220 NA
HETATM    9  C   LIG     1      16.580  35.281  21.511  1.00  0.00     0.238 A 
HETATM   10  N   LIG     1      16.309  36.111  22.555  1.00  0.00    -0.216 NA
ENDROOT
BRANCH   1  11
HETATM   11  O   LIG     1      16.561  38.205  23.703  1.00  0.00    -0.338 OA
HETATM   12  C   LIG     1      17.167  38.055  24.980  1.00  0.00     0.211 C 
ENDBRANCH   1  11
TORSDOF 1
ENDMDL
MODEL 3
REMARK VINA RESULT:      -5.8      2.607      4.397
REMARK  1 active torsions:
REMARK  status: ('A' for Active; 'I' for Inactive)
REMARK    1  A    between atoms: O_2  and  C_3 
ROOT
HETATM    1  C   LIG     1      17.492  38.431  22.717  1.00  0.00     0.198 A 
HETATM    2  C   LIG     1      17.081  37.331  21.961  1.00  0.00     0.157 A 
HETATM    3  N   LIG     1      16.075  36.515  22.374  1.00  0.00    -0.251 NA
HETATM    4  C   LIG     1      15.690  35.448  21.622  1.00  0.00     0.137 A 
HETATM    5  C   LIG     1      16.338  35.188  20.410  1.00  0.00     0.138 A 
HETATM    6  N   LIG     1      17.345  36.003  19.996  1.00  0.00    -0.238 NA
HETATM    7  C   LIG     1      17.731  37.069  20.744  1.00  0.00     0.183 A 
HETATM    8  N   LIG     1      18.738  37.878  20.325  1.00  0.00    -0.220 NA
HETATM    9  C   LIG     1      19.125  38.945  21.072  1.00  0.00     0.238 A 
HETATM   10  N   LIG     1      18.506  39.214  22.254  1.00  0.00    -0.216 NA
ENDROOT
BRANCH   1  11
HETATM   11  O   LIG     1      16.864  38.718  23.934  1.00  0.00    -0.338 OA
HETATM   12  C   LIG     1      17.329  38.212  25.179  1.00  0.00     0.211 C 
ENDBRANCH   1  11
TORSDOF 1
ENDMDL
MODEL 4
REMARK VINA RESULT:      -5.7      2.737      4.108
REMARK  1 active torsions:
REMARK  status: ('A' for Active; 'I' for Inactive)
REMARK    1  A    between atoms: O_2  and  C_3 
ROOT
HETATM    1  C   LIG     1      16.785  36.124  21.149  1.00  0.00     0.198 A 
HETATM    2  C   LIG     1      17.778  37.030  20.771  1.00  0.00     0.157 A 
HETATM    3  N   LIG     1      18.646  36.760  19.761  1.00  0.00    -0.251 NA
HETATM    4  C   LIG     1      19.607  37.657  19.409  1.00  0.00     0.137 A 
HETATM    5  C   LIG     1      19.702  38.872  20.096  1.00  0.00     0.138 A 
HETATM    6  N   LIG     1      18.834  39.144  21.106  1.00  0.00    -0.238 NA
HETATM    7  C   LIG     1      17.872  38.251  21.460  1.00  0.00     0.183 A 
HETATM    8  N   LIG     1      17.010  38.529  22.470  1.00  0.00    -0.220 NA
HETATM    9  C   LIG     1      16.049  37.636  22.825  1.00  0.00     0.238 A 
HETATM   10  N   LIG     1      15.941  36.448  22.169  1.00  0.00    -0.216 NA
ENDROOT
BRANCH   1  11
HETATM   11  O   LIG     1      16.664  34.900  20.482  1.00  0.00    -0.338 OA
HETATM   12  C   LIG     1      15.562  34.023  20.676  1.00  0.00     0.211 C 
ENDBRANCH   1  11
TORSDOF 1
ENDMDL
MODEL 5
REMARK VINA RESULT:      -5.5      7.693     10.260
REMARK  1 active torsions:
REMARK  status: ('A' for Active; 'I' for Inactive)
REMARK    1  A    between atoms: O_2  and  C_3 
ROOT
HETATM    1  C   LIG     1      15.159  32.450  16.642  1.00  0.00     0.198 A 
HETATM    2  C   LIG     1      15.959  32.724  15.531  1.00  0.00     0.157 A 
HETATM    3  N   LIG     1      16.864  33.739  15.535  1.00  0.00    -0.251 NA
HETATM    4  C   LIG     1      17.634  33.990  14.442  1.00  0.00     0.137 A 
HETATM    5  C   LIG     1      17.491  33.195  13.299  1.00  0.00     0.138 A 
HETATM    6  N   LIG     1      16.586  32.180  13.294  1.00  0.00    -0.238 NA
HETATM    7  C   LIG     1      15.816  31.926  14.385  1.00  0.00     0.183 A 
HETATM    8  N   LIG     1      14.915  30.911  14.372  1.00  0.00    -0.220 NA
HETATM    9  C   LIG     1      14.144  30.657  15.462  1.00  0.00     0.238 A 
HETATM   10  N   LIG     1      14.268  31.420  16.582  1.00  0.00    -0.216 NA
ENDROOT
BRANCH   1  11
HETATM   11  O   LIG     1      15.277  33.227  17.799  1.00  0.00    -0.338 OA
HETATM   12  C   LIG     1      15.264  32.668  19.107  1.00  0.00     0.211 C 
ENDBRANCH   1  11
TORSDOF 1
ENDMDL
MODEL 6
REMARK VINA RESULT:      -5.5      1.672      2.877
REMARK  1 active torsions:
REMARK  status: ('A' for Active; 'I' for Inactive)
REMARK    1  A    between atoms: O_2  and  C_3 
ROOT
HETATM    1  C   LIG     1      17.173  37.545  22.714  1.00  0.00     0.198 A 
HETATM    2  C   LIG     1      17.401  36.883  23.922  1.00  0.00     0.157 A 
HETATM    3  N   LIG     1      17.845  37.541  25.025  1.00  0.00    -0.251 NA
HETATM    4  C   LIG     1      18.061  36.877  26.193  1.00  0.00     0.137 A 
HETATM    5  C   LIG     1      17.823  35.500  26.259  1.00  0.00     0.138 A 
HETATM    6  N   LIG     1      17.379  34.841  25.156  1.00  0.00    -0.238 NA
HETATM    7  C   LIG     1      17.161  35.501  23.988  1.00  0.00     0.183 A 
HETATM    8  N   LIG     1      16.718  34.835  22.891  1.00  0.00    -0.220 NA
HETATM    9  C   LIG     1      16.501  35.495  21.723  1.00  0.00     0.238 A 
HETATM   10  N   LIG     1      16.727  36.834  21.640  1.00  0.00    -0.216 NA
ENDROOT
BRANCH   1  11
HETATM   11  O   LIG     1      17.402  38.921  22.616  1.00  0.00    -0.338 OA
HETATM   12  C   LIG     1      18.401  39.478  21.771  1.00  0.00     0.211 C 
ENDBRANCH   1  11
TORSDOF 1
ENDMDL
MODEL 7
REMARK VINA RESULT:      -5.5      9.330     10.569
REMARK  1 active torsions:
REMARK  status: ('A' for Active; 'I' for Inactive)
REMARK    1  A    between atoms: O_2  and  C_3 
ROOT
HETATM    1  C   LIG     1      15.001  30.911  14.644  1.00  0.00     0.198 A 
HETATM    2  C   LIG     1      15.878  31.997  14.581  1.00  0.00     0.157 A 
HETATM    3  N   LIG     1      16.720  32.175  13.529  1.00  0.00    -0.251 NA
HETATM    4  C   LIG     1      17.567  33.240  13.486  1.00  0.00     0.137 A 
HETATM    5  C   LIG     1      17.570  34.161  14.539  1.00  0.00     0.138 A 
HETATM    6  N   LIG     1      16.728  33.984  15.591  1.00  0.00    -0.238 NA
HETATM    7  C   LIG     1      15.881  32.922  15.637  1.00  0.00     0.183 A 
HETATM    8  N   LIG     1      15.043  32.752  16.691  1.00  0.00    -0.220 NA
HETATM    9  C   LIG     1      14.196  31.690  16.737  1.00  0.00     0.238 A 
HETATM   10  N   LIG     1      14.179  30.783  15.723  1.00  0.00    -0.216 NA
ENDROOT
BRANCH   1  11
HETATM   11  O   LIG     1      14.974  29.972  13.608  1.00  0.00    -0.338 OA
HETATM   12  C   LIG     1      15.256  28.593  13.811  1.00  0.00     0.211 C 
ENDBRANCH   1  11
TORSDOF 1
ENDMDL
MODEL 8
REMARK VINA RESULT:      -5.5      1.574      3.626
REMARK  1 active torsions:
REMARK  status: ('A' for Active; 'I' for Inactive)
REMARK    1  A    between atoms: O_2  and  C_3 
ROOT
HETATM    1  C   LIG     1      17.273  36.343  25.130  1.00  0.00     0.198 A 
HETATM    2  C   LIG     1      17.131  36.262  23.743  1.00  0.00     0.157 A 
HETATM    3  N   LIG     1      17.051  35.066  23.102  1.00  0.00    -0.251 NA
HETATM    4  C   LIG     1      16.913  35.009  21.749  1.00  0.00     0.137 A 
HETATM    5  C   LIG     1      16.855  36.196  21.010  1.00  0.00     0.138 A 
HETATM    6  N   LIG     1      16.936  37.392  21.651  1.00  0.00    -0.238 NA
HETATM    7  C   LIG     1      17.072  37.453  23.002  1.00  0.00     0.183 A 
HETATM    8  N   LIG     1      17.153  38.651  23.634  1.00  0.00    -0.220 NA
HETATM    9  C   LIG     1      17.289  38.713  24.985  1.00  0.00     0.238 A 
HETATM   10  N   LIG     1      17.348  37.569  25.720  1.00  0.00    -0.216 NA
ENDROOT
BRANCH   1  11
HETATM   11  O   LIG     1      17.334  35.175  25.897  1.00  0.00    -0.338 OA
HETATM   12  C   LIG     1      18.542  34.695  26.474  1.00  0.00     0.211 C 
ENDBRANCH   1  11
TORSDOF 1
ENDMDL
MODEL 9
REMARK VINA RESULT:      -5.4      8.609     10.626
REMARK  1 active torsions:
REMARK  status: ('A' for Active; 'I' for Inactive)
REMARK    1  A    between atoms: O_2  and  C_3 
ROOT
HETATM    1  C   LIG     1      16.570  32.774  15.108  1.00  0.00     0.198 A 
HETATM    2  C   LIG     1      15.745  31.670  14.883  1.00  0.00     0.157 A 
HETATM    3  N   LIG     1      16.058  30.719  13.964  1.00  0.00    -0.251 NA
HETATM    4  C   LIG     1      15.240  29.650  13.759  1.00  0.00     0.137 A 
HETATM    5  C   LIG     1      14.062  29.530  14.505  1.00  0.00     0.138 A 
HETATM    6  N   LIG     1      13.747  30.481  15.424  1.00  0.00    -0.238 NA
HETATM    7  C   LIG     1      14.563  31.549  15.632  1.00  0.00     0.183 A 
HETATM    8  N   LIG     1      14.242  32.494  16.551  1.00  0.00    -0.220 NA
HETATM    9  C   LIG     1      15.056  33.562  16.759  1.00  0.00     0.238 A 
HETATM   10  N   LIG     1      16.206  33.696  16.043  1.00  0.00    -0.216 NA
ENDROOT
BRANCH   1  11
HETATM   11  O   LIG     1      17.754  32.923  14.379  1.00  0.00    -0.338 OA
HETATM   12  C   LIG     1      17.935  33.940  13.402  1.00  0.00     0.211 C 
ENDBRANCH   1  11
TORSDOF 1
ENDMDL
MODEL 10
REMARK VINA RESULT:      -5.4      8.247     10.032
REMARK  1 active torsions:
REMARK  status: ('A' for Active; 'I' for Inactive)
REMARK    1  A    between atoms: O_2  and  C_3 
ROOT
HETATM    1  C   LIG     1      15.618  31.395  14.047  1.00  0.00     0.198 A 
HETATM    2  C   LIG     1      15.278  31.809  15.336  1.00  0.00     0.157 A 
HETATM    3  N   LIG     1      14.312  31.181  16.058  1.00  0.00    -0.251 NA
HETATM    4  C   LIG     1      13.996  31.601  17.313  1.00  0.00     0.137 A 
HETATM    5  C   LIG     1      14.672  32.693  17.867  1.00  0.00     0.138 A 
HETATM    6  N   LIG     1      15.638  33.322  17.146  1.00  0.00    -0.238 NA
HETATM    7  C   LIG     1      15.958  32.905  15.892  1.00  0.00     0.183 A 
HETATM    8  N   LIG     1      16.923  33.538  15.179  1.00  0.00    -0.220 NA
HETATM    9  C   LIG     1      17.242  33.122  13.925  1.00  0.00     0.238 A 
HETATM   10  N   LIG     1      16.594  32.062  13.370  1.00  0.00    -0.216 NA
ENDROOT
BRANCH   1  11
HETATM   11  O   LIG     1      14.959  30.306  13.465  1.00  0.00    -0.338 OA
HETATM   12  C   LIG     1      15.350  28.958  13.693  1.00  0.00     0.211 C 
ENDBRANCH   1  11
TORSDOF 1
ENDMDL
MODEL 11
REMARK VINA RESULT:      -5.4      8.162     10.246
REMARK  1 active torsions:
REMARK  status: ('A' for Active; 'I' for Inactive)
REMARK    1  A    between atoms: O_2  and  C_3 
ROOT
HETATM    1  C   LIG     1      16.353  32.543  14.444  1.00  0.00     0.198 A 
HETATM    2  C   LIG     1      15.611  32.297  15.601  1.00  0.00     0.157 A 
HETATM    3  N   LIG     1      15.720  33.087  16.702  1.00  0.00    -0.251 NA
HETATM    4  C   LIG     1      14.987  32.829  17.819  1.00  0.00     0.137 A 
HETATM    5  C   LIG     1      14.112  31.738  17.835  1.00  0.00     0.138 A 
HETATM    6  N   LIG     1      14.002  30.948  16.734  1.00  0.00    -0.238 NA
HETATM    7  C   LIG     1      14.731  31.202  15.616  1.00  0.00     0.183 A 
HETATM    8  N   LIG     1      14.617  30.409  14.521  1.00  0.00    -0.220 NA
HETATM    9  C   LIG     1      15.346  30.662  13.403  1.00  0.00     0.238 A 
HETATM   10  N   LIG     1      16.203  31.719  13.370  1.00  0.00    -0.216 NA
ENDROOT
BRANCH   1  11
HETATM   11  O   LIG     1      17.238  33.626  14.397  1.00  0.00    -0.338 OA
HETATM   12  C   LIG     1      18.240  33.760  13.397  1.00  0.00     0.211 C 
ENDBRANCH   1  11
TORSDOF 1
ENDMDL
MODEL 12
REMARK VINA RESULT:      -5.4      2.451      3.375
REMARK  1 active torsions:
REMARK  status: ('A' for Active; 'I' for Inactive)
REMARK    1  A    between atoms: O_2  and  C_3 
ROOT
HETATM    1  C   LIG     1      17.461  36.184  20.403  1.00  0.00     0.198 A 
HETATM    2  C   LIG     1      17.368  37.051  21.493  1.00  0.00     0.157 A 
HETATM    3  N   LIG     1      16.547  36.792  22.545  1.00  0.00    -0.251 NA
HETATM    4  C   LIG     1      16.471  37.651  23.598  1.00  0.00     0.137 A 
HETATM    5  C   LIG     1      17.247  38.815  23.597  1.00  0.00     0.138 A 
HETATM    6  N   LIG     1      18.068  39.075  22.545  1.00  0.00    -0.238 NA
HETATM    7  C   LIG     1      18.147  38.219  21.493  1.00  0.00     0.183 A 
HETATM    8  N   LIG     1      18.969  38.486  20.446  1.00  0.00    -0.220 NA
HETATM    9  C   LIG     1      19.048  37.631  19.393  1.00  0.00     0.238 A 
HETATM   10  N   LIG     1      18.301  36.494  19.376  1.00  0.00    -0.216 NA
ENDROOT
BRANCH   1  11
HETATM   11  O   LIG     1      16.698  35.012  20.374  1.00  0.00    -0.338 OA
HETATM   12  C   LIG     1      15.549  34.860  19.549  1.00  0.00     0.211 C 
ENDBRANCH   1  11
TORSDOF 1
ENDMDL
MODEL 13
REMARK VINA RESULT:      -5.3      7.620     10.323
REMARK  1 active torsions:
REMARK  status: ('A' for Active; 'I' for Inactive)
REMARK    1  A    between atoms: O_2  and  C_3 
ROOT
HETATM    1  C   LIG     1      15.421  33.080  16.364  1.00  0.00     0.198 A 
HETATM    2  C   LIG     1      15.337  32.068  15.405  1.00  0.00     0.157 A 
HETATM    3  N   LIG     1      14.511  31.000  15.564  1.00  0.00    -0.251 NA
HETATM    4  C   LIG     1      14.444  30.024  14.618  1.00  0.00     0.137 A 
HETATM    5  C   LIG     1      15.235  30.122  13.468  1.00  0.00     0.138 A 
HETATM    6  N   LIG     1      16.061  31.190  13.308  1.00  0.00    -0.238 NA
HETATM    7  C   LIG     1      16.130  32.167  14.251  1.00  0.00     0.183 A 
HETATM    8  N   LIG     1      16.958  33.229  14.085  1.00  0.00    -0.220 NA
HETATM    9  C   LIG     1      17.028  34.206  15.027  1.00  0.00     0.238 A 
HETATM   10  N   LIG     1      16.266  34.127  16.152  1.00  0.00    -0.216 NA
ENDROOT
BRANCH   1  11
HETATM   11  O   LIG     1      14.644  33.011  17.525  1.00  0.00    -0.338 OA
HETATM   12  C   LIG     1      15.167  32.593  18.779  1.00  0.00     0.211 C 
ENDBRANCH   1  11
TORSDOF 1
ENDMDL
MODEL 14
REMARK VINA RESULT:      -5.0      2.757      4.178
REMARK  1 active torsions:
REMARK  status: ('A' for Active; 'I' for Inactive)
REMARK    1  A    between atoms: O_2  and  C_3 
ROOT
HETATM    1  C   LIG     1      18.342  37.969  20.861  1.00  0.00     0.198 A 
HETATM    2  C   LIG     1      17.464  36.904  21.071  1.00  0.00     0.157 A 
HETATM    3  N   LIG     1      17.188  36.001  20.094  1.00  0.00    -0.251 NA
HETATM    4  C   LIG     1      16.329  34.970  20.319  1.00  0.00     0.137 A 
HETATM    5  C   LIG     1      15.722  34.839  21.573  1.00  0.00     0.138 A 
HETATM    6  N   LIG     1      15.997  35.742  22.552  1.00  0.00    -0.238 NA
HETATM    7  C   LIG     1      16.855  36.772  22.330  1.00  0.00     0.183 A 
HETATM    8  N   LIG     1      17.124  37.670  23.311  1.00  0.00    -0.220 NA
HETATM    9  C   LIG     1      17.982  38.701  23.090  1.00  0.00     0.238 A 
HETATM   10  N   LIG     1      18.581  38.845  21.877  1.00  0.00    -0.216 NA
ENDROOT
BRANCH   1  11
HETATM   11  O   LIG     1      18.965  38.128  19.618  1.00  0.00    -0.338 OA
HETATM   12  C   LIG     1      20.233  38.752  19.466  1.00  0.00     0.211 C 
ENDBRANCH   1  11
TORSDOF 1
ENDMDL
MODEL 15
REMARK VINA RESULT:      -4.9      6.199      8.219
REMARK  1 active torsions:
REMARK  status: ('A' for Active; 'I' for Inactive)
REMARK    1  A    between atoms: O_2  and  C_3 
ROOT
HETATM    1  C   LIG     1      15.289  32.970  16.398  1.00  0.00     0.198 A 
HETATM    2  C   LIG     1      15.120  32.775  17.771  1.00  0.00     0.157 A 
HETATM    3  N   LIG     1      15.657  33.624  18.686  1.00  0.00    -0.251 NA
HETATM    4  C   LIG     1      15.481  33.416  20.019  1.00  0.00     0.137 A 
HETATM    5  C   LIG     1      14.738  32.312  20.452  1.00  0.00     0.138 A 
HETATM    6  N   LIG     1      14.200  31.461  19.538  1.00  0.00    -0.238 NA
HETATM    7  C   LIG     1      14.373  31.668  18.206  1.00  0.00     0.183 A 
HETATM    8  N   LIG     1      13.834  30.814  17.299  1.00  0.00    -0.220 NA
HETATM    9  C   LIG     1      14.007  31.019  15.967  1.00  0.00     0.238 A 
HETATM   10  N   LIG     1      14.727  32.086  15.527  1.00  0.00    -0.216 NA
ENDROOT
BRANCH   1  11
HETATM   11  O   LIG     1      16.027  34.064  15.933  1.00  0.00    -0.338 OA
HETATM   12  C   LIG     1      17.158  33.924  15.083  1.00  0.00     0.211 C 
ENDBRANCH   1  11
TORSDOF 1
ENDMDL
MODEL 16
REMARK VINA RESULT:      -4.8      2.552      3.786
REMARK  1 active torsions:
REMARK  status: ('A' for Active; 'I' for Inactive)
REMARK    1  A    between atoms: O_2  and  C_3 
ROOT
HETATM    1  C   LIG     1      18.090  37.033  20.390  1.00  0.00     0.198 A 
HETATM    2  C   LIG     1      17.711  37.383  21.688  1.00  0.00     0.157 A 
HETATM    3  N   LIG     1      18.364  38.347  22.389  1.00  0.00    -0.251 NA
HETATM    4  C   LIG     1      17.979  38.672  23.653  1.00  0.00     0.137 A 
HETATM    5  C   LIG     1      16.898  38.005  24.238  1.00  0.00     0.138 A 
HETATM    6  N   LIG     1      16.244  37.039  23.539  1.00  0.00    -0.238 NA
HETATM    7  C   LIG     1      16.626  36.713  22.276  1.00  0.00     0.183 A 
HETATM    8  N   LIG     1      15.968  35.748  21.584  1.00  0.00    -0.220 NA
HETATM    9  C   LIG     1      16.350  35.420  20.321  1.00  0.00     0.238 A 
HETATM   10  N   LIG     1      17.399  36.059  19.736  1.00  0.00    -0.216 NA
ENDROOT
BRANCH   1  11
HETATM   11  O   LIG     1      19.167  37.682  19.777  1.00  0.00    -0.338 OA
HETATM   12  C   LIG     1      18.998  38.708  18.807  1.00  0.00     0.211 C 
ENDBRANCH   1  11
TORSDOF 1
ENDMDL
MODEL 17
REMARK VINA RESULT:      -4.4      9.593     11.459
REMARK  1 active torsions:
REMARK  status: ('A' for Active; 'I' for Inactive)
REMARK    1  A    between atoms: O_2  and  C_3 
ROOT
HETATM    1  C   LIG     1      16.540  32.367  13.718  1.00  0.00     0.198 A 
HETATM    2  C   LIG     1      17.652  32.934  13.091  1.00  0.00     0.157 A 
HETATM    3  N   LIG     1      18.222  32.367  11.995  1.00  0.00    -0.251 NA
HETATM    4  C   LIG     1      19.305  32.935  11.400  1.00  0.00     0.137 A 
HETATM    5  C   LIG     1      19.839  34.118  11.923  1.00  0.00     0.138 A 
HETATM    6  N   LIG     1      19.271  34.686  13.020  1.00  0.00    -0.238 NA
HETATM    7  C   LIG     1      18.188  34.121  13.616  1.00  0.00     0.183 A 
HETATM    8  N   LIG     1      17.626  34.693  14.711  1.00  0.00    -0.220 NA
HETATM    9  C   LIG     1      16.544  34.129  15.309  1.00  0.00     0.238 A 
HETATM   10  N   LIG     1      16.011  32.979  14.814  1.00  0.00    -0.216 NA
ENDROOT
BRANCH   1  11
HETATM   11  O   LIG     1      15.983  31.185  13.219  1.00  0.00    -0.338 OA
HETATM   12  C   LIG     1      15.157  30.332  14.001  1.00  0.00     0.211 C 
ENDBRANCH   1  11
TORSDOF 1
ENDMDL
MODEL 18
REMARK VINA RESULT:      -4.1      9.991     12.033
REMARK  1 active torsions:
REMARK  status: ('A' for Active; 'I' for Inactive)
REMARK    1  A    between atoms: O_2  and  C_3 
ROOT
HETATM    1  C   LIG     1      15.526  31.106  14.920  1.00  0.00     0.198 A 
HETATM    2  C   LIG     1      15.028  29.901  14.420  1.00  0.00     0.157 A 
HETATM    3  N   LIG     1      15.779  29.091  13.628  1.00  0.00    -0.251 NA
HETATM    4  C   LIG     1      15.274  27.921  13.151  1.00  0.00     0.137 A 
HETATM    5  C   LIG     1      13.966  27.548  13.479  1.00  0.00     0.138 A 
HETATM    6  N   LIG     1      13.214  28.358  14.270  1.00  0.00    -0.238 NA
HETATM    7  C   LIG     1      13.715  29.527  14.750  1.00  0.00     0.183 A 
HETATM    8  N   LIG     1      12.957  30.331  15.539  1.00  0.00    -0.220 NA
HETATM    9  C   LIG     1      13.458  31.500  16.018  1.00  0.00     0.238 A 
HETATM   10  N   LIG     1      14.728  31.879  15.710  1.00  0.00    -0.216 NA
ENDROOT
BRANCH   1  11
HETATM   11  O   LIG     1      16.829  31.507  14.611  1.00  0.00    -0.338 OA
HETATM   12  C   LIG     1      17.377  32.747  15.042  1.00  0.00     0.211 C 
ENDBRANCH   1  11
TORSDOF 1
ENDMDL
MODEL 19
REMARK VINA RESULT:      -3.7     11.165     13.132
REMARK  1 active torsions:
REMARK  status: ('A' for Active; 'I' for Inactive)
REMARK    1  A    between atoms: O_2  and  C_3 
ROOT
HETATM    1  C   LIG     1      14.963  27.743  13.315  1.00  0.00     0.198 A 
HETATM    2  C   LIG     1      14.905  28.976  13.969  1.00  0.00     0.157 A 
HETATM    3  N   LIG     1      16.015  29.739  14.154  1.00  0.00    -0.251 NA
HETATM    4  C   LIG     1      15.937  30.937  14.795  1.00  0.00     0.137 A 
HETATM    5  C   LIG     1      14.700  31.388  15.270  1.00  0.00     0.138 A 
HETATM    6  N   LIG     1      13.590  30.624  15.085  1.00  0.00    -0.238 NA
HETATM    7  C   LIG     1      13.664  29.428  14.445  1.00  0.00     0.183 A 
HETATM    8  N   LIG     1      12.551  28.671  14.265  1.00  0.00    -0.220 NA
HETATM    9  C   LIG     1      12.624  27.475  13.625  1.00  0.00     0.238 A 
HETATM   10  N   LIG     1      13.819  27.020  13.157  1.00  0.00    -0.216 NA
ENDROOT
BRANCH   1  11
HETATM   11  O   LIG     1      16.184  27.265  12.829  1.00  0.00    -0.338 OA
HETATM   12  C   LIG     1      16.329  26.699  11.532  1.00  0.00     0.211 C 
ENDBRANCH   1  11
TORSDOF 1
ENDMDL
MODEL 20
REMARK VINA RESULT:      -3.4     19.153     20.445
REMARK  1 active torsions:
REMARK  status: ('A' for Active; 'I' for Inactive)
REMARK    1  A    between atoms: O_2  and  C_3 
ROOT
HETATM    1  C   LIG     1      15.178  19.239  12.389  1.00  0.00     0.198 A 
HETATM    2  C   LIG     1      15.191  19.135  13.782  1.00  0.00     0.157 A 
HETATM    3  N   LIG     1      16.197  19.664  14.529  1.00  0.00    -0.251 NA
HETATM    4  C   LIG     1      16.191  19.552  15.885  1.00  0.00     0.137 A 
HETATM    5  C   LIG     1      15.137  18.884  16.518  1.00  0.00     0.138 A 
HETATM    6  N   LIG     1      14.131  18.354  15.772  1.00  0.00    -0.238 NA
HETATM    7  C   LIG     1      14.133  18.465  14.418  1.00  0.00     0.183 A 
HETATM    8  N   LIG     1      13.125  17.934  13.680  1.00  0.00    -0.220 NA
HETATM    9  C   LIG     1      13.127  18.044  12.325  1.00  0.00     0.238 A 
HETATM   10  N   LIG     1      14.144  18.690  11.692  1.00  0.00    -0.216 NA
ENDROOT
BRANCH   1  11
HETATM   11  O   LIG     1      16.217  19.900  11.727  1.00  0.00    -0.338 OA
HETATM   12  C   LIG     1      15.992  20.968  10.815  1.00  0.00     0.211 C 
ENDBRANCH   1  11
TORSDOF 1
ENDMDL
