REMARK  1 active torsions:
REMARK  status: ('A' for Active; 'I' for Inactive)
REMARK    1  A    between atoms: O_2  and  C_3 
ROOT
HETATM    1  C   LIG     1       0.869  -0.050   0.100  1.00  0.00     0.198 A 
HETATM    2  C   LIG     1      -0.513  -0.069  -0.099  1.00  0.00     0.157 A 
HETATM    3  N   LIG     1      -1.145  -1.152  -0.624  1.00  0.00    -0.251 NA
HETATM    4  C   LIG     1      -2.493  -1.150  -0.810  1.00  0.00     0.137 A 
HETATM    5  C   LIG     1      -3.237  -0.019  -0.457  1.00  0.00     0.138 A 
HETATM    6  N   LIG     1      -2.606   1.065   0.068  1.00  0.00    -0.238 NA
HETATM    7  C   LIG     1      -1.260   1.066   0.256  1.00  0.00     0.183 A 
HETATM    8  N   LIG     1      -0.637   2.152   0.780  1.00  0.00    -0.220 NA
HETATM    9  C   LIG     1       0.709   2.154   0.968  1.00  0.00     0.238 A 
HETATM   10  N   LIG     1       1.449   1.063   0.630  1.00  0.00    -0.216 NA
ENDROOT
BRANCH   1  11
HETATM   11  O   LIG     1       1.641  -1.165  -0.243  1.00  0.00    -0.338 OA
HETATM   12  C   LIG     1       3.051  -1.210  -0.065  1.00  0.00     0.211 C 
ENDBRANCH   1  11
TORSDOF 1
