REMARK  2 active torsions:
REMARK  status: ('A' for Active; 'I' for Inactive)
REMARK       I    between atoms: N_6  and  C_7 
REMARK       I    between atoms: C_7  and  N_8 
REMARK    1  A    between atoms: N_8  and  C_9 
REMARK    2  A    between atoms: C_9  and  C_10 
ROOT
HETATM    1  O   LIG     1      -0.894   0.419   1.964  1.00  0.00    -0.247 OA
HETATM    2  C   LIG     1      -1.767   0.420   1.056  1.00  0.00     0.326 A 
HETATM    3  N   LIG     1      -2.861   1.305   1.039  1.00  0.00    -0.341 N 
HETATM    4  C   LIG     1      -3.712   0.946  -0.087  1.00  0.00     0.145 A 
HETATM    5  C   LIG     1      -3.040  -0.283  -0.751  1.00  0.00     0.158 A 
HETATM    6  N   LIG     1      -1.803  -0.507  -0.009  1.00  0.00    -0.250 N 
HETATM    7  C   LIG     1      -0.922  -1.623  -0.200  1.00  0.00     0.326 C 
HETATM    8  N   LIG     1       0.483  -1.516   0.064  1.00  0.00    -0.342 N 
HETATM    9  O   LIG     1      -1.389  -2.719  -0.611  1.00  0.00    -0.247 OA
HETATM   10  H   LIG     1      -3.042   2.071   1.725  1.00  0.00     0.164 HD
HETATM   11  H   LIG     1       1.007  -2.413   0.186  1.00  0.00     0.164 HD
ENDROOT
BRANCH   8  12
HETATM   12  C   LIG     1       1.250  -0.343  -0.358  1.00  0.00     0.128 C 
BRANCH  12  13
HETATM   13  C   LIG     1       2.593  -0.257   0.393  1.00  0.00    -0.005 C 
HETATM   14  C   LIG     1       2.379  -0.043   1.897  1.00  0.00     0.011 C 
HETATM   15  C   LIG     1       3.454   0.873  -0.184  1.00  0.00     0.011 C 
ENDBRANCH  12  13
ENDBRANCH   8  12
TORSDOF 2
