MODEL 1
REMARK VINA RESULT:      -7.0      0.000      0.000
REMARK  2 active torsions:
REMARK  status: ('A' for Active; 'I' for Inactive)
REMARK       I    between atoms: N_6  and  C_7 
REMARK       I    between atoms: C_7  and  N_8 
REMARK    1  A    between atoms: N_8  and  C_9 
REMARK    2  A    between atoms: C_9  and  C_10 
ROOT
HETATM    1  O   LIG     1      18.175  39.511  22.077  1.00  0.00    -0.247 OA
HETATM    2  C   LIG     1      18.248  38.461  21.385  1.00  0.00     0.326 A 
HETATM    3  N   LIG     1      19.130  38.313  20.299  1.00  0.00    -0.341 N 
HETATM    4  C   LIG     1      18.861  37.025  19.674  1.00  0.00     0.145 A 
HETATM    5  C   LIG     1      17.691  36.401  20.477  1.00  0.00     0.158 A 
HETATM    6  N   LIG     1      17.410  37.338  21.560  1.00  0.00    -0.250 N 
HETATM    7  C   LIG     1      16.314  37.225  22.479  1.00  0.00     0.326 C 
HETATM    8  N   LIG     1      16.401  37.750  23.810  1.00  0.00    -0.342 N 
HETATM    9  O   LIG     1      15.254  36.649  22.113  1.00  0.00    -0.247 OA
HETATM   10  H   LIG     1      19.838  39.012  19.983  1.00  0.00     0.164 HD
HETATM   11  H   LIG     1      15.498  37.896  24.317  1.00  0.00     0.164 HD
ENDROOT
BRANCH   8  12
HETATM   12  C   LIG     1      17.605  37.571  24.622  1.00  0.00     0.128 C 
BRANCH  12  13
HETATM   13  C   LIG     1      17.427  36.422  25.634  1.00  0.00    -0.005 C 
HETATM   14  C   LIG     1      18.526  36.446  26.705  1.00  0.00     0.011 C 
HETATM   15  C   LIG     1      17.425  35.071  24.911  1.00  0.00     0.011 C 
ENDBRANCH  12  13
ENDBRANCH   8  12
TORSDOF 2
ENDMDL
MODEL 2
REMARK VINA RESULT:      -6.6      1.605      4.824
REMARK  2 active torsions:
REMARK  status: ('A' for Active; 'I' for Inactive)
REMARK       I    between atoms: N_6  and  C_7 
REMARK       I    between atoms: C_7  and  N_8 
REMARK    1  A    between atoms: N_8  and  C_9 
REMARK    2  A    between atoms: C_9  and  C_10 
ROOT
HETATM    1  O   LIG     1      17.005  34.703  23.892  1.00  0.00    -0.247 OA
HETATM    2  C   LIG     1      17.328  35.693  24.601  1.00  0.00     0.326 A 
HETATM    3  N   LIG     1      17.953  35.572  25.856  1.00  0.00    -0.341 N 
HETATM    4  C   LIG     1      18.074  36.906  26.428  1.00  0.00     0.145 A 
HETATM    5  C   LIG     1      17.426  37.868  25.401  1.00  0.00     0.158 A 
HETATM    6  N   LIG     1      17.040  37.035  24.266  1.00  0.00    -0.250 N 
HETATM    7  C   LIG     1      16.288  37.489  23.132  1.00  0.00     0.326 C 
HETATM    8  N   LIG     1      16.442  36.880  21.844  1.00  0.00    -0.342 N 
HETATM    9  O   LIG     1      15.477  38.445  23.268  1.00  0.00    -0.247 OA
HETATM   10  H   LIG     1      18.257  34.681  26.307  1.00  0.00     0.164 HD
HETATM   11  H   LIG     1      15.679  37.051  21.149  1.00  0.00     0.164 HD
ENDROOT
BRANCH   8  12
HETATM   12  C   LIG     1      17.764  36.537  21.317  1.00  0.00     0.128 C 
BRANCH  12  13
HETATM   13  C   LIG     1      18.282  37.628  20.360  1.00  0.00    -0.005 C 
HETATM   14  C   LIG     1      19.383  37.086  19.439  1.00  0.00     0.011 C 
HETATM   15  C   LIG     1      18.802  38.831  21.155  1.00  0.00     0.011 C 
ENDBRANCH  12  13
ENDBRANCH   8  12
TORSDOF 2
ENDMDL
MODEL 3
REMARK VINA RESULT:      -6.6      1.366      1.593
REMARK  2 active torsions:
REMARK  status: ('A' for Active; 'I' for Inactive)
REMARK       I    between atoms: N_6  and  C_7 
REMARK       I    between atoms: C_7  and  N_8 
REMARK    1  A    between atoms: N_8  and  C_9 
REMARK    2  A    between atoms: C_9  and  C_10 
ROOT
HETATM    1  O   LIG     1      18.419  38.098  21.492  1.00  0.00    -0.247 OA
HETATM    2  C   LIG     1      17.577  37.175  21.331  1.00  0.00     0.326 A 
HETATM    3  N   LIG     1      17.614  36.279  20.246  1.00  0.00    -0.341 N 
HETATM    4  C   LIG     1      16.435  35.428  20.326  1.00  0.00     0.145 A 
HETATM    5  C   LIG     1      15.643  35.916  21.566  1.00  0.00     0.158 A 
HETATM    6  N   LIG     1      16.457  36.969  22.166  1.00  0.00    -0.250 N 
HETATM    7  C   LIG     1      16.050  37.793  23.268  1.00  0.00     0.326 C 
HETATM    8  N   LIG     1      17.011  38.347  24.177  1.00  0.00    -0.342 N 
HETATM    9  O   LIG     1      14.826  38.033  23.445  1.00  0.00    -0.247 OA
HETATM   10  H   LIG     1      18.347  36.244  19.503  1.00  0.00     0.164 HD
HETATM   11  H   LIG     1      16.691  39.152  24.764  1.00  0.00     0.164 HD
ENDROOT
BRANCH   8  12
HETATM   12  C   LIG     1      18.128  37.549  24.683  1.00  0.00     0.128 C 
BRANCH  12  13
HETATM   13  C   LIG     1      17.644  36.492  25.695  1.00  0.00    -0.005 C 
HETATM   14  C   LIG     1      18.598  36.385  26.891  1.00  0.00     0.011 C 
HETATM   15  C   LIG     1      17.499  35.127  25.011  1.00  0.00     0.011 C 
ENDBRANCH  12  13
ENDBRANCH   8  12
TORSDOF 2
ENDMDL
MODEL 4
REMARK VINA RESULT:      -6.2      1.618      4.781
REMARK  2 active torsions:
REMARK  status: ('A' for Active; 'I' for Inactive)
REMARK       I    between atoms: N_6  and  C_7 
REMARK       I    between atoms: C_7  and  N_8 
REMARK    1  A    between atoms: N_8  and  C_9 
REMARK    2  A    between atoms: C_9  and  C_10 
ROOT
HETATM    1  O   LIG     1      16.948  35.986  21.633  1.00  0.00    -0.247 OA
HETATM    2  C   LIG     1      17.106  36.157  22.871  1.00  0.00     0.326 A 
HETATM    3  N   LIG     1      17.159  35.097  23.794  1.00  0.00    -0.341 N 
HETATM    4  C   LIG     1      17.238  35.669  25.131  1.00  0.00     0.145 A 
HETATM    5  C   LIG     1      17.196  37.206  24.937  1.00  0.00     0.158 A 
HETATM    6  N   LIG     1      17.171  37.423  23.494  1.00  0.00    -0.250 N 
HETATM    7  C   LIG     1      17.003  38.697  22.858  1.00  0.00     0.326 C 
HETATM    8  N   LIG     1      17.563  38.964  21.565  1.00  0.00    -0.342 N 
HETATM    9  O   LIG     1      16.354  39.603  23.446  1.00  0.00    -0.247 OA
HETATM   10  H   LIG     1      17.127  34.079  23.564  1.00  0.00     0.164 HD
HETATM   11  H   LIG     1      17.170  39.781  21.043  1.00  0.00     0.164 HD
ENDROOT
BRANCH   8  12
HETATM   12  C   LIG     1      18.920  38.538  21.220  1.00  0.00     0.128 C 
BRANCH  12  13
HETATM   13  C   LIG     1      19.058  38.297  19.704  1.00  0.00    -0.005 C 
HETATM   14  C   LIG     1      19.130  36.799  19.381  1.00  0.00     0.011 C 
HETATM   15  C   LIG     1      20.301  39.014  19.163  1.00  0.00     0.011 C 
ENDBRANCH  12  13
ENDBRANCH   8  12
TORSDOF 2
ENDMDL
MODEL 5
REMARK VINA RESULT:      -6.0      7.452      8.669
REMARK  2 active torsions:
REMARK  status: ('A' for Active; 'I' for Inactive)
REMARK       I    between atoms: N_6  and  C_7 
REMARK       I    between atoms: C_7  and  N_8 
REMARK    1  A    between atoms: N_8  and  C_9 
REMARK    2  A    between atoms: C_9  and  C_10 
ROOT
HETATM    1  O   LIG     1      15.807  33.219  15.139  1.00  0.00    -0.247 OA
HETATM    2  C   LIG     1      15.402  32.052  14.891  1.00  0.00     0.326 A 
HETATM    3  N   LIG     1      15.811  31.317  13.763  1.00  0.00    -0.341 N 
HETATM    4  C   LIG     1      15.062  30.068  13.745  1.00  0.00     0.145 A 
HETATM    5  C   LIG     1      14.119  30.122  14.973  1.00  0.00     0.158 A 
HETATM    6  N   LIG     1      14.438  31.368  15.664  1.00  0.00    -0.250 N 
HETATM    7  C   LIG     1      13.718  31.890  16.790  1.00  0.00     0.326 C 
HETATM    8  N   LIG     1      14.364  32.715  17.768  1.00  0.00    -0.342 N 
HETATM    9  O   LIG     1      12.495  31.617  16.925  1.00  0.00    -0.247 OA
HETATM   10  H   LIG     1      16.512  31.623  13.052  1.00  0.00     0.164 HD
HETATM   11  H   LIG     1      13.741  33.288  18.383  1.00  0.00     0.164 HD
ENDROOT
BRANCH   8  12
HETATM   12  C   LIG     1      15.695  32.389  18.280  1.00  0.00     0.128 C 
BRANCH  12  13
HETATM   13  C   LIG     1      15.678  32.227  19.813  1.00  0.00    -0.005 C 
HETATM   14  C   LIG     1      14.728  31.103  20.245  1.00  0.00     0.011 C 
HETATM   15  C   LIG     1      15.275  33.547  20.482  1.00  0.00     0.011 C 
ENDBRANCH  12  13
ENDBRANCH   8  12
TORSDOF 2
ENDMDL
MODEL 6
REMARK VINA RESULT:      -5.7      1.728      2.403
REMARK  2 active torsions:
REMARK  status: ('A' for Active; 'I' for Inactive)
REMARK       I    between atoms: N_6  and  C_7 
REMARK       I    between atoms: C_7  and  N_8 
REMARK    1  A    between atoms: N_8  and  C_9 
REMARK    2  A    between atoms: C_9  and  C_10 
ROOT
HETATM    1  O   LIG     1      17.540  39.258  21.599  1.00  0.00    -0.247 OA
HETATM    2  C   LIG     1      18.451  38.765  20.882  1.00  0.00     0.326 A 
HETATM    3  N   LIG     1      19.547  39.510  20.407  1.00  0.00    -0.341 N 
HETATM    4  C   LIG     1      20.328  38.651  19.529  1.00  0.00     0.145 A 
HETATM    5  C   LIG     1      19.577  37.295  19.486  1.00  0.00     0.158 A 
HETATM    6  N   LIG     1      18.451  37.437  20.403  1.00  0.00    -0.250 N 
HETATM    7  C   LIG     1      17.411  36.464  20.583  1.00  0.00     0.326 C 
HETATM    8  N   LIG     1      16.716  36.339  21.830  1.00  0.00    -0.342 N 
HETATM    9  O   LIG     1      17.103  35.702  19.628  1.00  0.00    -0.247 OA
HETATM   10  H   LIG     1      19.752  40.510  20.629  1.00  0.00     0.164 HD
HETATM   11  H   LIG     1      15.801  35.834  21.809  1.00  0.00     0.164 HD
ENDROOT
BRANCH   8  12
HETATM   12  C   LIG     1      17.430  36.380  23.107  1.00  0.00     0.128 C 
BRANCH  12  13
HETATM   13  C   LIG     1      16.630  37.161  24.168  1.00  0.00    -0.005 C 
HETATM   14  C   LIG     1      15.487  37.960  23.528  1.00  0.00     0.011 C 
HETATM   15  C   LIG     1      17.557  38.099  24.950  1.00  0.00     0.011 C 
ENDBRANCH  12  13
ENDBRANCH   8  12
TORSDOF 2
ENDMDL
MODEL 7
REMARK VINA RESULT:      -5.6      6.467      7.655
REMARK  2 active torsions:
REMARK  status: ('A' for Active; 'I' for Inactive)
REMARK       I    between atoms: N_6  and  C_7 
REMARK       I    between atoms: C_7  and  N_8 
REMARK    1  A    between atoms: N_8  and  C_9 
REMARK    2  A    between atoms: C_9  and  C_10 
ROOT
HETATM    1  O   LIG     1      15.733  34.209  16.464  1.00  0.00    -0.247 OA
HETATM    2  C   LIG     1      15.686  33.123  15.827  1.00  0.00     0.326 A 
HETATM    3  N   LIG     1      16.406  32.893  14.641  1.00  0.00    -0.341 N 
HETATM    4  C   LIG     1      16.025  31.583  14.130  1.00  0.00     0.145 A 
HETATM    5  C   LIG     1      14.963  31.036  15.118  1.00  0.00     0.158 A 
HETATM    6  N   LIG     1      14.854  32.036  16.176  1.00  0.00    -0.250 N 
HETATM    7  C   LIG     1      13.893  32.003  17.241  1.00  0.00     0.326 C 
HETATM    8  N   LIG     1      14.175  32.593  18.517  1.00  0.00    -0.342 N 
HETATM    9  O   LIG     1      12.780  31.442  17.055  1.00  0.00    -0.247 OA
HETATM   10  H   LIG     1      17.080  33.553  14.193  1.00  0.00     0.164 HD
HETATM   11  H   LIG     1      13.354  32.791  19.133  1.00  0.00     0.164 HD
ENDROOT
BRANCH   8  12
HETATM   12  C   LIG     1      15.475  32.419  19.166  1.00  0.00     0.128 C 
BRANCH  12  13
HETATM   13  C   LIG     1      15.698  33.483  20.259  1.00  0.00    -0.005 C 
HETATM   14  C   LIG     1      14.596  33.427  21.325  1.00  0.00     0.011 C 
HETATM   15  C   LIG     1      15.759  34.882  19.635  1.00  0.00     0.011 C 
ENDBRANCH  12  13
ENDBRANCH   8  12
TORSDOF 2
ENDMDL
MODEL 8
REMARK VINA RESULT:      -5.6      9.729     11.891
REMARK  2 active torsions:
REMARK  status: ('A' for Active; 'I' for Inactive)
REMARK       I    between atoms: N_6  and  C_7 
REMARK       I    between atoms: C_7  and  N_8 
REMARK    1  A    between atoms: N_8  and  C_9 
REMARK    2  A    between atoms: C_9  and  C_10 
ROOT
HETATM    1  O   LIG     1      13.007  30.128  15.378  1.00  0.00    -0.247 OA
HETATM    2  C   LIG     1      13.802  30.949  15.909  1.00  0.00     0.326 A 
HETATM    3  N   LIG     1      13.573  31.541  17.164  1.00  0.00    -0.341 N 
HETATM    4  C   LIG     1      14.634  32.509  17.405  1.00  0.00     0.145 A 
HETATM    5  C   LIG     1      15.532  32.475  16.142  1.00  0.00     0.158 A 
HETATM    6  N   LIG     1      14.973  31.433  15.286  1.00  0.00    -0.250 N 
HETATM    7  C   LIG     1      15.414  31.142  13.953  1.00  0.00     0.326 C 
HETATM    8  N   LIG     1      15.299  29.823  13.402  1.00  0.00    -0.342 N 
HETATM    9  O   LIG     1      15.917  32.060  13.251  1.00  0.00    -0.247 OA
HETATM   10  H   LIG     1      12.772  31.338  17.803  1.00  0.00     0.164 HD
HETATM   11  H   LIG     1      15.362  29.743  12.361  1.00  0.00     0.164 HD
ENDROOT
BRANCH   8  12
HETATM   12  C   LIG     1      15.639  28.637  14.188  1.00  0.00     0.128 C 
BRANCH  12  13
HETATM   13  C   LIG     1      15.146  27.351  13.497  1.00  0.00    -0.005 C 
HETATM   14  C   LIG     1      15.743  27.208  12.091  1.00  0.00     0.011 C 
HETATM   15  C   LIG     1      13.614  27.341  13.423  1.00  0.00     0.011 C 
ENDBRANCH  12  13
ENDBRANCH   8  12
TORSDOF 2
ENDMDL
MODEL 9
REMARK VINA RESULT:      -5.5      7.010      9.482
REMARK  2 active torsions:
REMARK  status: ('A' for Active; 'I' for Inactive)
REMARK       I    between atoms: N_6  and  C_7 
REMARK       I    between atoms: C_7  and  N_8 
REMARK    1  A    between atoms: N_8  and  C_9 
REMARK    2  A    between atoms: C_9  and  C_10 
ROOT
HETATM    1  O   LIG     1      13.631  31.064  17.600  1.00  0.00    -0.247 OA
HETATM    2  C   LIG     1      14.296  31.771  18.403  1.00  0.00     0.326 A 
HETATM    3  N   LIG     1      14.310  31.552  19.793  1.00  0.00    -0.341 N 
HETATM    4  C   LIG     1      15.089  32.618  20.407  1.00  0.00     0.145 A 
HETATM    5  C   LIG     1      15.533  33.543  19.245  1.00  0.00     0.158 A 
HETATM    6  N   LIG     1      15.043  32.908  18.025  1.00  0.00    -0.250 N 
HETATM    7  C   LIG     1      15.117  33.485  16.713  1.00  0.00     0.326 C 
HETATM    8  N   LIG     1      15.200  32.662  15.542  1.00  0.00    -0.342 N 
HETATM    9  O   LIG     1      15.112  34.738  16.585  1.00  0.00    -0.247 OA
HETATM   10  H   LIG     1      13.829  30.775  20.297  1.00  0.00     0.164 HD
HETATM   11  H   LIG     1      14.961  33.117  14.631  1.00  0.00     0.164 HD
ENDROOT
BRANCH   8  12
HETATM   12  C   LIG     1      16.074  31.488  15.497  1.00  0.00     0.128 C 
BRANCH  12  13
HETATM   13  C   LIG     1      15.703  30.564  14.320  1.00  0.00    -0.005 C 
HETATM   14  C   LIG     1      15.704  31.328  12.990  1.00  0.00     0.011 C 
HETATM   15  C   LIG     1      14.332  29.921  14.560  1.00  0.00     0.011 C 
ENDBRANCH  12  13
ENDBRANCH   8  12
TORSDOF 2
ENDMDL
MODEL 10
REMARK VINA RESULT:      -5.4      2.856      4.725
REMARK  2 active torsions:
REMARK  status: ('A' for Active; 'I' for Inactive)
REMARK       I    between atoms: N_6  and  C_7 
REMARK       I    between atoms: C_7  and  N_8 
REMARK    1  A    between atoms: N_8  and  C_9 
REMARK    2  A    between atoms: C_9  and  C_10 
ROOT
HETATM    1  O   LIG     1      18.617  36.338  19.582  1.00  0.00    -0.247 OA
HETATM    2  C   LIG     1      18.177  37.133  20.455  1.00  0.00     0.326 A 
HETATM    3  N   LIG     1      18.505  38.501  20.487  1.00  0.00    -0.341 N 
HETATM    4  C   LIG     1      17.910  39.077  21.685  1.00  0.00     0.145 A 
HETATM    5  C   LIG     1      17.201  37.906  22.412  1.00  0.00     0.158 A 
HETATM    6  N   LIG     1      17.369  36.743  21.545  1.00  0.00    -0.250 N 
HETATM    7  C   LIG     1      16.978  35.405  21.883  1.00  0.00     0.326 C 
HETATM    8  N   LIG     1      16.601  34.462  20.871  1.00  0.00    -0.342 N 
HETATM    9  O   LIG     1      16.961  35.050  23.092  1.00  0.00    -0.247 OA
HETATM   10  H   LIG     1      19.089  39.010  19.787  1.00  0.00     0.164 HD
HETATM   11  H   LIG     1      16.611  33.452  21.144  1.00  0.00     0.164 HD
ENDROOT
BRANCH   8  12
HETATM   12  C   LIG     1      15.734  34.846  19.756  1.00  0.00     0.128 C 
BRANCH  12  13
HETATM   13  C   LIG     1      15.062  33.613  19.123  1.00  0.00    -0.005 C 
HETATM   14  C   LIG     1      15.592  32.311  19.738  1.00  0.00     0.011 C 
HETATM   15  C   LIG     1      15.281  33.607  17.606  1.00  0.00     0.011 C 
ENDBRANCH  12  13
ENDBRANCH   8  12
TORSDOF 2
ENDMDL
MODEL 11
REMARK VINA RESULT:      -5.1      2.134      3.094
REMARK  2 active torsions:
REMARK  status: ('A' for Active; 'I' for Inactive)
REMARK       I    between atoms: N_6  and  C_7 
REMARK       I    between atoms: C_7  and  N_8 
REMARK    1  A    between atoms: N_8  and  C_9 
REMARK    2  A    between atoms: C_9  and  C_10 
ROOT
HETATM    1  O   LIG     1      17.663  34.890  22.836  1.00  0.00    -0.247 OA
HETATM    2  C   LIG     1      16.568  35.264  22.339  1.00  0.00     0.326 A 
HETATM    3  N   LIG     1      15.693  34.397  21.658  1.00  0.00    -0.341 N 
HETATM    4  C   LIG     1      14.593  35.191  21.130  1.00  0.00     0.145 A 
HETATM    5  C   LIG     1      14.898  36.657  21.532  1.00  0.00     0.158 A 
HETATM    6  N   LIG     1      16.117  36.603  22.332  1.00  0.00    -0.250 N 
HETATM    7  C   LIG     1      16.836  37.748  22.811  1.00  0.00     0.326 C 
HETATM    8  N   LIG     1      17.608  37.692  24.018  1.00  0.00    -0.342 N 
HETATM    9  O   LIG     1      16.788  38.827  22.162  1.00  0.00    -0.247 OA
HETATM   10  H   LIG     1      15.821  33.368  21.536  1.00  0.00     0.164 HD
HETATM   11  H   LIG     1      18.323  38.443  24.153  1.00  0.00     0.164 HD
ENDROOT
BRANCH   8  12
HETATM   12  C   LIG     1      17.096  37.028  25.218  1.00  0.00     0.128 C 
BRANCH  12  13
HETATM   13  C   LIG     1      18.097  35.980  25.743  1.00  0.00    -0.005 C 
HETATM   14  C   LIG     1      17.378  34.707  26.210  1.00  0.00     0.011 C 
HETATM   15  C   LIG     1      18.930  36.566  26.889  1.00  0.00     0.011 C 
ENDBRANCH  12  13
ENDBRANCH   8  12
TORSDOF 2
ENDMDL
MODEL 12
REMARK VINA RESULT:      -5.0      6.608      9.260
REMARK  2 active torsions:
REMARK  status: ('A' for Active; 'I' for Inactive)
REMARK       I    between atoms: N_6  and  C_7 
REMARK       I    between atoms: C_7  and  N_8 
REMARK    1  A    between atoms: N_8  and  C_9 
REMARK    2  A    between atoms: C_9  and  C_10 
ROOT
HETATM    1  O   LIG     1      13.600  31.727  16.922  1.00  0.00    -0.247 OA
HETATM    2  C   LIG     1      14.241  31.766  18.005  1.00  0.00     0.326 A 
HETATM    3  N   LIG     1      14.010  30.877  19.071  1.00  0.00    -0.341 N 
HETATM    4  C   LIG     1      14.849  31.287  20.189  1.00  0.00     0.145 A 
HETATM    5  C   LIG     1      15.606  32.552  19.709  1.00  0.00     0.158 A 
HETATM    6  N   LIG     1      15.210  32.745  18.317  1.00  0.00    -0.250 N 
HETATM    7  C   LIG     1      15.573  33.875  17.510  1.00  0.00     0.326 C 
HETATM    8  N   LIG     1      15.699  33.763  16.087  1.00  0.00    -0.342 N 
HETATM    9  O   LIG     1      15.789  34.987  18.062  1.00  0.00    -0.247 OA
HETATM   10  H   LIG     1      13.340  30.076  19.069  1.00  0.00     0.164 HD
HETATM   11  H   LIG     1      15.677  34.656  15.542  1.00  0.00     0.164 HD
ENDROOT
BRANCH   8  12
HETATM   12  C   LIG     1      16.369  32.618  15.469  1.00  0.00     0.128 C 
BRANCH  12  13
HETATM   13  C   LIG     1      16.151  32.602  13.944  1.00  0.00    -0.005 C 
HETATM   14  C   LIG     1      15.833  31.189  13.439  1.00  0.00     0.011 C 
HETATM   15  C   LIG     1      17.388  33.154  13.224  1.00  0.00     0.011 C 
ENDBRANCH  12  13
ENDBRANCH   8  12
TORSDOF 2
ENDMDL
MODEL 13
REMARK VINA RESULT:      -5.0      5.087      6.532
REMARK  2 active torsions:
REMARK  status: ('A' for Active; 'I' for Inactive)
REMARK       I    between atoms: N_6  and  C_7 
REMARK       I    between atoms: C_7  and  N_8 
REMARK    1  A    between atoms: N_8  and  C_9 
REMARK    2  A    between atoms: C_9  and  C_10 
ROOT
HETATM    1  O   LIG     1      15.786  32.090  19.569  1.00  0.00    -0.247 OA
HETATM    2  C   LIG     1      14.920  32.137  18.656  1.00  0.00     0.326 A 
HETATM    3  N   LIG     1      14.028  31.083  18.383  1.00  0.00    -0.341 N 
HETATM    4  C   LIG     1      13.255  31.442  17.203  1.00  0.00     0.145 A 
HETATM    5  C   LIG     1      13.788  32.827  16.752  1.00  0.00     0.158 A 
HETATM    6  N   LIG     1      14.784  33.211  17.748  1.00  0.00    -0.250 N 
HETATM    7  C   LIG     1      15.627  34.368  17.661  1.00  0.00     0.326 C 
HETATM    8  N   LIG     1      16.113  35.025  18.839  1.00  0.00    -0.342 N 
HETATM    9  O   LIG     1      15.945  34.821  16.529  1.00  0.00    -0.247 OA
HETATM   10  H   LIG     1      13.950  30.191  18.920  1.00  0.00     0.164 HD
HETATM   11  H   LIG     1      16.934  35.661  18.717  1.00  0.00     0.164 HD
ENDROOT
BRANCH   8  12
HETATM   12  C   LIG     1      15.243  35.268  19.991  1.00  0.00     0.128 C 
BRANCH  12  13
HETATM   13  C   LIG     1      16.015  35.946  21.139  1.00  0.00    -0.005 C 
HETATM   14  C   LIG     1      16.850  34.929  21.928  1.00  0.00     0.011 C 
HETATM   15  C   LIG     1      15.044  36.674  22.076  1.00  0.00     0.011 C 
ENDBRANCH  12  13
ENDBRANCH   8  12
TORSDOF 2
ENDMDL
MODEL 14
REMARK VINA RESULT:      -4.9      2.215      3.213
REMARK  2 active torsions:
REMARK  status: ('A' for Active; 'I' for Inactive)
REMARK       I    between atoms: N_6  and  C_7 
REMARK       I    between atoms: C_7  and  N_8 
REMARK    1  A    between atoms: N_8  and  C_9 
REMARK    2  A    between atoms: C_9  and  C_10 
ROOT
HETATM    1  O   LIG     1      18.493  36.116  20.216  1.00  0.00    -0.247 OA
HETATM    2  C   LIG     1      18.592  37.308  19.824  1.00  0.00     0.326 A 
HETATM    3  N   LIG     1      18.919  37.660  18.501  1.00  0.00    -0.341 N 
HETATM    4  C   LIG     1      19.052  39.110  18.442  1.00  0.00     0.145 A 
HETATM    5  C   LIG     1      18.801  39.618  19.884  1.00  0.00     0.158 A 
HETATM    6  N   LIG     1      18.464  38.433  20.669  1.00  0.00    -0.250 N 
HETATM    7  C   LIG     1      18.278  38.416  22.091  1.00  0.00     0.326 C 
HETATM    8  N   LIG     1      17.406  37.465  22.716  1.00  0.00    -0.342 N 
HETATM    9  O   LIG     1      18.888  39.255  22.807  1.00  0.00    -0.247 OA
HETATM   10  H   LIG     1      19.062  36.998  17.707  1.00  0.00     0.164 HD
HETATM   11  H   LIG     1      17.535  37.315  23.743  1.00  0.00     0.164 HD
ENDROOT
BRANCH   8  12
HETATM   12  C   LIG     1      16.093  37.149  22.151  1.00  0.00     0.128 C 
BRANCH  12  13
HETATM   13  C   LIG     1      15.777  35.647  22.286  1.00  0.00    -0.005 C 
HETATM   14  C   LIG     1      16.952  34.883  22.910  1.00  0.00     0.011 C 
HETATM   15  C   LIG     1      15.427  35.052  20.917  1.00  0.00     0.011 C 
ENDBRANCH  12  13
ENDBRANCH   8  12
TORSDOF 2
ENDMDL
MODEL 15
REMARK VINA RESULT:      -4.8      8.611     10.452
REMARK  2 active torsions:
REMARK  status: ('A' for Active; 'I' for Inactive)
REMARK       I    between atoms: N_6  and  C_7 
REMARK       I    between atoms: C_7  and  N_8 
REMARK    1  A    between atoms: N_8  and  C_9 
REMARK    2  A    between atoms: C_9  and  C_10 
ROOT
HETATM    1  O   LIG     1      15.769  32.391  16.972  1.00  0.00    -0.247 OA
HETATM    2  C   LIG     1      14.623  31.967  16.668  1.00  0.00     0.326 A 
HETATM    3  N   LIG     1      13.466  32.269  17.410  1.00  0.00    -0.341 N 
HETATM    4  C   LIG     1      12.355  31.525  16.834  1.00  0.00     0.145 A 
HETATM    5  C   LIG     1      12.957  30.700  15.667  1.00  0.00     0.158 A 
HETATM    6  N   LIG     1      14.365  31.081  15.598  1.00  0.00    -0.250 N 
HETATM    7  C   LIG     1      15.339  30.469  14.742  1.00  0.00     0.326 C 
HETATM    8  N   LIG     1      16.475  31.202  14.263  1.00  0.00    -0.342 N 
HETATM    9  O   LIG     1      15.196  29.265  14.399  1.00  0.00    -0.247 OA
HETATM   10  H   LIG     1      13.417  32.900  18.241  1.00  0.00     0.164 HD
HETATM   11  H   LIG     1      17.277  30.638  13.898  1.00  0.00     0.164 HD
ENDROOT
BRANCH   8  12
HETATM   12  C   LIG     1      16.344  32.576  13.778  1.00  0.00     0.128 C 
BRANCH  12  13
HETATM   13  C   LIG     1      17.642  33.374  14.010  1.00  0.00    -0.005 C 
HETATM   14  C   LIG     1      17.384  34.627  14.857  1.00  0.00     0.011 C 
HETATM   15  C   LIG     1      18.274  33.764  12.669  1.00  0.00     0.011 C 
ENDBRANCH  12  13
ENDBRANCH   8  12
TORSDOF 2
ENDMDL
MODEL 16
REMARK VINA RESULT:      -4.7      8.979     11.402
REMARK  2 active torsions:
REMARK  status: ('A' for Active; 'I' for Inactive)
REMARK       I    between atoms: N_6  and  C_7 
REMARK       I    between atoms: C_7  and  N_8 
REMARK    1  A    between atoms: N_8  and  C_9 
REMARK    2  A    between atoms: C_9  and  C_10 
ROOT
HETATM    1  O   LIG     1      16.871  31.750  12.844  1.00  0.00    -0.247 OA
HETATM    2  C   LIG     1      16.928  32.599  13.773  1.00  0.00     0.326 A 
HETATM    3  N   LIG     1      16.522  32.328  15.092  1.00  0.00    -0.341 N 
HETATM    4  C   LIG     1      16.625  33.563  15.857  1.00  0.00     0.145 A 
HETATM    5  C   LIG     1      17.112  34.642  14.856  1.00  0.00     0.158 A 
HETATM    6  N   LIG     1      17.331  33.941  13.595  1.00  0.00    -0.250 N 
HETATM    7  C   LIG     1      17.666  34.575  12.352  1.00  0.00     0.326 C 
HETATM    8  N   LIG     1      18.431  33.891  11.350  1.00  0.00    -0.342 N 
HETATM    9  O   LIG     1      17.285  35.756  12.135  1.00  0.00    -0.247 OA
HETATM   10  H   LIG     1      16.186  31.408  15.455  1.00  0.00     0.164 HD
HETATM   11  H   LIG     1      18.391  34.283  10.381  1.00  0.00     0.164 HD
ENDROOT
BRANCH   8  12
HETATM   12  C   LIG     1      19.604  33.090  11.703  1.00  0.00     0.128 C 
BRANCH  12  13
HETATM   13  C   LIG     1      20.909  33.843  11.379  1.00  0.00    -0.005 C 
HETATM   14  C   LIG     1      21.508  34.488  12.635  1.00  0.00     0.011 C 
HETATM   15  C   LIG     1      20.656  34.909  10.307  1.00  0.00     0.011 C 
ENDBRANCH  12  13
ENDBRANCH   8  12
TORSDOF 2
ENDMDL
MODEL 17
REMARK VINA RESULT:      -4.7      2.465      3.786
REMARK  2 active torsions:
REMARK  status: ('A' for Active; 'I' for Inactive)
REMARK       I    between atoms: N_6  and  C_7 
REMARK       I    between atoms: C_7  and  N_8 
REMARK    1  A    between atoms: N_8  and  C_9 
REMARK    2  A    between atoms: C_9  and  C_10 
ROOT
HETATM    1  O   LIG     1      16.976  35.197  22.958  1.00  0.00    -0.247 OA
HETATM    2  C   LIG     1      16.365  34.966  21.881  1.00  0.00     0.326 A 
HETATM    3  N   LIG     1      15.360  33.989  21.758  1.00  0.00    -0.341 N 
HETATM    4  C   LIG     1      14.962  33.927  20.358  1.00  0.00     0.145 A 
HETATM    5  C   LIG     1      15.854  34.955  19.618  1.00  0.00     0.158 A 
HETATM    6  N   LIG     1      16.659  35.599  20.652  1.00  0.00    -0.250 N 
HETATM    7  C   LIG     1      17.719  36.533  20.405  1.00  0.00     0.326 C 
HETATM    8  N   LIG     1      18.054  37.549  21.359  1.00  0.00    -0.342 N 
HETATM    9  O   LIG     1      18.369  36.463  19.328  1.00  0.00    -0.247 OA
HETATM   10  H   LIG     1      14.981  33.397  22.530  1.00  0.00     0.164 HD
HETATM   11  H   LIG     1      18.994  37.995  21.259  1.00  0.00     0.164 HD
ENDROOT
BRANCH   8  12
HETATM   12  C   LIG     1      17.016  38.318  22.048  1.00  0.00     0.128 C 
BRANCH  12  13
HETATM   13  C   LIG     1      17.542  38.895  23.377  1.00  0.00    -0.005 C 
HETATM   14  C   LIG     1      19.074  38.970  23.386  1.00  0.00     0.011 C 
HETATM   15  C   LIG     1      17.048  38.049  24.557  1.00  0.00     0.011 C 
ENDBRANCH  12  13
ENDBRANCH   8  12
TORSDOF 2
ENDMDL
MODEL 18
REMARK VINA RESULT:      -4.6      2.594      4.458
REMARK  2 active torsions:
REMARK  status: ('A' for Active; 'I' for Inactive)
REMARK       I    between atoms: N_6  and  C_7 
REMARK       I    between atoms: C_7  and  N_8 
REMARK    1  A    between atoms: N_8  and  C_9 
REMARK    2  A    between atoms: C_9  and  C_10 
ROOT
HETATM    1  O   LIG     1      17.626  37.202  20.750  1.00  0.00    -0.247 OA
HETATM    2  C   LIG     1      17.329  37.670  21.881  1.00  0.00     0.326 A 
HETATM    3  N   LIG     1      17.403  39.040  22.193  1.00  0.00    -0.341 N 
HETATM    4  C   LIG     1      17.096  39.197  23.608  1.00  0.00     0.145 A 
HETATM    5  C   LIG     1      16.853  37.765  24.150  1.00  0.00     0.158 A 
HETATM    6  N   LIG     1      16.961  36.881  22.993  1.00  0.00    -0.250 N 
HETATM    7  C   LIG     1      16.931  35.448  23.051  1.00  0.00     0.326 C 
HETATM    8  N   LIG     1      16.446  34.668  21.950  1.00  0.00    -0.342 N 
HETATM    9  O   LIG     1      17.336  34.860  24.089  1.00  0.00    -0.247 OA
HETATM   10  H   LIG     1      17.655  39.808  21.531  1.00  0.00     0.164 HD
HETATM   11  H   LIG     1      16.716  33.658  21.935  1.00  0.00     0.164 HD
ENDROOT
BRANCH   8  12
HETATM   12  C   LIG     1      15.235  35.050  21.222  1.00  0.00     0.128 C 
BRANCH  12  13
HETATM   13  C   LIG     1      15.091  34.240  19.918  1.00  0.00    -0.005 C 
HETATM   14  C   LIG     1      15.580  32.798  20.100  1.00  0.00     0.011 C 
HETATM   15  C   LIG     1      15.864  34.920  18.782  1.00  0.00     0.011 C 
ENDBRANCH  12  13
ENDBRANCH   8  12
TORSDOF 2
ENDMDL
MODEL 19
REMARK VINA RESULT:      -4.6      2.303      5.488
REMARK  2 active torsions:
REMARK  status: ('A' for Active; 'I' for Inactive)
REMARK       I    between atoms: N_6  and  C_7 
REMARK       I    between atoms: C_7  and  N_8 
REMARK    1  A    between atoms: N_8  and  C_9 
REMARK    2  A    between atoms: C_9  and  C_10 
ROOT
HETATM    1  O   LIG     1      18.905  39.300  22.427  1.00  0.00    -0.247 OA
HETATM    2  C   LIG     1      17.829  38.648  22.464  1.00  0.00     0.326 A 
HETATM    3  N   LIG     1      16.868  38.802  23.481  1.00  0.00    -0.341 N 
HETATM    4  C   LIG     1      15.818  37.816  23.260  1.00  0.00     0.145 A 
HETATM    5  C   LIG     1      16.250  37.011  22.008  1.00  0.00     0.158 A 
HETATM    6  N   LIG     1      17.485  37.634  21.543  1.00  0.00    -0.250 N 
HETATM    7  C   LIG     1      18.307  37.133  20.478  1.00  0.00     0.326 C 
HETATM    8  N   LIG     1      19.108  38.013  19.679  1.00  0.00    -0.342 N 
HETATM    9  O   LIG     1      18.324  35.896  20.237  1.00  0.00    -0.247 OA
HETATM   10  H   LIG     1      16.910  39.487  24.267  1.00  0.00     0.164 HD
HETATM   11  H   LIG     1      19.884  37.574  19.132  1.00  0.00     0.164 HD
ENDROOT
BRANCH   8  12
HETATM   12  C   LIG     1      18.582  39.289  19.192  1.00  0.00     0.128 C 
BRANCH  12  13
HETATM   13  C   LIG     1      18.577  39.337  17.652  1.00  0.00    -0.005 C 
HETATM   14  C   LIG     1      20.003  39.394  17.090  1.00  0.00     0.011 C 
HETATM   15  C   LIG     1      17.767  40.543  17.160  1.00  0.00     0.011 C 
ENDBRANCH  12  13
ENDBRANCH   8  12
TORSDOF 2
ENDMDL
MODEL 20
REMARK VINA RESULT:      -4.5      8.474     10.662
REMARK  2 active torsions:
REMARK  status: ('A' for Active; 'I' for Inactive)
REMARK       I    between atoms: N_6  and  C_7 
REMARK       I    between atoms: C_7  and  N_8 
REMARK    1  A    between atoms: N_8  and  C_9 
REMARK    2  A    between atoms: C_9  and  C_10 
ROOT
HETATM    1  O   LIG     1      16.671  32.048  12.886  1.00  0.00    -0.247 OA
HETATM    2  C   LIG     1      16.419  32.303  14.094  1.00  0.00     0.326 A 
HETATM    3  N   LIG     1      15.648  31.459  14.915  1.00  0.00    -0.341 N 
HETATM    4  C   LIG     1      15.473  32.120  16.201  1.00  0.00     0.145 A 
HETATM    5  C   LIG     1      16.196  33.486  16.076  1.00  0.00     0.158 A 
HETATM    6  N   LIG     1      16.806  33.492  14.750  1.00  0.00    -0.250 N 
HETATM    7  C   LIG     1      17.473  34.616  14.158  1.00  0.00     0.326 C 
HETATM    8  N   LIG     1      18.526  34.438  13.202  1.00  0.00    -0.342 N 
HETATM    9  O   LIG     1      17.130  35.784  14.486  1.00  0.00    -0.247 OA
HETATM   10  H   LIG     1      15.253  30.531  14.643  1.00  0.00     0.164 HD
HETATM   11  H   LIG     1      18.762  35.265  12.606  1.00  0.00     0.164 HD
ENDROOT
BRANCH   8  12
HETATM   12  C   LIG     1      19.569  33.431  13.397  1.00  0.00     0.128 C 
BRANCH  12  13
HETATM   13  C   LIG     1      20.717  33.616  12.385  1.00  0.00    -0.005 C 
HETATM   14  C   LIG     1      21.784  34.580  12.922  1.00  0.00     0.011 C 
HETATM   15  C   LIG     1      20.170  34.127  11.047  1.00  0.00     0.011 C 
ENDBRANCH  12  13
ENDBRANCH   8  12
TORSDOF 2
ENDMDL
