REMARK  4 active torsions:
REMARK  status: ('A' for Active; 'I' for Inactive)
REMARK    1  A    between atoms: O_1  and  C_2 
REMARK    2  A    between atoms: C_2  and  C_3 
REMARK    3  A    between atoms: C_3  and  C_4 
REMARK    4  A    between atoms: C_4  and  C_5 
ROOT
HETATM    1  C   LIG     1       0.184  -0.158  -0.868  1.00  0.00     0.010 C 
ENDROOT
BRANCH   1   2
HETATM    2  C   LIG     1       1.427  -0.853  -0.257  1.00  0.00     0.027 C 
BRANCH   2   3
HETATM    3  C   LIG     1       2.529   0.135   0.142  1.00  0.00     0.164 C 
BRANCH   3   4
HETATM    4  O   LIG     1       3.061   0.748  -1.000  1.00  0.00    -0.401 OA
HETATM    5  H   LIG     1       3.761   1.372  -0.676  1.00  0.00     0.209 HD
ENDBRANCH   3   4
ENDBRANCH   2   3
ENDBRANCH   1   2
BRANCH   1   6
HETATM    6  C   LIG     1      -1.041   0.016   0.082  1.00  0.00    -0.051 C 
HETATM    7  C   LIG     1      -0.655   0.780   1.365  1.00  0.00     0.014 C 
HETATM    8  C   LIG     1      -2.119   0.832  -0.665  1.00  0.00     0.014 C 
HETATM    9  C   LIG     1      -1.649  -1.354   0.457  1.00  0.00     0.014 C 
ENDBRANCH   1   6
TORSDOF 4
