REMARK  3 active torsions:
REMARK  status: ('A' for Active; 'I' for Inactive)
REMARK    1  A    between atoms: C_2  and  C_5 
REMARK    2  A    between atoms: C_5  and  O_6 
REMARK    3  A    between atoms: O_6  and  C_7 
REMARK       I    between atoms: C_7  and  N_9 
ROOT
HETATM    1  O   LIG     1       1.433   0.157  -0.338  1.00  0.00    -0.303 OA
ENDROOT
BRANCH   1   2
HETATM    2  C   LIG     1       0.383  -0.665  -0.854  1.00  0.00     0.189 C 
BRANCH   2   3
HETATM    3  C   LIG     1      -0.977  -0.281  -0.224  1.00  0.00    -0.029 C 
HETATM    4  C   LIG     1      -1.300   1.197  -0.521  1.00  0.00     0.016 C 
HETATM    5  C   LIG     1      -0.932  -0.502   1.301  1.00  0.00     0.016 C 
HETATM    6  C   LIG     1      -2.082  -1.170  -0.829  1.00  0.00     0.016 C 
ENDBRANCH   2   3
ENDBRANCH   1   2
BRANCH   1   7
HETATM    7  C   LIG     1       2.544  -0.331   0.359  1.00  0.00     0.358 C 
HETATM    8  N   LIG     1       3.533   0.582   0.825  1.00  0.00    -0.346 N 
HETATM    9  H   LIG     1       3.427   1.605   0.647  1.00  0.00     0.161 HD
HETATM   10  H   LIG     1       4.368   0.238   1.349  1.00  0.00     0.161 HD
HETATM   11  O   LIG     1       2.679  -1.564   0.584  1.00  0.00    -0.239 OA
ENDBRANCH   1   7
TORSDOF 3
