MODEL 1
REMARK VINA RESULT:      -5.2      0.000      0.000
REMARK  3 active torsions:
REMARK  status: ('A' for Active; 'I' for Inactive)
REMARK    1  A    between atoms: C_2  and  C_5 
REMARK    2  A    between atoms: C_5  and  O_6 
REMARK    3  A    between atoms: O_6  and  C_7 
REMARK       I    between atoms: C_7  and  N_9 
ROOT
HETATM    1  O   LIG     1      16.916  36.898  24.331  1.00  0.00    -0.303 OA
ENDROOT
BRANCH   1   2
HETATM    2  C   LIG     1      16.481  37.335  23.041  1.00  0.00     0.189 C 
BRANCH   2   3
HETATM    3  C   LIG     1      16.563  36.182  22.013  1.00  0.00    -0.029 C 
HETATM    4  C   LIG     1      17.555  36.542  20.889  1.00  0.00     0.016 C 
HETATM    5  C   LIG     1      15.171  35.919  21.405  1.00  0.00     0.016 C 
HETATM    6  C   LIG     1      17.050  34.904  22.725  1.00  0.00     0.016 C 
ENDBRANCH   2   3
ENDBRANCH   1   2
BRANCH   1   7
HETATM    7  C   LIG     1      17.531  37.727  25.277  1.00  0.00     0.358 C 
HETATM    8  N   LIG     1      18.674  37.254  25.983  1.00  0.00    -0.346 N 
HETATM    9  H   LIG     1      19.047  36.297  25.794  1.00  0.00     0.161 HD
HETATM   10  H   LIG     1      19.148  37.857  26.690  1.00  0.00     0.161 HD
HETATM   11  O   LIG     1      17.091  38.885  25.508  1.00  0.00    -0.239 OA
ENDBRANCH   1   7
TORSDOF 3
ENDMDL
MODEL 2
REMARK VINA RESULT:      -5.2      0.101      1.458
REMARK  3 active torsions:
REMARK  status: ('A' for Active; 'I' for Inactive)
REMARK    1  A    between atoms: C_2  and  C_5 
REMARK    2  A    between atoms: C_5  and  O_6 
REMARK    3  A    between atoms: O_6  and  C_7 
REMARK       I    between atoms: C_7  and  N_9 
ROOT
HETATM    1  O   LIG     1      17.094  36.841  24.283  1.00  0.00    -0.303 OA
ENDROOT
BRANCH   1   2
HETATM    2  C   LIG     1      16.581  37.297  23.029  1.00  0.00     0.189 C 
BRANCH   2   3
HETATM    3  C   LIG     1      16.584  36.155  21.984  1.00  0.00    -0.029 C 
HETATM    4  C   LIG     1      15.166  35.953  21.415  1.00  0.00     0.016 C 
HETATM    5  C   LIG     1      17.067  34.845  22.638  1.00  0.00     0.016 C 
HETATM    6  C   LIG     1      17.542  36.526  20.834  1.00  0.00     0.016 C 
ENDBRANCH   2   3
ENDBRANCH   1   2
BRANCH   1   7
HETATM    7  C   LIG     1      17.579  37.685  25.288  1.00  0.00     0.358 C 
HETATM    8  N   LIG     1      18.660  37.248  26.107  1.00  0.00    -0.346 N 
HETATM    9  H   LIG     1      19.084  36.306  25.956  1.00  0.00     0.161 HD
HETATM   10  H   LIG     1      19.038  37.864  26.860  1.00  0.00     0.161 HD
HETATM   11  O   LIG     1      17.078  38.826  25.475  1.00  0.00    -0.239 OA
ENDBRANCH   1   7
TORSDOF 3
ENDMDL
MODEL 3
REMARK VINA RESULT:      -4.9      1.128      1.833
REMARK  3 active torsions:
REMARK  status: ('A' for Active; 'I' for Inactive)
REMARK    1  A    between atoms: C_2  and  C_5 
REMARK    2  A    between atoms: C_5  and  O_6 
REMARK    3  A    between atoms: O_6  and  C_7 
REMARK       I    between atoms: C_7  and  N_9 
ROOT
HETATM    1  O   LIG     1      17.300  36.624  24.431  1.00  0.00    -0.303 OA
ENDROOT
BRANCH   1   2
HETATM    2  C   LIG     1      16.572  37.176  23.331  1.00  0.00     0.189 C 
BRANCH   2   3
HETATM    3  C   LIG     1      16.622  36.231  22.107  1.00  0.00    -0.029 C 
HETATM    4  C   LIG     1      17.133  34.839  22.532  1.00  0.00     0.016 C 
HETATM    5  C   LIG     1      17.557  36.815  21.029  1.00  0.00     0.016 C 
HETATM    6  C   LIG     1      15.204  36.089  21.520  1.00  0.00     0.016 C 
ENDBRANCH   2   3
ENDBRANCH   1   2
BRANCH   1   7
HETATM    7  C   LIG     1      17.596  37.320  25.607  1.00  0.00     0.358 C 
HETATM    8  N   LIG     1      17.326  38.717  25.680  1.00  0.00    -0.346 N 
HETATM    9  H   LIG     1      16.911  39.213  24.861  1.00  0.00     0.161 HD
HETATM   10  H   LIG     1      17.538  39.254  26.549  1.00  0.00     0.161 HD
HETATM   11  O   LIG     1      18.093  36.730  26.604  1.00  0.00    -0.239 OA
ENDBRANCH   1   7
TORSDOF 3
ENDMDL
MODEL 4
REMARK VINA RESULT:      -4.8      3.265      4.480
REMARK  3 active torsions:
REMARK  status: ('A' for Active; 'I' for Inactive)
REMARK    1  A    between atoms: C_2  and  C_5 
REMARK    2  A    between atoms: C_5  and  O_6 
REMARK    3  A    between atoms: O_6  and  C_7 
REMARK       I    between atoms: C_7  and  N_9 
ROOT
HETATM    1  O   LIG     1      16.314  35.080  22.119  1.00  0.00    -0.303 OA
ENDROOT
BRANCH   1   2
HETATM    2  C   LIG     1      17.146  36.198  21.797  1.00  0.00     0.189 C 
BRANCH   2   3
HETATM    3  C   LIG     1      16.889  37.373  22.771  1.00  0.00    -0.029 C 
HETATM    4  C   LIG     1      15.408  37.797  22.710  1.00  0.00     0.016 C 
HETATM    5  C   LIG     1      17.784  38.571  22.397  1.00  0.00     0.016 C 
HETATM    6  C   LIG     1      17.225  36.922  24.206  1.00  0.00     0.016 C 
ENDBRANCH   2   3
ENDBRANCH   1   2
BRANCH   1   7
HETATM    7  C   LIG     1      15.516  34.401  21.191  1.00  0.00     0.358 C 
HETATM    8  N   LIG     1      14.174  34.070  21.535  1.00  0.00    -0.346 N 
HETATM    9  H   LIG     1      13.792  34.333  22.470  1.00  0.00     0.161 HD
HETATM   10  H   LIG     1      13.561  33.565  20.856  1.00  0.00     0.161 HD
HETATM   11  O   LIG     1      15.965  34.083  20.057  1.00  0.00    -0.239 OA
ENDBRANCH   1   7
TORSDOF 3
ENDMDL
MODEL 5
REMARK VINA RESULT:      -4.8      4.142      5.201
REMARK  3 active torsions:
REMARK  status: ('A' for Active; 'I' for Inactive)
REMARK    1  A    between atoms: C_2  and  C_5 
REMARK    2  A    between atoms: C_5  and  O_6 
REMARK    3  A    between atoms: O_6  and  C_7 
REMARK       I    between atoms: C_7  and  N_9 
ROOT
HETATM    1  O   LIG     1      15.270  34.014  21.278  1.00  0.00    -0.303 OA
ENDROOT
BRANCH   1   2
HETATM    2  C   LIG     1      15.182  35.441  21.272  1.00  0.00     0.189 C 
BRANCH   2   3
HETATM    3  C   LIG     1      16.448  36.074  21.898  1.00  0.00    -0.029 C 
HETATM    4  C   LIG     1      16.100  37.430  22.542  1.00  0.00     0.016 C 
HETATM    5  C   LIG     1      17.524  36.280  20.813  1.00  0.00     0.016 C 
HETATM    6  C   LIG     1      17.001  35.127  22.982  1.00  0.00     0.016 C 
ENDBRANCH   2   3
ENDBRANCH   1   2
BRANCH   1   7
HETATM    7  C   LIG     1      15.180  33.215  20.133  1.00  0.00     0.358 C 
HETATM    8  N   LIG     1      14.522  31.954  20.211  1.00  0.00    -0.346 N 
HETATM    9  H   LIG     1      14.113  31.632  21.115  1.00  0.00     0.161 HD
HETATM   10  H   LIG     1      14.442  31.345  19.367  1.00  0.00     0.161 HD
HETATM   11  O   LIG     1      15.666  33.598  19.034  1.00  0.00    -0.239 OA
ENDBRANCH   1   7
TORSDOF 3
ENDMDL
MODEL 6
REMARK VINA RESULT:      -4.8      3.153      4.072
REMARK  3 active torsions:
REMARK  status: ('A' for Active; 'I' for Inactive)
REMARK    1  A    between atoms: C_2  and  C_5 
REMARK    2  A    between atoms: C_5  and  O_6 
REMARK    3  A    between atoms: O_6  and  C_7 
REMARK       I    between atoms: C_7  and  N_9 
ROOT
HETATM    1  O   LIG     1      17.981  37.812  21.028  1.00  0.00    -0.303 OA
ENDROOT
BRANCH   1   2
HETATM    2  C   LIG     1      17.478  36.479  20.903  1.00  0.00     0.189 C 
BRANCH   2   3
HETATM    3  C   LIG     1      16.407  36.192  21.982  1.00  0.00    -0.029 C 
HETATM    4  C   LIG     1      16.030  37.495  22.715  1.00  0.00     0.016 C 
HETATM    5  C   LIG     1      16.946  35.166  22.999  1.00  0.00     0.016 C 
HETATM    6  C   LIG     1      15.149  35.614  21.303  1.00  0.00     0.016 C 
ENDBRANCH   2   3
ENDBRANCH   1   2
BRANCH   1   7
HETATM    7  C   LIG     1      19.019  38.337  20.250  1.00  0.00     0.358 C 
HETATM    8  N   LIG     1      19.319  39.727  20.331  1.00  0.00    -0.346 N 
HETATM    9  H   LIG     1      18.768  40.346  20.967  1.00  0.00     0.161 HD
HETATM   10  H   LIG     1      20.090  40.138  19.761  1.00  0.00     0.161 HD
HETATM   11  O   LIG     1      19.693  37.598  19.483  1.00  0.00    -0.239 OA
ENDBRANCH   1   7
TORSDOF 3
ENDMDL
MODEL 7
REMARK VINA RESULT:      -4.8      3.073      3.902
REMARK  3 active torsions:
REMARK  status: ('A' for Active; 'I' for Inactive)
REMARK    1  A    between atoms: C_2  and  C_5 
REMARK    2  A    between atoms: C_5  and  O_6 
REMARK    3  A    between atoms: O_6  and  C_7 
REMARK       I    between atoms: C_7  and  N_9 
ROOT
HETATM    1  O   LIG     1      17.639  38.163  21.463  1.00  0.00    -0.303 OA
ENDROOT
BRANCH   1   2
HETATM    2  C   LIG     1      18.468  39.106  20.779  1.00  0.00     0.189 C 
BRANCH   2   3
HETATM    3  C   LIG     1      19.132  38.458  19.540  1.00  0.00    -0.029 C 
HETATM    4  C   LIG     1      20.664  38.606  19.622  1.00  0.00     0.016 C 
HETATM    5  C   LIG     1      18.617  39.134  18.253  1.00  0.00     0.016 C 
HETATM    6  C   LIG     1      18.771  36.959  19.500  1.00  0.00     0.016 C 
ENDBRANCH   2   3
ENDBRANCH   1   2
BRANCH   1   7
HETATM    7  C   LIG     1      17.087  38.376  22.731  1.00  0.00     0.358 C 
HETATM    8  N   LIG     1      15.681  38.567  22.858  1.00  0.00    -0.346 N 
HETATM    9  H   LIG     1      15.071  38.548  22.011  1.00  0.00     0.161 HD
HETATM   10  H   LIG     1      15.249  38.725  23.796  1.00  0.00     0.161 HD
HETATM   11  O   LIG     1      17.813  38.395  23.761  1.00  0.00    -0.239 OA
ENDBRANCH   1   7
TORSDOF 3
ENDMDL
MODEL 8
REMARK VINA RESULT:      -4.8      1.647      2.685
REMARK  3 active torsions:
REMARK  status: ('A' for Active; 'I' for Inactive)
REMARK    1  A    between atoms: C_2  and  C_5 
REMARK    2  A    between atoms: C_5  and  O_6 
REMARK    3  A    between atoms: O_6  and  C_7 
REMARK       I    between atoms: C_7  and  N_9 
ROOT
HETATM    1  O   LIG     1      17.248  36.705  24.627  1.00  0.00    -0.303 OA
ENDROOT
BRANCH   1   2
HETATM    2  C   LIG     1      17.587  37.999  24.123  1.00  0.00     0.189 C 
BRANCH   2   3
HETATM    3  C   LIG     1      17.213  38.122  22.626  1.00  0.00    -0.029 C 
HETATM    4  C   LIG     1      17.068  36.720  22.000  1.00  0.00     0.016 C 
HETATM    5  C   LIG     1      18.302  38.912  21.874  1.00  0.00     0.016 C 
HETATM    6  C   LIG     1      15.871  38.871  22.501  1.00  0.00     0.016 C 
ENDBRANCH   2   3
ENDBRANCH   1   2
BRANCH   1   7
HETATM    7  C   LIG     1      17.830  36.125  25.760  1.00  0.00     0.358 C 
HETATM    8  N   LIG     1      18.697  36.906  26.578  1.00  0.00    -0.346 N 
HETATM    9  H   LIG     1      18.894  37.901  26.331  1.00  0.00     0.161 HD
HETATM   10  H   LIG     1      19.139  36.492  27.428  1.00  0.00     0.161 HD
HETATM   11  O   LIG     1      17.594  34.926  26.069  1.00  0.00    -0.239 OA
ENDBRANCH   1   7
TORSDOF 3
ENDMDL
MODEL 9
REMARK VINA RESULT:      -4.7      3.691      5.025
REMARK  3 active torsions:
REMARK  status: ('A' for Active; 'I' for Inactive)
REMARK    1  A    between atoms: C_2  and  C_5 
REMARK    2  A    between atoms: C_5  and  O_6 
REMARK    3  A    between atoms: O_6  and  C_7 
REMARK       I    between atoms: C_7  and  N_9 
ROOT
HETATM    1  O   LIG     1      17.911  36.898  20.723  1.00  0.00    -0.303 OA
ENDROOT
BRANCH   1   2
HETATM    2  C   LIG     1      18.737  37.053  19.566  1.00  0.00     0.189 C 
BRANCH   2   3
HETATM    3  C   LIG     1      19.241  38.510  19.439  1.00  0.00    -0.029 C 
HETATM    4  C   LIG     1      20.781  38.544  19.484  1.00  0.00     0.016 C 
HETATM    5  C   LIG     1      18.673  39.365  20.590  1.00  0.00     0.016 C 
HETATM    6  C   LIG     1      18.763  39.094  18.095  1.00  0.00     0.016 C 
ENDBRANCH   2   3
ENDBRANCH   1   2
BRANCH   1   7
HETATM    7  C   LIG     1      17.105  35.782  20.971  1.00  0.00     0.358 C 
HETATM    8  N   LIG     1      16.328  35.231  19.911  1.00  0.00    -0.346 N 
HETATM    9  H   LIG     1      16.362  35.658  18.960  1.00  0.00     0.161 HD
HETATM   10  H   LIG     1      15.723  34.396  20.076  1.00  0.00     0.161 HD
HETATM   11  O   LIG     1      17.061  35.254  22.115  1.00  0.00    -0.239 OA
ENDBRANCH   1   7
TORSDOF 3
ENDMDL
MODEL 10
REMARK VINA RESULT:      -4.5      1.623      2.462
REMARK  3 active torsions:
REMARK  status: ('A' for Active; 'I' for Inactive)
REMARK    1  A    between atoms: C_2  and  C_5 
REMARK    2  A    between atoms: C_5  and  O_6 
REMARK    3  A    between atoms: O_6  and  C_7 
REMARK       I    between atoms: C_7  and  N_9 
ROOT
HETATM    1  O   LIG     1      17.607  37.375  24.305  1.00  0.00    -0.303 OA
ENDROOT
BRANCH   1   2
HETATM    2  C   LIG     1      18.346  38.257  23.455  1.00  0.00     0.189 C 
BRANCH   2   3
HETATM    3  C   LIG     1      17.636  38.431  22.092  1.00  0.00    -0.029 C 
HETATM    4  C   LIG     1      16.251  39.077  22.294  1.00  0.00     0.016 C 
HETATM    5  C   LIG     1      17.470  37.060  21.405  1.00  0.00     0.016 C 
HETATM    6  C   LIG     1      18.491  39.344  21.191  1.00  0.00     0.016 C 
ENDBRANCH   2   3
ENDBRANCH   1   2
BRANCH   1   7
HETATM    7  C   LIG     1      17.397  37.591  25.671  1.00  0.00     0.358 C 
HETATM    8  N   LIG     1      17.753  36.574  26.602  1.00  0.00    -0.346 N 
HETATM    9  H   LIG     1      18.167  35.677  26.265  1.00  0.00     0.161 HD
HETATM   10  H   LIG     1      17.607  36.717  27.626  1.00  0.00     0.161 HD
HETATM   11  O   LIG     1      16.903  38.673  26.089  1.00  0.00    -0.239 OA
ENDBRANCH   1   7
TORSDOF 3
ENDMDL
MODEL 11
REMARK VINA RESULT:      -4.4     10.430     11.818
REMARK  3 active torsions:
REMARK  status: ('A' for Active; 'I' for Inactive)
REMARK    1  A    between atoms: C_2  and  C_5 
REMARK    2  A    between atoms: C_5  and  O_6 
REMARK    3  A    between atoms: O_6  and  C_7 
REMARK       I    between atoms: C_7  and  N_9 
ROOT
HETATM    1  O   LIG     1      18.833  33.293  13.071  1.00  0.00    -0.303 OA
ENDROOT
BRANCH   1   2
HETATM    2  C   LIG     1      19.078  33.990  11.847  1.00  0.00     0.189 C 
BRANCH   2   3
HETATM    3  C   LIG     1      20.572  33.907  11.455  1.00  0.00    -0.029 C 
HETATM    4  C   LIG     1      20.898  32.503  10.907  1.00  0.00     0.016 C 
HETATM    5  C   LIG     1      21.456  34.198  12.684  1.00  0.00     0.016 C 
HETATM    6  C   LIG     1      20.866  34.955  10.363  1.00  0.00     0.016 C 
ENDBRANCH   2   3
ENDBRANCH   1   2
BRANCH   1   7
HETATM    7  C   LIG     1      17.996  33.762  14.090  1.00  0.00     0.358 C 
HETATM    8  N   LIG     1      17.694  32.913  15.193  1.00  0.00    -0.346 N 
HETATM    9  H   LIG     1      18.095  31.950  15.238  1.00  0.00     0.161 HD
HETATM   10  H   LIG     1      17.073  33.245  15.964  1.00  0.00     0.161 HD
HETATM   11  O   LIG     1      17.511  34.925  14.048  1.00  0.00    -0.239 OA
ENDBRANCH   1   7
TORSDOF 3
ENDMDL
MODEL 12
REMARK VINA RESULT:      -4.2      1.766      2.304
REMARK  3 active torsions:
REMARK  status: ('A' for Active; 'I' for Inactive)
REMARK    1  A    between atoms: C_2  and  C_5 
REMARK    2  A    between atoms: C_5  and  O_6 
REMARK    3  A    between atoms: O_6  and  C_7 
REMARK       I    between atoms: C_7  and  N_9 
ROOT
HETATM    1  O   LIG     1      16.768  35.110  24.182  1.00  0.00    -0.303 OA
ENDROOT
BRANCH   1   2
HETATM    2  C   LIG     1      17.374  35.079  22.887  1.00  0.00     0.189 C 
BRANCH   2   3
HETATM    3  C   LIG     1      16.531  35.878  21.865  1.00  0.00    -0.029 C 
HETATM    4  C   LIG     1      16.070  37.212  22.485  1.00  0.00     0.016 C 
HETATM    5  C   LIG     1      15.299  35.054  21.441  1.00  0.00     0.016 C 
HETATM    6  C   LIG     1      17.393  36.172  20.620  1.00  0.00     0.016 C 
ENDBRANCH   2   3
ENDBRANCH   1   2
BRANCH   1   7
HETATM    7  C   LIG     1      17.438  35.472  25.356  1.00  0.00     0.358 C 
HETATM    8  N   LIG     1      17.392  36.825  25.798  1.00  0.00    -0.346 N 
HETATM    9  H   LIG     1      16.862  37.538  25.249  1.00  0.00     0.161 HD
HETATM   10  H   LIG     1      17.883  37.115  26.672  1.00  0.00     0.161 HD
HETATM   11  O   LIG     1      18.075  34.618  26.029  1.00  0.00    -0.239 OA
ENDBRANCH   1   7
TORSDOF 3
ENDMDL
MODEL 13
REMARK VINA RESULT:      -4.1      9.217     10.376
REMARK  3 active torsions:
REMARK  status: ('A' for Active; 'I' for Inactive)
REMARK    1  A    between atoms: C_2  and  C_5 
REMARK    2  A    between atoms: C_5  and  O_6 
REMARK    3  A    between atoms: O_6  and  C_7 
REMARK       I    between atoms: C_7  and  N_9 
ROOT
HETATM    1  O   LIG     1      14.922  31.090  15.231  1.00  0.00    -0.303 OA
ENDROOT
BRANCH   1   2
HETATM    2  C   LIG     1      15.583  32.151  15.925  1.00  0.00     0.189 C 
BRANCH   2   3
HETATM    3  C   LIG     1      14.685  32.716  17.051  1.00  0.00    -0.029 C 
HETATM    4  C   LIG     1      13.248  32.177  16.903  1.00  0.00     0.016 C 
HETATM    5  C   LIG     1      14.666  34.256  16.988  1.00  0.00     0.016 C 
HETATM    6  C   LIG     1      15.250  32.275  18.417  1.00  0.00     0.016 C 
ENDBRANCH   2   3
ENDBRANCH   1   2
BRANCH   1   7
HETATM    7  C   LIG     1      15.327  30.591  13.988  1.00  0.00     0.358 C 
HETATM    8  N   LIG     1      14.781  29.362  13.517  1.00  0.00    -0.346 N 
HETATM    9  H   LIG     1      14.085  28.842  14.095  1.00  0.00     0.161 HD
HETATM   10  H   LIG     1      15.069  28.974  12.591  1.00  0.00     0.161 HD
HETATM   11  O   LIG     1      16.163  31.214  13.279  1.00  0.00    -0.239 OA
ENDBRANCH   1   7
TORSDOF 3
ENDMDL
MODEL 14
REMARK VINA RESULT:      -4.0     10.902     12.024
REMARK  3 active torsions:
REMARK  status: ('A' for Active; 'I' for Inactive)
REMARK    1  A    between atoms: C_2  and  C_5 
REMARK    2  A    between atoms: C_5  and  O_6 
REMARK    3  A    between atoms: O_6  and  C_7 
REMARK       I    between atoms: C_7  and  N_9 
ROOT
HETATM    1  O   LIG     1      17.894  32.789  12.906  1.00  0.00    -0.303 OA
ENDROOT
BRANCH   1   2
HETATM    2  C   LIG     1      18.489  34.069  12.672  1.00  0.00     0.189 C 
BRANCH   2   3
HETATM    3  C   LIG     1      19.544  33.987  11.543  1.00  0.00    -0.029 C 
HETATM    4  C   LIG     1      20.941  34.328  12.099  1.00  0.00     0.016 C 
HETATM    5  C   LIG     1      19.184  34.972  10.414  1.00  0.00     0.016 C 
HETATM    6  C   LIG     1      19.564  32.554  10.974  1.00  0.00     0.016 C 
ENDBRANCH   2   3
ENDBRANCH   1   2
BRANCH   1   7
HETATM    7  C   LIG     1      16.653  32.600  13.525  1.00  0.00     0.358 C 
HETATM    8  N   LIG     1      15.785  31.575  13.052  1.00  0.00    -0.346 N 
HETATM    9  H   LIG     1      16.075  30.971  12.251  1.00  0.00     0.161 HD
HETATM   10  H   LIG     1      14.857  31.416  13.502  1.00  0.00     0.161 HD
HETATM   11  O   LIG     1      16.296  33.319  14.497  1.00  0.00    -0.239 OA
ENDBRANCH   1   7
TORSDOF 3
ENDMDL
MODEL 15
REMARK VINA RESULT:      -3.8      6.311      7.424
REMARK  3 active torsions:
REMARK  status: ('A' for Active; 'I' for Inactive)
REMARK    1  A    between atoms: C_2  and  C_5 
REMARK    2  A    between atoms: C_5  and  O_6 
REMARK    3  A    between atoms: O_6  and  C_7 
REMARK       I    between atoms: C_7  and  N_9 
ROOT
HETATM    1  O   LIG     1      15.517  32.484  18.643  1.00  0.00    -0.303 OA
ENDROOT
BRANCH   1   2
HETATM    2  C   LIG     1      14.470  31.618  18.197  1.00  0.00     0.189 C 
BRANCH   2   3
HETATM    3  C   LIG     1      14.116  31.898  16.718  1.00  0.00    -0.029 C 
HETATM    4  C   LIG     1      15.210  32.768  16.067  1.00  0.00     0.016 C 
HETATM    5  C   LIG     1      12.759  32.625  16.630  1.00  0.00     0.016 C 
HETATM    6  C   LIG     1      14.019  30.559  15.960  1.00  0.00     0.016 C 
ENDBRANCH   2   3
ENDBRANCH   1   2
BRANCH   1   7
HETATM    7  C   LIG     1      15.363  33.461  19.632  1.00  0.00     0.358 C 
HETATM    8  N   LIG     1      15.728  34.808  19.346  1.00  0.00    -0.346 N 
HETATM    9  H   LIG     1      16.106  35.060  18.407  1.00  0.00     0.161 HD
HETATM   10  H   LIG     1      15.618  35.553  20.070  1.00  0.00     0.161 HD
HETATM   11  O   LIG     1      14.902  33.169  20.768  1.00  0.00    -0.239 OA
ENDBRANCH   1   7
TORSDOF 3
ENDMDL
MODEL 16
REMARK VINA RESULT:      -3.5      8.581      9.637
REMARK  3 active torsions:
REMARK  status: ('A' for Active; 'I' for Inactive)
REMARK    1  A    between atoms: C_2  and  C_5 
REMARK    2  A    between atoms: C_5  and  O_6 
REMARK    3  A    between atoms: O_6  and  C_7 
REMARK       I    between atoms: C_7  and  N_9 
ROOT
HETATM    1  O   LIG     1      15.202  32.578  16.171  1.00  0.00    -0.303 OA
ENDROOT
BRANCH   1   2
HETATM    2  C   LIG     1      16.041  31.578  15.588  1.00  0.00     0.189 C 
BRANCH   2   3
HETATM    3  C   LIG     1      15.249  30.718  14.574  1.00  0.00    -0.029 C 
HETATM    4  C   LIG     1      15.814  29.284  14.540  1.00  0.00     0.016 C 
HETATM    5  C   LIG     1      15.342  31.342  13.168  1.00  0.00     0.016 C 
HETATM    6  C   LIG     1      13.769  30.666  15.005  1.00  0.00     0.016 C 
ENDBRANCH   2   3
ENDBRANCH   1   2
BRANCH   1   7
HETATM    7  C   LIG     1      15.631  33.868  16.505  1.00  0.00     0.358 C 
HETATM    8  N   LIG     1      15.151  34.476  17.701  1.00  0.00    -0.346 N 
HETATM    9  H   LIG     1      14.487  33.962  18.320  1.00  0.00     0.161 HD
HETATM   10  H   LIG     1      15.461  35.436  17.969  1.00  0.00     0.161 HD
HETATM   11  O   LIG     1      16.437  34.496  15.767  1.00  0.00    -0.239 OA
ENDBRANCH   1   7
TORSDOF 3
ENDMDL
MODEL 17
REMARK VINA RESULT:      -3.5      7.744      8.748
REMARK  3 active torsions:
REMARK  status: ('A' for Active; 'I' for Inactive)
REMARK    1  A    between atoms: C_2  and  C_5 
REMARK    2  A    between atoms: C_5  and  O_6 
REMARK    3  A    between atoms: O_6  and  C_7 
REMARK       I    between atoms: C_7  and  N_9 
ROOT
HETATM    1  O   LIG     1      14.664  32.264  16.851  1.00  0.00    -0.303 OA
ENDROOT
BRANCH   1   2
HETATM    2  C   LIG     1      15.355  33.039  15.868  1.00  0.00     0.189 C 
BRANCH   2   3
HETATM    3  C   LIG     1      16.149  32.126  14.905  1.00  0.00    -0.029 C 
HETATM    4  C   LIG     1      16.271  32.794  13.521  1.00  0.00     0.016 C 
HETATM    5  C   LIG     1      15.436  30.767  14.760  1.00  0.00     0.016 C 
HETATM    6  C   LIG     1      17.561  31.894  15.479  1.00  0.00     0.016 C 
ENDBRANCH   2   3
ENDBRANCH   1   2
BRANCH   1   7
HETATM    7  C   LIG     1      14.860  32.388  18.232  1.00  0.00     0.358 C 
HETATM    8  N   LIG     1      14.266  31.438  19.110  1.00  0.00    -0.346 N 
HETATM    9  H   LIG     1      13.690  30.657  18.725  1.00  0.00     0.161 HD
HETATM   10  H   LIG     1      14.402  31.512  20.143  1.00  0.00     0.161 HD
HETATM   11  O   LIG     1      15.558  33.325  18.707  1.00  0.00    -0.239 OA
ENDBRANCH   1   7
TORSDOF 3
ENDMDL
MODEL 18
REMARK VINA RESULT:      -3.5      9.160     10.274
REMARK  3 active torsions:
REMARK  status: ('A' for Active; 'I' for Inactive)
REMARK    1  A    between atoms: C_2  and  C_5 
REMARK    2  A    between atoms: C_5  and  O_6 
REMARK    3  A    between atoms: O_6  and  C_7 
REMARK       I    between atoms: C_7  and  N_9 
ROOT
HETATM    1  O   LIG     1      14.138  31.066  16.375  1.00  0.00    -0.303 OA
ENDROOT
BRANCH   1   2
HETATM    2  C   LIG     1      15.298  30.686  15.631  1.00  0.00     0.189 C 
BRANCH   2   3
HETATM    3  C   LIG     1      14.900  30.039  14.283  1.00  0.00    -0.029 C 
HETATM    4  C   LIG     1      15.586  28.667  14.131  1.00  0.00     0.016 C 
HETATM    5  C   LIG     1      15.317  30.956  13.115  1.00  0.00     0.016 C 
HETATM    6  C   LIG     1      13.371  29.844  14.249  1.00  0.00     0.016 C 
ENDBRANCH   2   3
ENDBRANCH   1   2
BRANCH   1   7
HETATM    7  C   LIG     1      14.155  31.945  17.464  1.00  0.00     0.358 C 
HETATM    8  N   LIG     1      14.143  33.350  17.228  1.00  0.00    -0.346 N 
HETATM    9  H   LIG     1      14.122  33.717  16.252  1.00  0.00     0.161 HD
HETATM   10  H   LIG     1      14.153  34.022  18.027  1.00  0.00     0.161 HD
HETATM   11  O   LIG     1      14.176  31.512  18.647  1.00  0.00    -0.239 OA
ENDBRANCH   1   7
TORSDOF 3
ENDMDL
MODEL 19
REMARK VINA RESULT:      -3.4      8.722      9.369
REMARK  3 active torsions:
REMARK  status: ('A' for Active; 'I' for Inactive)
REMARK    1  A    between atoms: C_2  and  C_5 
REMARK    2  A    between atoms: C_5  and  O_6 
REMARK    3  A    between atoms: O_6  and  C_7 
REMARK       I    between atoms: C_7  and  N_9 
ROOT
HETATM    1  O   LIG     1      14.732  31.972  16.197  1.00  0.00    -0.303 OA
ENDROOT
BRANCH   1   2
HETATM    2  C   LIG     1      15.500  33.153  15.950  1.00  0.00     0.189 C 
BRANCH   2   3
HETATM    3  C   LIG     1      16.670  32.856  14.981  1.00  0.00    -0.029 C 
HETATM    4  C   LIG     1      17.590  31.772  15.578  1.00  0.00     0.016 C 
HETATM    5  C   LIG     1      17.483  34.141  14.730  1.00  0.00     0.016 C 
HETATM    6  C   LIG     1      16.099  32.351  13.641  1.00  0.00     0.016 C 
ENDBRANCH   2   3
ENDBRANCH   1   2
BRANCH   1   7
HETATM    7  C   LIG     1      13.840  31.823  17.265  1.00  0.00     0.358 C 
HETATM    8  N   LIG     1      12.464  32.136  17.074  1.00  0.00    -0.346 N 
HETATM    9  H   LIG     1      12.127  32.474  16.146  1.00  0.00     0.161 HD
HETATM   10  H   LIG     1      11.782  32.029  17.858  1.00  0.00     0.161 HD
HETATM   11  O   LIG     1      14.236  31.411  18.388  1.00  0.00    -0.239 OA
ENDBRANCH   1   7
TORSDOF 3
ENDMDL
