REMARK  5 active torsions:
REMARK  status: ('A' for Active; 'I' for Inactive)
REMARK    1  A    between atoms: C_2  and  C_5 
REMARK    2  A    between atoms: C_9  and  C_10 
REMARK    3  A    between atoms: C_10  and  C_22 
REMARK    4  A    between atoms: C_10  and  C_11 
REMARK    5  A    between atoms: C_10  and  N_17 
ROOT
HETATM    1  C   LIG     1      -0.272  -0.206   0.396  1.00  0.00     0.138 C 
ENDROOT
BRANCH   1   2
HETATM    2  C   LIG     1       1.210  -0.044   0.000  1.00  0.00    -0.018 A 
HETATM    3  C   LIG     1       2.076  -1.159  -0.044  1.00  0.00     0.010 A 
HETATM    4  C   LIG     1       3.437  -0.998  -0.306  1.00  0.00     0.002 A 
HETATM    5  C   LIG     1       3.974   0.276  -0.476  1.00  0.00     0.016 A 
HETATM    6  C   LIG     1       3.160   1.411  -0.354  1.00  0.00     0.048 A 
HETATM    7  C   LIG     1       1.788   1.244  -0.089  1.00  0.00     0.026 A 
BRANCH   6   8
HETATM    8  C   LIG     1       3.780   2.779  -0.491  1.00  0.00     0.417 C 
HETATM    9  F   LIG     1       4.362   2.897  -1.740  1.00  0.00    -0.166 F 
HETATM   10  F   LIG     1       4.754   2.942   0.478  1.00  0.00    -0.166 F 
HETATM   11  F   LIG     1       2.841   3.787  -0.345  1.00  0.00    -0.166 F 
ENDBRANCH   6   8
ENDBRANCH   1   2
BRANCH   1  12
HETATM   12  C   LIG     1      -0.882  -1.540  -0.078  1.00  0.00    -0.019 A 
HETATM   13  C   LIG     1      -0.580  -2.055  -1.359  1.00  0.00     0.010 A 
HETATM   14  C   LIG     1      -1.198  -3.216  -1.830  1.00  0.00     0.001 A 
HETATM   15  C   LIG     1      -2.163  -3.860  -1.055  1.00  0.00     0.000 A 
HETATM   16  C   LIG     1      -2.526  -3.330   0.183  1.00  0.00     0.001 A 
HETATM   17  C   LIG     1      -1.911  -2.170   0.659  1.00  0.00     0.010 A 
ENDBRANCH   1  12
BRANCH   1  18
HETATM   18  C   LIG     1      -1.178   0.867  -0.242  1.00  0.00    -0.019 A 
HETATM   19  C   LIG     1      -2.378   1.264   0.390  1.00  0.00     0.010 A 
HETATM   20  C   LIG     1      -3.247   2.169  -0.225  1.00  0.00     0.001 A 
HETATM   21  C   LIG     1      -2.961   2.661  -1.498  1.00  0.00     0.000 A 
HETATM   22  C   LIG     1      -1.815   2.232  -2.168  1.00  0.00     0.001 A 
HETATM   23  C   LIG     1      -0.943   1.326  -1.558  1.00  0.00     0.010 A 
ENDBRANCH   1  18
BRANCH   1  24
HETATM   24  N   LIG     1      -0.280  -0.101   1.873  1.00  0.00    -0.238 N 
HETATM   25  C   LIG     1       0.098  -1.052   2.752  1.00  0.00     0.232 A 
HETATM   26  N   LIG     1       0.212  -0.558   4.000  1.00  0.00    -0.234 NA
HETATM   27  C   LIG     1      -0.084   0.746   3.823  1.00  0.00     0.256 A 
HETATM   28  N   LIG     1      -0.351   1.041   2.538  1.00  0.00    -0.163 NA
ENDBRANCH   1  24
TORSDOF 5
