MODEL 1
REMARK VINA RESULT:      -5.9      0.000      0.000
REMARK  5 active torsions:
REMARK  status: ('A' for Active; 'I' for Inactive)
REMARK    1  A    between atoms: C_2  and  C_5 
REMARK    2  A    between atoms: C_9  and  C_10 
REMARK    3  A    between atoms: C_10  and  C_22 
REMARK    4  A    between atoms: C_10  and  C_11 
REMARK    5  A    between atoms: C_10  and  N_17 
ROOT
HETATM    1  C   LIG     1      27.818  23.588  20.609  1.00  0.00     0.138 C 
ENDROOT
BRANCH   1   2
HETATM    2  C   LIG     1      26.479  23.002  20.119  1.00  0.00    -0.018 A 
HETATM    3  C   LIG     1      26.325  22.556  18.787  1.00  0.00     0.010 A 
HETATM    4  C   LIG     1      25.086  22.118  18.318  1.00  0.00     0.002 A 
HETATM    5  C   LIG     1      23.965  22.164  19.144  1.00  0.00     0.016 A 
HETATM    6  C   LIG     1      24.063  22.680  20.443  1.00  0.00     0.048 A 
HETATM    7  C   LIG     1      25.314  23.122  20.913  1.00  0.00     0.026 A 
BRANCH   6   8
HETATM    8  C   LIG     1      22.822  22.766  21.296  1.00  0.00     0.417 C 
HETATM    9  F   LIG     1      21.702  22.715  20.485  1.00  0.00    -0.166 F 
HETATM   10  F   LIG     1      22.822  23.963  21.990  1.00  0.00    -0.166 F 
HETATM   11  F   LIG     1      22.752  21.728  22.210  1.00  0.00    -0.166 F 
ENDBRANCH   6   8
ENDBRANCH   1   2
BRANCH   1  12
HETATM   12  C   LIG     1      27.739  24.167  22.035  1.00  0.00    -0.019 A 
HETATM   13  C   LIG     1      28.398  25.374  22.360  1.00  0.00     0.010 A 
HETATM   14  C   LIG     1      28.405  25.858  23.671  1.00  0.00     0.001 A 
HETATM   15  C   LIG     1      27.798  25.125  24.692  1.00  0.00     0.000 A 
HETATM   16  C   LIG     1      27.202  23.898  24.405  1.00  0.00     0.001 A 
HETATM   17  C   LIG     1      27.191  23.410  23.096  1.00  0.00     0.010 A 
ENDBRANCH   1  12
BRANCH   1  18
HETATM   18  C   LIG     1      28.297  24.776  19.749  1.00  0.00    -0.019 A 
HETATM   19  C   LIG     1      27.486  25.922  19.591  1.00  0.00     0.010 A 
HETATM   20  C   LIG     1      27.873  26.963  18.743  1.00  0.00     0.001 A 
HETATM   21  C   LIG     1      29.051  26.863  18.004  1.00  0.00     0.000 A 
HETATM   22  C   LIG     1      29.834  25.712  18.095  1.00  0.00     0.001 A 
HETATM   23  C   LIG     1      29.451  24.668  18.940  1.00  0.00     0.010 A 
ENDBRANCH   1  18
BRANCH   1  24
HETATM   24  N   LIG     1      28.773  22.458  20.535  1.00  0.00    -0.238 N 
HETATM   25  C   LIG     1      30.012  22.411  21.066  1.00  0.00     0.232 A 
HETATM   26  N   LIG     1      30.516  21.163  21.042  1.00  0.00    -0.234 NA
HETATM   27  C   LIG     1      29.506  20.453  20.500  1.00  0.00     0.256 A 
HETATM   28  N   LIG     1      28.435  21.218  20.219  1.00  0.00    -0.163 NA
ENDBRANCH   1  24
TORSDOF 5
ENDMDL
MODEL 2
REMARK VINA RESULT:      -5.8      2.706      5.815
REMARK  5 active torsions:
REMARK  status: ('A' for Active; 'I' for Inactive)
REMARK    1  A    between atoms: C_2  and  C_5 
REMARK    2  A    between atoms: C_9  and  C_10 
REMARK    3  A    between atoms: C_10  and  C_22 
REMARK    4  A    between atoms: C_10  and  C_11 
REMARK    5  A    between atoms: C_10  and  N_17 
ROOT
HETATM    1  C   LIG     1      26.082  22.360  22.260  1.00  0.00     0.138 C 
ENDROOT
BRANCH   1   2
HETATM    2  C   LIG     1      26.987  23.522  21.800  1.00  0.00    -0.018 A 
HETATM    3  C   LIG     1      27.973  24.057  22.657  1.00  0.00     0.010 A 
HETATM    4  C   LIG     1      28.723  25.171  22.278  1.00  0.00     0.002 A 
HETATM    5  C   LIG     1      28.473  25.806  21.063  1.00  0.00     0.016 A 
HETATM    6  C   LIG     1      27.444  25.354  20.225  1.00  0.00     0.048 A 
HETATM    7  C   LIG     1      26.689  24.231  20.613  1.00  0.00     0.026 A 
BRANCH   6   8
HETATM    8  C   LIG     1      27.162  26.094  18.942  1.00  0.00     0.417 C 
HETATM    9  F   LIG     1      25.795  26.182  18.753  1.00  0.00    -0.166 F 
HETATM   10  F   LIG     1      27.721  25.403  17.880  1.00  0.00    -0.166 F 
HETATM   11  F   LIG     1      27.689  27.375  18.959  1.00  0.00    -0.166 F 
ENDBRANCH   6   8
ENDBRANCH   1   2
BRANCH   1  12
HETATM   12  C   LIG     1      24.735  22.311  21.512  1.00  0.00    -0.019 A 
HETATM   13  C   LIG     1      23.681  23.183  21.867  1.00  0.00     0.010 A 
HETATM   14  C   LIG     1      22.429  23.083  21.255  1.00  0.00     0.001 A 
HETATM   15  C   LIG     1      22.188  22.084  20.312  1.00  0.00     0.000 A 
HETATM   16  C   LIG     1      23.193  21.170  19.996  1.00  0.00     0.001 A 
HETATM   17  C   LIG     1      24.446  21.265  20.605  1.00  0.00     0.010 A 
ENDBRANCH   1  12
BRANCH   1  18
HETATM   18  C   LIG     1      25.681  22.472  23.745  1.00  0.00    -0.019 A 
HETATM   19  C   LIG     1      24.691  21.622  24.289  1.00  0.00     0.010 A 
HETATM   20  C   LIG     1      24.259  21.778  25.609  1.00  0.00     0.001 A 
HETATM   21  C   LIG     1      24.771  22.808  26.397  1.00  0.00     0.000 A 
HETATM   22  C   LIG     1      25.700  23.699  25.860  1.00  0.00     0.001 A 
HETATM   23  C   LIG     1      26.135  23.549  24.540  1.00  0.00     0.010 A 
ENDBRANCH   1  18
BRANCH   1  24
HETATM   24  N   LIG     1      26.883  21.139  22.014  1.00  0.00    -0.238 N 
HETATM   25  C   LIG     1      27.707  20.911  20.971  1.00  0.00     0.232 A 
HETATM   26  N   LIG     1      28.474  19.822  21.173  1.00  0.00    -0.234 NA
HETATM   27  C   LIG     1      28.094  19.425  22.405  1.00  0.00     0.256 A 
HETATM   28  N   LIG     1      27.158  20.231  22.937  1.00  0.00    -0.163 NA
ENDBRANCH   1  24
TORSDOF 5
ENDMDL
MODEL 3
REMARK VINA RESULT:      -5.7      1.918      3.343
REMARK  5 active torsions:
REMARK  status: ('A' for Active; 'I' for Inactive)
REMARK    1  A    between atoms: C_2  and  C_5 
REMARK    2  A    between atoms: C_9  and  C_10 
REMARK    3  A    between atoms: C_10  and  C_22 
REMARK    4  A    between atoms: C_10  and  C_11 
REMARK    5  A    between atoms: C_10  and  N_17 
ROOT
HETATM    1  C   LIG     1      27.046  22.107  18.996  1.00  0.00     0.138 C 
ENDROOT
BRANCH   1   2
HETATM    2  C   LIG     1      25.530  21.845  19.100  1.00  0.00    -0.018 A 
HETATM    3  C   LIG     1      24.791  21.401  17.981  1.00  0.00     0.010 A 
HETATM    4  C   LIG     1      23.404  21.259  18.049  1.00  0.00     0.002 A 
HETATM    5  C   LIG     1      22.719  21.606  19.211  1.00  0.00     0.016 A 
HETATM    6  C   LIG     1      23.410  22.131  20.313  1.00  0.00     0.048 A 
HETATM    7  C   LIG     1      24.808  22.273  20.239  1.00  0.00     0.026 A 
BRANCH   6   8
HETATM    8  C   LIG     1      22.635  22.546  21.538  1.00  0.00     0.417 C 
HETATM    9  F   LIG     1      21.473  23.188  21.151  1.00  0.00    -0.166 F 
HETATM   10  F   LIG     1      23.400  23.415  22.294  1.00  0.00    -0.166 F 
HETATM   11  F   LIG     1      22.296  21.458  22.326  1.00  0.00    -0.166 F 
ENDBRANCH   6   8
ENDBRANCH   1   2
BRANCH   1  12
HETATM   12  C   LIG     1      27.433  23.560  19.335  1.00  0.00    -0.019 A 
HETATM   13  C   LIG     1      28.278  23.842  20.433  1.00  0.00     0.010 A 
HETATM   14  C   LIG     1      28.561  25.159  20.801  1.00  0.00     0.001 A 
HETATM   15  C   LIG     1      27.971  26.221  20.114  1.00  0.00     0.000 A 
HETATM   16  C   LIG     1      27.080  25.964  19.072  1.00  0.00     0.001 A 
HETATM   17  C   LIG     1      26.795  24.649  18.699  1.00  0.00     0.010 A 
ENDBRANCH   1  12
BRANCH   1  18
HETATM   18  C   LIG     1      27.588  21.900  17.566  1.00  0.00    -0.019 A 
HETATM   19  C   LIG     1      27.372  20.681  16.884  1.00  0.00     0.010 A 
HETATM   20  C   LIG     1      27.935  20.454  15.626  1.00  0.00     0.001 A 
HETATM   21  C   LIG     1      28.759  21.416  15.043  1.00  0.00     0.000 A 
HETATM   22  C   LIG     1      29.039  22.599  15.727  1.00  0.00     0.001 A 
HETATM   23  C   LIG     1      28.479  22.831  16.986  1.00  0.00     0.010 A 
ENDBRANCH   1  18
BRANCH   1  24
HETATM   24  N   LIG     1      27.659  21.147  19.942  1.00  0.00    -0.238 N 
HETATM   25  C   LIG     1      27.018  20.207  20.667  1.00  0.00     0.232 A 
HETATM   26  N   LIG     1      27.881  19.339  21.229  1.00  0.00    -0.234 NA
HETATM   27  C   LIG     1      29.073  19.784  20.779  1.00  0.00     0.256 A 
HETATM   28  N   LIG     1      28.949  20.855  19.975  1.00  0.00    -0.163 NA
ENDBRANCH   1  24
TORSDOF 5
ENDMDL
MODEL 4
REMARK VINA RESULT:      -5.7      2.337      5.265
REMARK  5 active torsions:
REMARK  status: ('A' for Active; 'I' for Inactive)
REMARK    1  A    between atoms: C_2  and  C_5 
REMARK    2  A    between atoms: C_9  and  C_10 
REMARK    3  A    between atoms: C_10  and  C_22 
REMARK    4  A    between atoms: C_10  and  C_11 
REMARK    5  A    between atoms: C_10  and  N_17 
ROOT
HETATM    1  C   LIG     1      26.341  22.668  21.377  1.00  0.00     0.138 C 
ENDROOT
BRANCH   1   2
HETATM    2  C   LIG     1      26.606  23.348  22.736  1.00  0.00    -0.018 A 
HETATM    3  C   LIG     1      27.663  24.271  22.893  1.00  0.00     0.010 A 
HETATM    4  C   LIG     1      27.962  24.811  24.144  1.00  0.00     0.002 A 
HETATM    5  C   LIG     1      27.254  24.404  25.273  1.00  0.00     0.016 A 
HETATM    6  C   LIG     1      26.255  23.425  25.168  1.00  0.00     0.048 A 
HETATM    7  C   LIG     1      25.957  22.884  23.904  1.00  0.00     0.026 A 
BRANCH   6   8
HETATM    8  C   LIG     1      25.542  22.967  26.416  1.00  0.00     0.417 C 
HETATM    9  F   LIG     1      24.196  22.803  26.142  1.00  0.00    -0.166 F 
HETATM   10  F   LIG     1      25.688  23.921  27.407  1.00  0.00    -0.166 F 
HETATM   11  F   LIG     1      26.045  21.765  26.885  1.00  0.00    -0.166 F 
ENDBRANCH   6   8
ENDBRANCH   1   2
BRANCH   1  12
HETATM   12  C   LIG     1      26.873  23.482  20.181  1.00  0.00    -0.019 A 
HETATM   13  C   LIG     1      26.370  24.774  19.908  1.00  0.00     0.010 A 
HETATM   14  C   LIG     1      26.782  25.480  18.775  1.00  0.00     0.001 A 
HETATM   15  C   LIG     1      27.666  24.895  17.867  1.00  0.00     0.000 A 
HETATM   16  C   LIG     1      28.121  23.595  18.082  1.00  0.00     0.001 A 
HETATM   17  C   LIG     1      27.713  22.884  19.213  1.00  0.00     0.010 A 
ENDBRANCH   1  12
BRANCH   1  18
HETATM   18  C   LIG     1      24.837  22.503  21.078  1.00  0.00    -0.019 A 
HETATM   19  C   LIG     1      24.404  21.924  19.864  1.00  0.00     0.010 A 
HETATM   20  C   LIG     1      23.045  21.853  19.548  1.00  0.00     0.001 A 
HETATM   21  C   LIG     1      22.095  22.397  20.411  1.00  0.00     0.000 A 
HETATM   22  C   LIG     1      22.504  23.032  21.584  1.00  0.00     0.001 A 
HETATM   23  C   LIG     1      23.863  23.107  21.904  1.00  0.00     0.010 A 
ENDBRANCH   1  18
BRANCH   1  24
HETATM   24  N   LIG     1      27.012  21.352  21.478  1.00  0.00    -0.238 N 
HETATM   25  C   LIG     1      28.296  21.125  21.824  1.00  0.00     0.232 A 
HETATM   26  N   LIG     1      28.521  19.819  22.068  1.00  0.00    -0.234 NA
HETATM   27  C   LIG     1      27.301  19.276  21.884  1.00  0.00     0.256 A 
HETATM   28  N   LIG     1      26.374  20.195  21.559  1.00  0.00    -0.163 NA
ENDBRANCH   1  24
TORSDOF 5
ENDMDL
MODEL 5
REMARK VINA RESULT:      -5.7      2.957      5.676
REMARK  5 active torsions:
REMARK  status: ('A' for Active; 'I' for Inactive)
REMARK    1  A    between atoms: C_2  and  C_5 
REMARK    2  A    between atoms: C_9  and  C_10 
REMARK    3  A    between atoms: C_10  and  C_22 
REMARK    4  A    between atoms: C_10  and  C_11 
REMARK    5  A    between atoms: C_10  and  N_17 
ROOT
HETATM    1  C   LIG     1      26.331  22.562  21.387  1.00  0.00     0.138 C 
ENDROOT
BRANCH   1   2
HETATM    2  C   LIG     1      26.619  23.131  22.792  1.00  0.00    -0.018 A 
HETATM    3  C   LIG     1      25.794  22.806  23.891  1.00  0.00     0.010 A 
HETATM    4  C   LIG     1      25.996  23.398  25.138  1.00  0.00     0.002 A 
HETATM    5  C   LIG     1      26.986  24.364  25.304  1.00  0.00     0.016 A 
HETATM    6  C   LIG     1      27.768  24.774  24.215  1.00  0.00     0.048 A 
HETATM    7  C   LIG     1      27.560  24.174  22.959  1.00  0.00     0.026 A 
BRANCH   6   8
HETATM    8  C   LIG     1      28.796  25.859  24.415  1.00  0.00     0.417 C 
HETATM    9  F   LIG     1      30.027  25.414  23.969  1.00  0.00    -0.166 F 
HETATM   10  F   LIG     1      28.887  26.165  25.761  1.00  0.00    -0.166 F 
HETATM   11  F   LIG     1      28.468  27.013  23.723  1.00  0.00    -0.166 F 
ENDBRANCH   6   8
ENDBRANCH   1   2
BRANCH   1  12
HETATM   12  C   LIG     1      26.865  23.457  20.251  1.00  0.00    -0.019 A 
HETATM   13  C   LIG     1      26.315  24.739  20.026  1.00  0.00     0.010 A 
HETATM   14  C   LIG     1      26.731  25.519  18.944  1.00  0.00     0.001 A 
HETATM   15  C   LIG     1      27.667  25.018  18.038  1.00  0.00     0.000 A 
HETATM   16  C   LIG     1      28.171  23.728  18.203  1.00  0.00     0.001 A 
HETATM   17  C   LIG     1      27.759  22.945  19.283  1.00  0.00     0.010 A 
ENDBRANCH   1  12
BRANCH   1  18
HETATM   18  C   LIG     1      24.822  22.443  21.093  1.00  0.00    -0.019 A 
HETATM   19  C   LIG     1      24.368  21.906  19.867  1.00  0.00     0.010 A 
HETATM   20  C   LIG     1      23.006  21.878  19.557  1.00  0.00     0.001 A 
HETATM   21  C   LIG     1      22.074  22.424  20.439  1.00  0.00     0.000 A 
HETATM   22  C   LIG     1      22.506  23.019  21.625  1.00  0.00     0.001 A 
HETATM   23  C   LIG     1      23.867  23.051  21.940  1.00  0.00     0.010 A 
ENDBRANCH   1  18
BRANCH   1  24
HETATM   24  N   LIG     1      26.982  21.232  21.380  1.00  0.00    -0.238 N 
HETATM   25  C   LIG     1      28.230  20.941  21.802  1.00  0.00     0.232 A 
HETATM   26  N   LIG     1      28.424  19.612  21.900  1.00  0.00    -0.234 NA
HETATM   27  C   LIG     1      27.220  19.117  21.547  1.00  0.00     0.256 A 
HETATM   28  N   LIG     1      26.331  20.085  21.263  1.00  0.00    -0.163 NA
ENDBRANCH   1  24
TORSDOF 5
ENDMDL
MODEL 6
REMARK VINA RESULT:      -5.6      1.642      2.663
REMARK  5 active torsions:
REMARK  status: ('A' for Active; 'I' for Inactive)
REMARK    1  A    between atoms: C_2  and  C_5 
REMARK    2  A    between atoms: C_9  and  C_10 
REMARK    3  A    between atoms: C_10  and  C_22 
REMARK    4  A    between atoms: C_10  and  C_11 
REMARK    5  A    between atoms: C_10  and  N_17 
ROOT
HETATM    1  C   LIG     1      27.957  23.433  21.856  1.00  0.00     0.138 C 
ENDROOT
BRANCH   1   2
HETATM    2  C   LIG     1      26.632  23.087  22.566  1.00  0.00    -0.018 A 
HETATM    3  C   LIG     1      26.619  22.671  23.916  1.00  0.00     0.010 A 
HETATM    4  C   LIG     1      25.432  22.264  24.527  1.00  0.00     0.002 A 
HETATM    5  C   LIG     1      24.247  22.212  23.797  1.00  0.00     0.016 A 
HETATM    6  C   LIG     1      24.240  22.536  22.433  1.00  0.00     0.048 A 
HETATM    7  C   LIG     1      25.439  22.945  21.820  1.00  0.00     0.026 A 
BRANCH   6   8
HETATM    8  C   LIG     1      22.952  22.419  21.656  1.00  0.00     0.417 C 
HETATM    9  F   LIG     1      22.141  21.470  22.251  1.00  0.00    -0.166 F 
HETATM   10  F   LIG     1      23.231  22.025  20.359  1.00  0.00    -0.166 F 
HETATM   11  F   LIG     1      22.266  23.621  21.613  1.00  0.00    -0.166 F 
ENDBRANCH   6   8
ENDBRANCH   1   2
BRANCH   1  12
HETATM   12  C   LIG     1      28.720  24.591  22.530  1.00  0.00    -0.019 A 
HETATM   13  C   LIG     1      28.193  25.229  23.676  1.00  0.00     0.010 A 
HETATM   14  C   LIG     1      28.833  26.336  24.239  1.00  0.00     0.001 A 
HETATM   15  C   LIG     1      29.983  26.858  23.645  1.00  0.00     0.000 A 
HETATM   16  C   LIG     1      30.480  26.286  22.474  1.00  0.00     0.001 A 
HETATM   17  C   LIG     1      29.845  25.179  21.907  1.00  0.00     0.010 A 
ENDBRANCH   1  12
BRANCH   1  18
HETATM   18  C   LIG     1      27.745  23.919  20.407  1.00  0.00    -0.019 A 
HETATM   19  C   LIG     1      26.956  25.060  20.138  1.00  0.00     0.010 A 
HETATM   20  C   LIG     1      26.687  25.453  18.825  1.00  0.00     0.001 A 
HETATM   21  C   LIG     1      27.160  24.693  17.755  1.00  0.00     0.000 A 
HETATM   22  C   LIG     1      27.885  23.526  17.998  1.00  0.00     0.001 A 
HETATM   23  C   LIG     1      28.156  23.128  19.310  1.00  0.00     0.010 A 
ENDBRANCH   1  18
BRANCH   1  24
HETATM   24  N   LIG     1      28.740  22.177  21.888  1.00  0.00    -0.238 N 
HETATM   25  C   LIG     1      29.885  21.957  22.566  1.00  0.00     0.232 A 
HETATM   26  N   LIG     1      30.204  20.648  22.592  1.00  0.00    -0.234 NA
HETATM   27  C   LIG     1      29.175  20.087  21.924  1.00  0.00     0.256 A 
HETATM   28  N   LIG     1      28.268  20.996  21.522  1.00  0.00    -0.163 NA
ENDBRANCH   1  24
TORSDOF 5
ENDMDL
MODEL 7
REMARK VINA RESULT:      -5.6      2.374      5.200
REMARK  5 active torsions:
REMARK  status: ('A' for Active; 'I' for Inactive)
REMARK    1  A    between atoms: C_2  and  C_5 
REMARK    2  A    between atoms: C_9  and  C_10 
REMARK    3  A    between atoms: C_10  and  C_22 
REMARK    4  A    between atoms: C_10  and  C_11 
REMARK    5  A    between atoms: C_10  and  N_17 
ROOT
HETATM    1  C   LIG     1      27.076  22.329  18.961  1.00  0.00     0.138 C 
ENDROOT
BRANCH   1   2
HETATM    2  C   LIG     1      25.569  22.030  19.098  1.00  0.00    -0.018 A 
HETATM    3  C   LIG     1      24.807  21.613  17.984  1.00  0.00     0.010 A 
HETATM    4  C   LIG     1      23.426  21.438  18.087  1.00  0.00     0.002 A 
HETATM    5  C   LIG     1      22.768  21.725  19.281  1.00  0.00     0.016 A 
HETATM    6  C   LIG     1      23.480  22.222  20.381  1.00  0.00     0.048 A 
HETATM    7  C   LIG     1      24.872  22.397  20.273  1.00  0.00     0.026 A 
BRANCH   6   8
HETATM    8  C   LIG     1      22.733  22.573  21.643  1.00  0.00     0.417 C 
HETATM    9  F   LIG     1      22.374  21.411  22.303  1.00  0.00    -0.166 F 
HETATM   10  F   LIG     1      21.588  23.279  21.319  1.00  0.00    -0.166 F 
HETATM   11  F   LIG     1      23.500  23.347  22.498  1.00  0.00    -0.166 F 
ENDBRANCH   6   8
ENDBRANCH   1   2
BRANCH   1  12
HETATM   12  C   LIG     1      27.644  21.948  17.580  1.00  0.00    -0.019 A 
HETATM   13  C   LIG     1      27.522  20.628  17.090  1.00  0.00     0.010 A 
HETATM   14  C   LIG     1      28.112  20.254  15.880  1.00  0.00     0.001 A 
HETATM   15  C   LIG     1      28.875  21.173  15.159  1.00  0.00     0.000 A 
HETATM   16  C   LIG     1      29.066  22.461  15.659  1.00  0.00     0.001 A 
HETATM   17  C   LIG     1      28.478  22.841  16.867  1.00  0.00     0.010 A 
ENDBRANCH   1  12
BRANCH   1  18
HETATM   18  C   LIG     1      27.935  21.519  19.955  1.00  0.00    -0.019 A 
HETATM   19  C   LIG     1      29.340  21.668  19.978  1.00  0.00     0.010 A 
HETATM   20  C   LIG     1      30.131  20.874  20.813  1.00  0.00     0.001 A 
HETATM   21  C   LIG     1      29.544  19.888  21.605  1.00  0.00     0.000 A 
HETATM   22  C   LIG     1      28.166  19.680  21.549  1.00  0.00     0.001 A 
HETATM   23  C   LIG     1      27.370  20.470  20.715  1.00  0.00     0.010 A 
ENDBRANCH   1  18
BRANCH   1  24
HETATM   24  N   LIG     1      27.195  23.783  19.215  1.00  0.00    -0.238 N 
HETATM   25  C   LIG     1      26.541  24.771  18.569  1.00  0.00     0.232 A 
HETATM   26  N   LIG     1      26.677  25.952  19.202  1.00  0.00    -0.234 NA
HETATM   27  C   LIG     1      27.418  25.620  20.279  1.00  0.00     0.256 A 
HETATM   28  N   LIG     1      27.710  24.307  20.315  1.00  0.00    -0.163 NA
ENDBRANCH   1  24
TORSDOF 5
ENDMDL
MODEL 8
REMARK VINA RESULT:      -5.3      2.718      5.274
REMARK  5 active torsions:
REMARK  status: ('A' for Active; 'I' for Inactive)
REMARK    1  A    between atoms: C_2  and  C_5 
REMARK    2  A    between atoms: C_9  and  C_10 
REMARK    3  A    between atoms: C_10  and  C_22 
REMARK    4  A    between atoms: C_10  and  C_11 
REMARK    5  A    between atoms: C_10  and  N_17 
ROOT
HETATM    1  C   LIG     1      26.196  22.046  20.835  1.00  0.00     0.138 C 
ENDROOT
BRANCH   1   2
HETATM    2  C   LIG     1      25.929  22.376  22.318  1.00  0.00    -0.018 A 
HETATM    3  C   LIG     1      24.717  21.998  22.939  1.00  0.00     0.010 A 
HETATM    4  C   LIG     1      24.436  22.382  24.251  1.00  0.00     0.002 A 
HETATM    5  C   LIG     1      25.325  23.193  24.952  1.00  0.00     0.016 A 
HETATM    6  C   LIG     1      26.497  23.657  24.338  1.00  0.00     0.048 A 
HETATM    7  C   LIG     1      26.777  23.268  23.015  1.00  0.00     0.026 A 
BRANCH   6   8
HETATM    8  C   LIG     1      27.415  24.576  25.105  1.00  0.00     0.417 C 
HETATM    9  F   LIG     1      27.729  25.671  24.321  1.00  0.00    -0.166 F 
HETATM   10  F   LIG     1      28.579  23.900  25.425  1.00  0.00    -0.166 F 
HETATM   11  F   LIG     1      26.831  25.026  26.278  1.00  0.00    -0.166 F 
ENDBRANCH   6   8
ENDBRANCH   1   2
BRANCH   1  12
HETATM   12  C   LIG     1      26.608  23.279  20.007  1.00  0.00    -0.019 A 
HETATM   13  C   LIG     1      27.866  23.327  19.364  1.00  0.00     0.010 A 
HETATM   14  C   LIG     1      28.283  24.476  18.687  1.00  0.00     0.001 A 
HETATM   15  C   LIG     1      27.477  25.614  18.676  1.00  0.00     0.000 A 
HETATM   16  C   LIG     1      26.262  25.612  19.363  1.00  0.00     0.001 A 
HETATM   17  C   LIG     1      25.841  24.466  20.041  1.00  0.00     0.010 A 
ENDBRANCH   1  12
BRANCH   1  18
HETATM   18  C   LIG     1      24.944  21.510  20.111  1.00  0.00    -0.019 A 
HETATM   19  C   LIG     1      24.397  20.254  20.454  1.00  0.00     0.010 A 
HETATM   20  C   LIG     1      23.318  19.723  19.742  1.00  0.00     0.001 A 
HETATM   21  C   LIG     1      22.793  20.411  18.649  1.00  0.00     0.000 A 
HETATM   22  C   LIG     1      23.360  21.622  18.252  1.00  0.00     0.001 A 
HETATM   23  C   LIG     1      24.440  22.157  18.959  1.00  0.00     0.010 A 
ENDBRANCH   1  18
BRANCH   1  24
HETATM   24  N   LIG     1      27.271  21.029  20.864  1.00  0.00    -0.238 N 
HETATM   25  C   LIG     1      27.834  20.479  21.961  1.00  0.00     0.232 A 
HETATM   26  N   LIG     1      28.594  19.413  21.647  1.00  0.00    -0.234 NA
HETATM   27  C   LIG     1      28.435  19.327  20.311  1.00  0.00     0.256 A 
HETATM   28  N   LIG     1      27.613  20.277  19.830  1.00  0.00    -0.163 NA
ENDBRANCH   1  24
TORSDOF 5
ENDMDL
MODEL 9
REMARK VINA RESULT:      -5.2      2.401      5.257
REMARK  5 active torsions:
REMARK  status: ('A' for Active; 'I' for Inactive)
REMARK    1  A    between atoms: C_2  and  C_5 
REMARK    2  A    between atoms: C_9  and  C_10 
REMARK    3  A    between atoms: C_10  and  C_22 
REMARK    4  A    between atoms: C_10  and  C_11 
REMARK    5  A    between atoms: C_10  and  N_17 
ROOT
HETATM    1  C   LIG     1      26.196  22.869  22.153  1.00  0.00     0.138 C 
ENDROOT
BRANCH   1   2
HETATM    2  C   LIG     1      26.072  23.183  23.658  1.00  0.00    -0.018 A 
HETATM    3  C   LIG     1      26.967  24.075  24.290  1.00  0.00     0.010 A 
HETATM    4  C   LIG     1      26.916  24.282  25.669  1.00  0.00     0.002 A 
HETATM    5  C   LIG     1      26.012  23.570  26.453  1.00  0.00     0.016 A 
HETATM    6  C   LIG     1      25.167  22.614  25.872  1.00  0.00     0.048 A 
HETATM    7  C   LIG     1      25.222  22.408  24.481  1.00  0.00     0.026 A 
BRANCH   6   8
HETATM    8  C   LIG     1      24.236  21.821  26.754  1.00  0.00     0.417 C 
HETATM    9  F   LIG     1      24.793  21.694  28.014  1.00  0.00    -0.166 F 
HETATM   10  F   LIG     1      24.051  20.562  26.213  1.00  0.00    -0.166 F 
HETATM   11  F   LIG     1      22.999  22.433  26.879  1.00  0.00    -0.166 F 
ENDBRANCH   6   8
ENDBRANCH   1   2
BRANCH   1  12
HETATM   12  C   LIG     1      26.697  24.069  21.324  1.00  0.00    -0.019 A 
HETATM   13  C   LIG     1      26.059  24.426  20.115  1.00  0.00     0.010 A 
HETATM   14  C   LIG     1      26.561  25.454  19.314  1.00  0.00     0.001 A 
HETATM   15  C   LIG     1      27.736  26.115  19.677  1.00  0.00     0.000 A 
HETATM   16  C   LIG     1      28.420  25.732  20.830  1.00  0.00     0.001 A 
HETATM   17  C   LIG     1      27.921  24.705  21.635  1.00  0.00     0.010 A 
ENDBRANCH   1  12
BRANCH   1  18
HETATM   18  C   LIG     1      24.842  22.509  21.507  1.00  0.00    -0.019 A 
HETATM   19  C   LIG     1      24.786  21.667  20.374  1.00  0.00     0.010 A 
HETATM   20  C   LIG     1      23.573  21.408  19.732  1.00  0.00     0.001 A 
HETATM   21  C   LIG     1      22.400  22.018  20.176  1.00  0.00     0.000 A 
HETATM   22  C   LIG     1      22.443  22.905  21.253  1.00  0.00     0.001 A 
HETATM   23  C   LIG     1      23.654  23.167  21.898  1.00  0.00     0.010 A 
ENDBRANCH   1  18
BRANCH   1  24
HETATM   24  N   LIG     1      27.140  21.730  22.083  1.00  0.00    -0.238 N 
HETATM   25  C   LIG     1      27.012  20.537  22.699  1.00  0.00     0.232 A 
HETATM   26  N   LIG     1      27.901  19.639  22.232  1.00  0.00    -0.234 NA
HETATM   27  C   LIG     1      28.549  20.341  21.281  1.00  0.00     0.256 A 
HETATM   28  N   LIG     1      28.077  21.595  21.158  1.00  0.00    -0.163 NA
ENDBRANCH   1  24
TORSDOF 5
ENDMDL
MODEL 10
REMARK VINA RESULT:      -5.2      5.271      7.764
REMARK  5 active torsions:
REMARK  status: ('A' for Active; 'I' for Inactive)
REMARK    1  A    between atoms: C_2  and  C_5 
REMARK    2  A    between atoms: C_9  and  C_10 
REMARK    3  A    between atoms: C_10  and  C_22 
REMARK    4  A    between atoms: C_10  and  C_11 
REMARK    5  A    between atoms: C_10  and  N_17 
ROOT
HETATM    1  C   LIG     1      24.819  21.401  25.685  1.00  0.00     0.138 C 
ENDROOT
BRANCH   1   2
HETATM    2  C   LIG     1      23.866  20.744  26.704  1.00  0.00    -0.018 A 
HETATM    3  C   LIG     1      24.116  19.445  27.199  1.00  0.00     0.010 A 
HETATM    4  C   LIG     1      23.203  18.813  28.044  1.00  0.00     0.002 A 
HETATM    5  C   LIG     1      21.999  19.435  28.369  1.00  0.00     0.016 A 
HETATM    6  C   LIG     1      21.679  20.687  27.826  1.00  0.00     0.048 A 
HETATM    7  C   LIG     1      22.603  21.321  26.975  1.00  0.00     0.026 A 
BRANCH   6   8
HETATM    8  C   LIG     1      20.346  21.312  28.155  1.00  0.00     0.417 C 
HETATM    9  F   LIG     1      20.388  22.663  27.865  1.00  0.00    -0.166 F 
HETATM   10  F   LIG     1      20.081  21.147  29.503  1.00  0.00    -0.166 F 
HETATM   11  F   LIG     1      19.315  20.737  27.430  1.00  0.00    -0.166 F 
ENDBRANCH   6   8
ENDBRANCH   1   2
BRANCH   1  12
HETATM   12  C   LIG     1      24.160  21.651  24.314  1.00  0.00    -0.019 A 
HETATM   13  C   LIG     1      23.179  20.765  23.815  1.00  0.00     0.010 A 
HETATM   14  C   LIG     1      22.643  20.935  22.536  1.00  0.00     0.001 A 
HETATM   15  C   LIG     1      23.107  21.961  21.712  1.00  0.00     0.000 A 
HETATM   16  C   LIG     1      24.124  22.804  22.159  1.00  0.00     0.001 A 
HETATM   17  C   LIG     1      24.663  22.639  23.437  1.00  0.00     0.010 A 
ENDBRANCH   1  12
BRANCH   1  18
HETATM   18  C   LIG     1      26.040  20.517  25.358  1.00  0.00    -0.019 A 
HETATM   19  C   LIG     1      27.308  20.808  25.910  1.00  0.00     0.010 A 
HETATM   20  C   LIG     1      28.435  20.066  25.547  1.00  0.00     0.001 A 
HETATM   21  C   LIG     1      28.331  19.051  24.597  1.00  0.00     0.000 A 
HETATM   22  C   LIG     1      27.102  18.790  23.991  1.00  0.00     0.001 A 
HETATM   23  C   LIG     1      25.971  19.530  24.348  1.00  0.00     0.010 A 
ENDBRANCH   1  18
BRANCH   1  24
HETATM   24  N   LIG     1      25.236  22.670  26.325  1.00  0.00    -0.238 N 
HETATM   25  C   LIG     1      25.518  22.861  27.631  1.00  0.00     0.232 A 
HETATM   26  N   LIG     1      26.106  24.054  27.842  1.00  0.00    -0.234 NA
HETATM   27  C   LIG     1      26.195  24.558  26.595  1.00  0.00     0.256 A 
HETATM   28  N   LIG     1      25.702  23.719  25.666  1.00  0.00    -0.163 NA
ENDBRANCH   1  24
TORSDOF 5
ENDMDL
MODEL 11
REMARK VINA RESULT:      -5.0      3.182      5.376
REMARK  5 active torsions:
REMARK  status: ('A' for Active; 'I' for Inactive)
REMARK    1  A    between atoms: C_2  and  C_5 
REMARK    2  A    between atoms: C_9  and  C_10 
REMARK    3  A    between atoms: C_10  and  C_22 
REMARK    4  A    between atoms: C_10  and  C_11 
REMARK    5  A    between atoms: C_10  and  N_17 
ROOT
HETATM    1  C   LIG     1      25.676  22.385  21.502  1.00  0.00     0.138 C 
ENDROOT
BRANCH   1   2
HETATM    2  C   LIG     1      25.513  22.400  23.036  1.00  0.00    -0.018 A 
HETATM    3  C   LIG     1      24.525  21.614  23.669  1.00  0.00     0.010 A 
HETATM    4  C   LIG     1      24.313  21.703  25.045  1.00  0.00     0.002 A 
HETATM    5  C   LIG     1      25.041  22.610  25.811  1.00  0.00     0.016 A 
HETATM    6  C   LIG     1      25.970  23.467  25.203  1.00  0.00     0.048 A 
HETATM    7  C   LIG     1      26.179  23.375  23.815  1.00  0.00     0.026 A 
BRANCH   6   8
HETATM    8  C   LIG     1      26.705  24.475  26.050  1.00  0.00     0.417 C 
HETATM    9  F   LIG     1      25.810  25.104  26.897  1.00  0.00    -0.166 F 
HETATM   10  F   LIG     1      27.293  25.423  25.232  1.00  0.00    -0.166 F 
HETATM   11  F   LIG     1      27.694  23.881  26.817  1.00  0.00    -0.166 F 
ENDBRANCH   6   8
ENDBRANCH   1   2
BRANCH   1  12
HETATM   12  C   LIG     1      26.581  21.242  21.001  1.00  0.00    -0.019 A 
HETATM   13  C   LIG     1      27.113  20.296  21.906  1.00  0.00     0.010 A 
HETATM   14  C   LIG     1      28.005  19.312  21.473  1.00  0.00     0.001 A 
HETATM   15  C   LIG     1      28.421  19.280  20.142  1.00  0.00     0.000 A 
HETATM   16  C   LIG     1      27.962  20.246  19.247  1.00  0.00     0.001 A 
HETATM   17  C   LIG     1      27.070  21.232  19.674  1.00  0.00     0.010 A 
ENDBRANCH   1  12
BRANCH   1  18
HETATM   18  C   LIG     1      26.354  23.662  20.964  1.00  0.00    -0.019 A 
HETATM   19  C   LIG     1      25.802  24.363  19.868  1.00  0.00     0.010 A 
HETATM   20  C   LIG     1      26.458  25.468  19.320  1.00  0.00     0.001 A 
HETATM   21  C   LIG     1      27.696  25.869  19.822  1.00  0.00     0.000 A 
HETATM   22  C   LIG     1      28.290  25.152  20.861  1.00  0.00     0.001 A 
HETATM   23  C   LIG     1      27.639  24.045  21.412  1.00  0.00     0.010 A 
ENDBRANCH   1  18
BRANCH   1  24
HETATM   24  N   LIG     1      24.297  22.253  20.979  1.00  0.00    -0.238 N 
HETATM   25  C   LIG     1      23.236  23.025  21.295  1.00  0.00     0.232 A 
HETATM   26  N   LIG     1      22.198  22.808  20.464  1.00  0.00    -0.234 NA
HETATM   27  C   LIG     1      22.698  21.891  19.611  1.00  0.00     0.256 A 
HETATM   28  N   LIG     1      23.975  21.572  19.891  1.00  0.00    -0.163 NA
ENDBRANCH   1  24
TORSDOF 5
ENDMDL
MODEL 12
REMARK VINA RESULT:      -4.8      2.907      5.192
REMARK  5 active torsions:
REMARK  status: ('A' for Active; 'I' for Inactive)
REMARK    1  A    between atoms: C_2  and  C_5 
REMARK    2  A    between atoms: C_9  and  C_10 
REMARK    3  A    between atoms: C_10  and  C_22 
REMARK    4  A    between atoms: C_10  and  C_11 
REMARK    5  A    between atoms: C_10  and  N_17 
ROOT
HETATM    1  C   LIG     1      26.249  22.680  22.149  1.00  0.00     0.138 C 
ENDROOT
BRANCH   1   2
HETATM    2  C   LIG     1      26.134  23.158  23.612  1.00  0.00    -0.018 A 
HETATM    3  C   LIG     1      26.950  24.201  24.101  1.00  0.00     0.010 A 
HETATM    4  C   LIG     1      26.915  24.566  25.448  1.00  0.00     0.002 A 
HETATM    5  C   LIG     1      26.110  23.866  26.344  1.00  0.00     0.016 A 
HETATM    6  C   LIG     1      25.352  22.770  25.910  1.00  0.00     0.048 A 
HETATM    7  C   LIG     1      25.391  22.406  24.551  1.00  0.00     0.026 A 
BRANCH   6   8
HETATM    8  C   LIG     1      24.531  22.000  26.914  1.00  0.00     0.417 C 
HETATM    9  F   LIG     1      25.025  22.230  28.185  1.00  0.00    -0.166 F 
HETATM   10  F   LIG     1      24.614  20.647  26.636  1.00  0.00    -0.166 F 
HETATM   11  F   LIG     1      23.197  22.374  26.884  1.00  0.00    -0.166 F 
ENDBRANCH   6   8
ENDBRANCH   1   2
BRANCH   1  12
HETATM   12  C   LIG     1      27.295  21.564  21.958  1.00  0.00    -0.019 A 
HETATM   13  C   LIG     1      28.024  21.064  23.061  1.00  0.00     0.010 A 
HETATM   14  C   LIG     1      29.036  20.117  22.883  1.00  0.00     0.001 A 
HETATM   15  C   LIG     1      29.374  19.686  21.600  1.00  0.00     0.000 A 
HETATM   16  C   LIG     1      28.715  20.219  20.492  1.00  0.00     0.001 A 
HETATM   17  C   LIG     1      27.702  21.165  20.664  1.00  0.00     0.010 A 
ENDBRANCH   1  12
BRANCH   1  18
HETATM   18  C   LIG     1      26.716  23.798  21.195  1.00  0.00    -0.019 A 
HETATM   19  C   LIG     1      27.891  24.534  21.468  1.00  0.00     0.010 A 
HETATM   20  C   LIG     1      28.271  25.606  20.657  1.00  0.00     0.001 A 
HETATM   21  C   LIG     1      27.467  25.994  19.585  1.00  0.00     0.000 A 
HETATM   22  C   LIG     1      26.270  25.323  19.336  1.00  0.00     0.001 A 
HETATM   23  C   LIG     1      25.884  24.251  20.145  1.00  0.00     0.010 A 
ENDBRANCH   1  18
BRANCH   1  24
HETATM   24  N   LIG     1      24.888  22.213  21.798  1.00  0.00    -0.238 N 
HETATM   25  C   LIG     1      24.503  20.938  21.583  1.00  0.00     0.232 A 
HETATM   26  N   LIG     1      23.162  20.826  21.536  1.00  0.00    -0.234 NA
HETATM   27  C   LIG     1      22.757  22.092  21.767  1.00  0.00     0.256 A 
HETATM   28  N   LIG     1      23.789  22.933  21.960  1.00  0.00    -0.163 NA
ENDBRANCH   1  24
TORSDOF 5
ENDMDL
MODEL 13
REMARK VINA RESULT:      -4.8      2.915      5.290
REMARK  5 active torsions:
REMARK  status: ('A' for Active; 'I' for Inactive)
REMARK    1  A    between atoms: C_2  and  C_5 
REMARK    2  A    between atoms: C_9  and  C_10 
REMARK    3  A    between atoms: C_10  and  C_22 
REMARK    4  A    between atoms: C_10  and  C_11 
REMARK    5  A    between atoms: C_10  and  N_17 
ROOT
HETATM    1  C   LIG     1      26.166  22.228  21.081  1.00  0.00     0.138 C 
ENDROOT
BRANCH   1   2
HETATM    2  C   LIG     1      26.703  22.204  22.527  1.00  0.00    -0.018 A 
HETATM    3  C   LIG     1      27.657  21.244  22.932  1.00  0.00     0.010 A 
HETATM    4  C   LIG     1      28.067  21.160  24.263  1.00  0.00     0.002 A 
HETATM    5  C   LIG     1      27.501  21.992  25.227  1.00  0.00     0.016 A 
HETATM    6  C   LIG     1      26.490  22.898  24.877  1.00  0.00     0.048 A 
HETATM    7  C   LIG     1      26.078  22.978  23.533  1.00  0.00     0.026 A 
BRANCH   6   8
HETATM    8  C   LIG     1      25.859  23.747  25.951  1.00  0.00     0.417 C 
HETATM    9  F   LIG     1      24.499  23.846  25.720  1.00  0.00    -0.166 F 
HETATM   10  F   LIG     1      26.415  25.014  25.922  1.00  0.00    -0.166 F 
HETATM   11  F   LIG     1      26.054  23.210  27.213  1.00  0.00    -0.166 F 
ENDBRANCH   6   8
ENDBRANCH   1   2
BRANCH   1  12
HETATM   12  C   LIG     1      26.741  21.098  20.205  1.00  0.00    -0.019 A 
HETATM   13  C   LIG     1      28.081  21.144  19.757  1.00  0.00     0.010 A 
HETATM   14  C   LIG     1      28.582  20.170  18.890  1.00  0.00     0.001 A 
HETATM   15  C   LIG     1      27.747  19.160  18.413  1.00  0.00     0.000 A 
HETATM   16  C   LIG     1      26.403  19.135  18.788  1.00  0.00     0.001 A 
HETATM   17  C   LIG     1      25.897  20.105  19.655  1.00  0.00     0.010 A 
ENDBRANCH   1  12
BRANCH   1  18
HETATM   18  C   LIG     1      26.549  23.518  20.327  1.00  0.00    -0.019 A 
HETATM   19  C   LIG     1      27.295  24.532  20.969  1.00  0.00     0.010 A 
HETATM   20  C   LIG     1      27.569  25.740  20.321  1.00  0.00     0.001 A 
HETATM   21  C   LIG     1      27.068  25.979  19.042  1.00  0.00     0.000 A 
HETATM   22  C   LIG     1      26.274  25.018  18.416  1.00  0.00     0.001 A 
HETATM   23  C   LIG     1      25.996  23.808  19.059  1.00  0.00     0.010 A 
ENDBRANCH   1  18
BRANCH   1  24
HETATM   24  N   LIG     1      24.697  22.110  21.224  1.00  0.00    -0.238 N 
HETATM   25  C   LIG     1      24.025  21.135  21.869  1.00  0.00     0.232 A 
HETATM   26  N   LIG     1      22.726  21.452  22.033  1.00  0.00    -0.234 NA
HETATM   27  C   LIG     1      22.657  22.681  21.483  1.00  0.00     0.256 A 
HETATM   28  N   LIG     1      23.847  23.103  21.020  1.00  0.00    -0.163 NA
ENDBRANCH   1  24
TORSDOF 5
ENDMDL
MODEL 14
REMARK VINA RESULT:      -4.8      2.801      4.928
REMARK  5 active torsions:
REMARK  status: ('A' for Active; 'I' for Inactive)
REMARK    1  A    between atoms: C_2  and  C_5 
REMARK    2  A    between atoms: C_9  and  C_10 
REMARK    3  A    between atoms: C_10  and  C_22 
REMARK    4  A    between atoms: C_10  and  C_11 
REMARK    5  A    between atoms: C_10  and  N_17 
ROOT
HETATM    1  C   LIG     1      26.086  22.214  22.364  1.00  0.00     0.138 C 
ENDROOT
BRANCH   1   2
HETATM    2  C   LIG     1      24.776  22.258  21.550  1.00  0.00    -0.018 A 
HETATM    3  C   LIG     1      23.681  23.041  21.979  1.00  0.00     0.010 A 
HETATM    4  C   LIG     1      22.465  23.003  21.296  1.00  0.00     0.002 A 
HETATM    5  C   LIG     1      22.295  22.149  20.209  1.00  0.00     0.016 A 
HETATM    6  C   LIG     1      23.332  21.295  19.809  1.00  0.00     0.048 A 
HETATM    7  C   LIG     1      24.557  21.336  20.500  1.00  0.00     0.026 A 
BRANCH   6   8
HETATM    8  C   LIG     1      23.100  20.344  18.662  1.00  0.00     0.417 C 
HETATM    9  F   LIG     1      22.336  19.277  19.097  1.00  0.00    -0.166 F 
HETATM   10  F   LIG     1      24.317  19.871  18.204  1.00  0.00    -0.166 F 
HETATM   11  F   LIG     1      22.442  20.958  17.609  1.00  0.00    -0.166 F 
ENDBRANCH   6   8
ENDBRANCH   1   2
BRANCH   1  12
HETATM   12  C   LIG     1      27.044  23.374  22.031  1.00  0.00    -0.019 A 
HETATM   13  C   LIG     1      28.098  23.713  22.910  1.00  0.00     0.010 A 
HETATM   14  C   LIG     1      28.914  24.819  22.660  1.00  0.00     0.001 A 
HETATM   15  C   LIG     1      28.668  25.636  21.556  1.00  0.00     0.000 A 
HETATM   16  C   LIG     1      27.591  25.360  20.714  1.00  0.00     0.001 A 
HETATM   17  C   LIG     1      26.772  24.255  20.959  1.00  0.00     0.010 A 
ENDBRANCH   1  12
BRANCH   1  18
HETATM   18  C   LIG     1      26.920  20.947  22.079  1.00  0.00    -0.019 A 
HETATM   19  C   LIG     1      27.683  20.839  20.895  1.00  0.00     0.010 A 
HETATM   20  C   LIG     1      28.368  19.661  20.588  1.00  0.00     0.001 A 
HETATM   21  C   LIG     1      28.271  18.554  21.431  1.00  0.00     0.000 A 
HETATM   22  C   LIG     1      27.471  18.617  22.572  1.00  0.00     0.001 A 
HETATM   23  C   LIG     1      26.782  19.792  22.882  1.00  0.00     0.010 A 
ENDBRANCH   1  18
BRANCH   1  24
HETATM   24  N   LIG     1      25.651  22.259  23.779  1.00  0.00    -0.238 N 
HETATM   25  C   LIG     1      25.771  23.301  24.627  1.00  0.00     0.232 A 
HETATM   26  N   LIG     1      25.055  23.110  25.752  1.00  0.00    -0.234 NA
HETATM   27  C   LIG     1      24.471  21.916  25.525  1.00  0.00     0.256 A 
HETATM   28  N   LIG     1      24.797  21.407  24.323  1.00  0.00    -0.163 NA
ENDBRANCH   1  24
TORSDOF 5
ENDMDL
MODEL 15
REMARK VINA RESULT:      -4.7      3.631      5.624
REMARK  5 active torsions:
REMARK  status: ('A' for Active; 'I' for Inactive)
REMARK    1  A    between atoms: C_2  and  C_5 
REMARK    2  A    between atoms: C_9  and  C_10 
REMARK    3  A    between atoms: C_10  and  C_22 
REMARK    4  A    between atoms: C_10  and  C_11 
REMARK    5  A    between atoms: C_10  and  N_17 
ROOT
HETATM    1  C   LIG     1      25.700  22.345  21.306  1.00  0.00     0.138 C 
ENDROOT
BRANCH   1   2
HETATM    2  C   LIG     1      26.333  23.244  20.224  1.00  0.00    -0.018 A 
HETATM    3  C   LIG     1      25.942  24.594  20.082  1.00  0.00     0.010 A 
HETATM    4  C   LIG     1      26.443  25.378  19.042  1.00  0.00     0.002 A 
HETATM    5  C   LIG     1      27.298  24.824  18.093  1.00  0.00     0.016 A 
HETATM    6  C   LIG     1      27.639  23.465  18.153  1.00  0.00     0.048 A 
HETATM    7  C   LIG     1      27.132  22.678  19.203  1.00  0.00     0.026 A 
BRANCH   6   8
HETATM    8  C   LIG     1      28.524  22.881  17.081  1.00  0.00     0.417 C 
HETATM    9  F   LIG     1      28.501  23.702  15.968  1.00  0.00    -0.166 F 
HETATM   10  F   LIG     1      28.054  21.629  16.728  1.00  0.00    -0.166 F 
HETATM   11  F   LIG     1      29.836  22.755  17.508  1.00  0.00    -0.166 F 
ENDBRANCH   6   8
ENDBRANCH   1   2
BRANCH   1  12
HETATM   12  C   LIG     1      25.913  22.879  22.736  1.00  0.00    -0.019 A 
HETATM   13  C   LIG     1      27.054  23.649  23.055  1.00  0.00     0.010 A 
HETATM   14  C   LIG     1      27.300  24.060  24.367  1.00  0.00     0.001 A 
HETATM   15  C   LIG     1      26.440  23.672  25.395  1.00  0.00     0.000 A 
HETATM   16  C   LIG     1      25.346  22.855  25.114  1.00  0.00     0.001 A 
HETATM   17  C   LIG     1      25.096  22.441  23.804  1.00  0.00     0.010 A 
ENDBRANCH   1  12
BRANCH   1  18
HETATM   18  C   LIG     1      26.317  20.932  21.339  1.00  0.00    -0.019 A 
HETATM   19  C   LIG     1      25.496  19.786  21.236  1.00  0.00     0.010 A 
HETATM   20  C   LIG     1      26.037  18.503  21.355  1.00  0.00     0.001 A 
HETATM   21  C   LIG     1      27.396  18.337  21.621  1.00  0.00     0.000 A 
HETATM   22  C   LIG     1      28.213  19.455  21.791  1.00  0.00     0.001 A 
HETATM   23  C   LIG     1      27.676  20.740  21.675  1.00  0.00     0.010 A 
ENDBRANCH   1  18
BRANCH   1  24
HETATM   24  N   LIG     1      24.262  22.292  20.956  1.00  0.00    -0.238 N 
HETATM   25  C   LIG     1      23.246  22.872  21.627  1.00  0.00     0.232 A 
HETATM   26  N   LIG     1      22.103  22.848  20.915  1.00  0.00    -0.234 NA
HETATM   27  C   LIG     1      22.489  22.253  19.768  1.00  0.00     0.256 A 
HETATM   28  N   LIG     1      23.798  21.942  19.767  1.00  0.00    -0.163 NA
ENDBRANCH   1  24
TORSDOF 5
ENDMDL
MODEL 16
REMARK VINA RESULT:      -4.6      3.172      5.021
REMARK  5 active torsions:
REMARK  status: ('A' for Active; 'I' for Inactive)
REMARK    1  A    between atoms: C_2  and  C_5 
REMARK    2  A    between atoms: C_9  and  C_10 
REMARK    3  A    between atoms: C_10  and  C_22 
REMARK    4  A    between atoms: C_10  and  C_11 
REMARK    5  A    between atoms: C_10  and  N_17 
ROOT
HETATM    1  C   LIG     1      25.991  22.045  20.662  1.00  0.00     0.138 C 
ENDROOT
BRANCH   1   2
HETATM    2  C   LIG     1      24.946  21.621  19.609  1.00  0.00    -0.018 A 
HETATM    3  C   LIG     1      23.633  22.140  19.639  1.00  0.00     0.010 A 
HETATM    4  C   LIG     1      22.662  21.682  18.747  1.00  0.00     0.002 A 
HETATM    5  C   LIG     1      22.961  20.663  17.846  1.00  0.00     0.016 A 
HETATM    6  C   LIG     1      24.229  20.065  17.846  1.00  0.00     0.048 A 
HETATM    7  C   LIG     1      25.205  20.529  18.747  1.00  0.00     0.026 A 
BRANCH   6   8
HETATM    8  C   LIG     1      24.506  18.928  16.894  1.00  0.00     0.417 C 
HETATM    9  F   LIG     1      23.333  18.238  16.647  1.00  0.00    -0.166 F 
HETATM   10  F   LIG     1      25.426  18.066  17.462  1.00  0.00    -0.166 F 
HETATM   11  F   LIG     1      25.014  19.380  15.686  1.00  0.00    -0.166 F 
ENDBRANCH   6   8
ENDBRANCH   1   2
BRANCH   1  12
HETATM   12  C   LIG     1      26.592  23.438  20.389  1.00  0.00    -0.019 A 
HETATM   13  C   LIG     1      27.512  24.015  21.294  1.00  0.00     0.010 A 
HETATM   14  C   LIG     1      27.991  25.313  21.101  1.00  0.00     0.001 A 
HETATM   15  C   LIG     1      27.529  26.079  20.030  1.00  0.00     0.000 A 
HETATM   16  C   LIG     1      26.569  25.554  19.165  1.00  0.00     0.001 A 
HETATM   17  C   LIG     1      26.087  24.257  19.353  1.00  0.00     0.010 A 
ENDBRANCH   1  12
BRANCH   1  18
HETATM   18  C   LIG     1      27.216  21.109  20.693  1.00  0.00    -0.019 A 
HETATM   19  C   LIG     1      27.479  20.305  21.825  1.00  0.00     0.010 A 
HETATM   20  C   LIG     1      28.634  19.522  21.896  1.00  0.00     0.001 A 
HETATM   21  C   LIG     1      29.571  19.560  20.864  1.00  0.00     0.000 A 
HETATM   22  C   LIG     1      29.365  20.397  19.768  1.00  0.00     0.001 A 
HETATM   23  C   LIG     1      28.211  21.182  19.692  1.00  0.00     0.010 A 
ENDBRANCH   1  18
BRANCH   1  24
HETATM   24  N   LIG     1      25.261  22.012  21.950  1.00  0.00    -0.238 N 
HETATM   25  C   LIG     1      24.644  20.946  22.500  1.00  0.00     0.232 A 
HETATM   26  N   LIG     1      24.298  21.179  23.781  1.00  0.00    -0.234 NA
HETATM   27  C   LIG     1      24.769  22.427  23.985  1.00  0.00     0.256 A 
HETATM   28  N   LIG     1      25.381  22.928  22.897  1.00  0.00    -0.163 NA
ENDBRANCH   1  24
TORSDOF 5
ENDMDL
MODEL 17
REMARK VINA RESULT:      -4.6      3.435      5.716
REMARK  5 active torsions:
REMARK  status: ('A' for Active; 'I' for Inactive)
REMARK    1  A    between atoms: C_2  and  C_5 
REMARK    2  A    between atoms: C_9  and  C_10 
REMARK    3  A    between atoms: C_10  and  C_22 
REMARK    4  A    between atoms: C_10  and  C_11 
REMARK    5  A    between atoms: C_10  and  N_17 
ROOT
HETATM    1  C   LIG     1      26.176  22.549  21.736  1.00  0.00     0.138 C 
ENDROOT
BRANCH   1   2
HETATM    2  C   LIG     1      26.624  23.253  23.033  1.00  0.00    -0.018 A 
HETATM    3  C   LIG     1      25.886  23.110  24.229  1.00  0.00     0.010 A 
HETATM    4  C   LIG     1      26.235  23.825  25.375  1.00  0.00     0.002 A 
HETATM    5  C   LIG     1      27.288  24.735  25.342  1.00  0.00     0.016 A 
HETATM    6  C   LIG     1      27.989  24.967  24.149  1.00  0.00     0.048 A 
HETATM    7  C   LIG     1      27.633  24.244  22.995  1.00  0.00     0.026 A 
BRANCH   6   8
HETATM    8  C   LIG     1      29.090  25.997  24.131  1.00  0.00     0.417 C 
HETATM    9  F   LIG     1      28.566  27.225  23.771  1.00  0.00    -0.166 F 
HETATM   10  F   LIG     1      30.050  25.627  23.206  1.00  0.00    -0.166 F 
HETATM   11  F   LIG     1      29.698  26.123  25.369  1.00  0.00    -0.166 F 
ENDBRANCH   6   8
ENDBRANCH   1   2
BRANCH   1  12
HETATM   12  C   LIG     1      26.872  21.191  21.514  1.00  0.00    -0.019 A 
HETATM   13  C   LIG     1      26.431  20.313  20.499  1.00  0.00     0.010 A 
HETATM   14  C   LIG     1      26.997  19.045  20.350  1.00  0.00     0.001 A 
HETATM   15  C   LIG     1      27.980  18.608  21.239  1.00  0.00     0.000 A 
HETATM   16  C   LIG     1      28.381  19.432  22.290  1.00  0.00     0.001 A 
HETATM   17  C   LIG     1      27.819  20.701  22.443  1.00  0.00     0.010 A 
ENDBRANCH   1  12
BRANCH   1  18
HETATM   18  C   LIG     1      26.525  23.358  20.470  1.00  0.00    -0.019 A 
HETATM   19  C   LIG     1      27.652  23.020  19.687  1.00  0.00     0.010 A 
HETATM   20  C   LIG     1      28.024  23.803  18.591  1.00  0.00     0.001 A 
HETATM   21  C   LIG     1      27.310  24.959  18.280  1.00  0.00     0.000 A 
HETATM   22  C   LIG     1      26.234  25.347  19.078  1.00  0.00     0.001 A 
HETATM   23  C   LIG     1      25.858  24.569  20.176  1.00  0.00     0.010 A 
ENDBRANCH   1  18
BRANCH   1  24
HETATM   24  N   LIG     1      24.711  22.390  21.880  1.00  0.00    -0.238 N 
HETATM   25  C   LIG     1      23.755  23.107  21.254  1.00  0.00     0.232 A 
HETATM   26  N   LIG     1      22.538  22.551  21.406  1.00  0.00    -0.234 NA
HETATM   27  C   LIG     1      22.813  21.444  22.126  1.00  0.00     0.256 A 
HETATM   28  N   LIG     1      24.125  21.319  22.391  1.00  0.00    -0.163 NA
ENDBRANCH   1  24
TORSDOF 5
ENDMDL
MODEL 18
REMARK VINA RESULT:      -4.6      2.706      5.796
REMARK  5 active torsions:
REMARK  status: ('A' for Active; 'I' for Inactive)
REMARK    1  A    between atoms: C_2  and  C_5 
REMARK    2  A    between atoms: C_9  and  C_10 
REMARK    3  A    between atoms: C_10  and  C_22 
REMARK    4  A    between atoms: C_10  and  C_11 
REMARK    5  A    between atoms: C_10  and  N_17 
ROOT
HETATM    1  C   LIG     1      26.824  23.026  21.871  1.00  0.00     0.138 C 
ENDROOT
BRANCH   1   2
HETATM    2  C   LIG     1      27.286  23.879  23.071  1.00  0.00    -0.018 A 
HETATM    3  C   LIG     1      28.467  24.650  23.001  1.00  0.00     0.010 A 
HETATM    4  C   LIG     1      28.936  25.343  24.118  1.00  0.00     0.002 A 
HETATM    5  C   LIG     1      28.272  25.240  25.338  1.00  0.00     0.016 A 
HETATM    6  C   LIG     1      27.145  24.416  25.466  1.00  0.00     0.048 A 
HETATM    7  C   LIG     1      26.676  23.719  24.337  1.00  0.00     0.026 A 
BRANCH   6   8
HETATM    8  C   LIG     1      26.479  24.284  26.812  1.00  0.00     0.417 C 
HETATM    9  F   LIG     1      27.349  23.676  27.698  1.00  0.00    -0.166 F 
HETATM   10  F   LIG     1      25.342  23.505  26.689  1.00  0.00    -0.166 F 
HETATM   11  F   LIG     1      26.113  25.517  27.329  1.00  0.00    -0.166 F 
ENDBRANCH   6   8
ENDBRANCH   1   2
BRANCH   1  12
HETATM   12  C   LIG     1      25.331  22.646  21.939  1.00  0.00    -0.019 A 
HETATM   13  C   LIG     1      24.850  21.798  22.961  1.00  0.00     0.010 A 
HETATM   14  C   LIG     1      23.517  21.378  22.977  1.00  0.00     0.001 A 
HETATM   15  C   LIG     1      22.651  21.755  21.950  1.00  0.00     0.000 A 
HETATM   16  C   LIG     1      23.124  22.535  20.895  1.00  0.00     0.001 A 
HETATM   17  C   LIG     1      24.454  22.958  20.875  1.00  0.00     0.010 A 
ENDBRANCH   1  12
BRANCH   1  18
HETATM   18  C   LIG     1      27.552  21.668  21.793  1.00  0.00    -0.019 A 
HETATM   19  C   LIG     1      27.122  20.673  20.886  1.00  0.00     0.010 A 
HETATM   20  C   LIG     1      27.720  19.410  20.872  1.00  0.00     0.001 A 
HETATM   21  C   LIG     1      28.724  19.099  21.788  1.00  0.00     0.000 A 
HETATM   22  C   LIG     1      29.118  20.044  22.735  1.00  0.00     0.001 A 
HETATM   23  C   LIG     1      28.523  21.309  22.755  1.00  0.00     0.010 A 
ENDBRANCH   1  18
BRANCH   1  24
HETATM   24  N   LIG     1      27.118  23.858  20.683  1.00  0.00    -0.238 N 
HETATM   25  C   LIG     1      26.704  25.123  20.460  1.00  0.00     0.232 A 
HETATM   26  N   LIG     1      27.348  25.680  19.416  1.00  0.00    -0.234 NA
HETATM   27  C   LIG     1      28.194  24.698  19.041  1.00  0.00     0.256 A 
HETATM   28  N   LIG     1      28.088  23.606  19.818  1.00  0.00    -0.163 NA
ENDBRANCH   1  24
TORSDOF 5
ENDMDL
MODEL 19
REMARK VINA RESULT:      -4.5      3.999      6.722
REMARK  5 active torsions:
REMARK  status: ('A' for Active; 'I' for Inactive)
REMARK    1  A    between atoms: C_2  and  C_5 
REMARK    2  A    between atoms: C_9  and  C_10 
REMARK    3  A    between atoms: C_10  and  C_22 
REMARK    4  A    between atoms: C_10  and  C_11 
REMARK    5  A    between atoms: C_10  and  N_17 
ROOT
HETATM    1  C   LIG     1      25.370  21.825  24.578  1.00  0.00     0.138 C 
ENDROOT
BRANCH   1   2
HETATM    2  C   LIG     1      24.678  22.142  23.236  1.00  0.00    -0.018 A 
HETATM    3  C   LIG     1      23.384  21.651  22.953  1.00  0.00     0.010 A 
HETATM    4  C   LIG     1      22.800  21.855  21.702  1.00  0.00     0.002 A 
HETATM    5  C   LIG     1      23.508  22.503  20.693  1.00  0.00     0.016 A 
HETATM    6  C   LIG     1      24.826  22.929  20.912  1.00  0.00     0.048 A 
HETATM    7  C   LIG     1      25.412  22.720  22.174  1.00  0.00     0.026 A 
BRANCH   6   8
HETATM    8  C   LIG     1      25.585  23.580  19.783  1.00  0.00     0.417 C 
HETATM    9  F   LIG     1      26.888  23.119  19.779  1.00  0.00    -0.166 F 
HETATM   10  F   LIG     1      25.593  24.952  19.965  1.00  0.00    -0.166 F 
HETATM   11  F   LIG     1      25.015  23.303  18.551  1.00  0.00    -0.166 F 
ENDBRANCH   6   8
ENDBRANCH   1   2
BRANCH   1  12
HETATM   12  C   LIG     1      26.504  20.789  24.443  1.00  0.00    -0.019 A 
HETATM   13  C   LIG     1      26.552  19.914  23.334  1.00  0.00     0.010 A 
HETATM   14  C   LIG     1      27.524  18.914  23.250  1.00  0.00     0.001 A 
HETATM   15  C   LIG     1      28.437  18.736  24.290  1.00  0.00     0.000 A 
HETATM   16  C   LIG     1      28.364  19.544  25.424  1.00  0.00     0.001 A 
HETATM   17  C   LIG     1      27.395  20.545  25.513  1.00  0.00     0.010 A 
ENDBRANCH   1  12
BRANCH   1  18
HETATM   18  C   LIG     1      24.410  21.196  25.608  1.00  0.00    -0.019 A 
HETATM   19  C   LIG     1      24.213  19.797  25.648  1.00  0.00     0.010 A 
HETATM   20  C   LIG     1      23.278  19.229  26.517  1.00  0.00     0.001 A 
HETATM   21  C   LIG     1      22.491  20.044  27.330  1.00  0.00     0.000 A 
HETATM   22  C   LIG     1      22.622  21.431  27.260  1.00  0.00     0.001 A 
HETATM   23  C   LIG     1      23.555  22.005  26.391  1.00  0.00     0.010 A 
ENDBRANCH   1  18
BRANCH   1  24
HETATM   24  N   LIG     1      25.882  23.130  25.054  1.00  0.00    -0.238 N 
HETATM   25  C   LIG     1      25.666  23.690  26.262  1.00  0.00     0.232 A 
HETATM   26  N   LIG     1      26.472  24.749  26.470  1.00  0.00    -0.234 NA
HETATM   27  C   LIG     1      27.208  24.779  25.341  1.00  0.00     0.256 A 
HETATM   28  N   LIG     1      26.884  23.787  24.492  1.00  0.00    -0.163 NA
ENDBRANCH   1  24
TORSDOF 5
ENDMDL
MODEL 20
REMARK VINA RESULT:      -4.5      3.467      6.116
REMARK  5 active torsions:
REMARK  status: ('A' for Active; 'I' for Inactive)
REMARK    1  A    between atoms: C_2  and  C_5 
REMARK    2  A    between atoms: C_9  and  C_10 
REMARK    3  A    between atoms: C_10  and  C_22 
REMARK    4  A    between atoms: C_10  and  C_11 
REMARK    5  A    between atoms: C_10  and  N_17 
ROOT
HETATM    1  C   LIG     1      25.998  21.552  22.674  1.00  0.00     0.138 C 
ENDROOT
BRANCH   1   2
HETATM    2  C   LIG     1      26.255  22.581  23.795  1.00  0.00    -0.018 A 
HETATM    3  C   LIG     1      25.325  22.762  24.842  1.00  0.00     0.010 A 
HETATM    4  C   LIG     1      25.511  23.760  25.800  1.00  0.00     0.002 A 
HETATM    5  C   LIG     1      26.594  24.631  25.706  1.00  0.00     0.016 A 
HETATM    6  C   LIG     1      27.490  24.536  24.632  1.00  0.00     0.048 A 
HETATM    7  C   LIG     1      27.298  23.528  23.668  1.00  0.00     0.026 A 
BRANCH   6   8
HETATM    8  C   LIG     1      28.622  25.526  24.528  1.00  0.00     0.417 C 
HETATM    9  F   LIG     1      28.176  26.670  23.891  1.00  0.00    -0.166 F 
HETATM   10  F   LIG     1      29.653  24.972  23.791  1.00  0.00    -0.166 F 
HETATM   11  F   LIG     1      29.113  25.880  25.775  1.00  0.00    -0.166 F 
ENDBRANCH   6   8
ENDBRANCH   1   2
BRANCH   1  12
HETATM   12  C   LIG     1      27.068  21.586  21.565  1.00  0.00    -0.019 A 
HETATM   13  C   LIG     1      28.108  20.630  21.539  1.00  0.00     0.010 A 
HETATM   14  C   LIG     1      29.131  20.708  20.590  1.00  0.00     0.001 A 
HETATM   15  C   LIG     1      29.164  21.765  19.681  1.00  0.00     0.000 A 
HETATM   16  C   LIG     1      28.186  22.758  19.734  1.00  0.00     0.001 A 
HETATM   17  C   LIG     1      27.161  22.684  20.680  1.00  0.00     0.010 A 
ENDBRANCH   1  12
BRANCH   1  18
HETATM   18  C   LIG     1      24.675  21.809  21.925  1.00  0.00    -0.019 A 
HETATM   19  C   LIG     1      24.370  21.103  20.739  1.00  0.00     0.010 A 
HETATM   20  C   LIG     1      23.216  21.394  20.008  1.00  0.00     0.001 A 
HETATM   21  C   LIG     1      22.367  22.421  20.417  1.00  0.00     0.000 A 
HETATM   22  C   LIG     1      22.682  23.175  21.548  1.00  0.00     0.001 A 
HETATM   23  C   LIG     1      23.836  22.889  22.283  1.00  0.00     0.010 A 
ENDBRANCH   1  18
BRANCH   1  24
HETATM   24  N   LIG     1      25.975  20.243  23.365  1.00  0.00    -0.238 N 
HETATM   25  C   LIG     1      25.224  19.171  23.037  1.00  0.00     0.232 A 
HETATM   26  N   LIG     1      25.620  18.066  23.699  1.00  0.00    -0.234 NA
HETATM   27  C   LIG     1      26.668  18.519  24.417  1.00  0.00     0.256 A 
HETATM   28  N   LIG     1      26.913  19.824  24.199  1.00  0.00    -0.163 NA
ENDBRANCH   1  24
TORSDOF 5
ENDMDL
