MODEL 1
REMARK VINA RESULT:      -5.6      0.000      0.000
REMARK  5 active torsions:
REMARK  status: ('A' for Active; 'I' for Inactive)
REMARK    1  A    between atoms: C_2  and  C_4 
REMARK    2  A    between atoms: C_2  and  O_3 
REMARK    3  A    between atoms: C_4  and  C_6 
REMARK    4  A    between atoms: C_6  and  C_7 
REMARK    5  A    between atoms: C_7  and  C_8 
ROOT
HETATM    1  C   LIG     1      17.447  37.933  23.197  1.00  0.00     0.010 C 
HETATM    2  C   LIG     1      18.322  38.923  22.405  1.00  0.00     0.012 C 
ENDROOT
BRANCH   1   3
HETATM    3  C   LIG     1      16.025  37.793  22.585  1.00  0.00     0.117 C 
HETATM    4  C   LIG     1      15.795  36.399  21.985  1.00  0.00     0.039 C 
BRANCH   3   5
HETATM    5  O   LIG     1      15.060  38.021  23.580  1.00  0.00    -0.396 OA
HETATM    6  H   LIG     1      15.448  38.676  24.217  1.00  0.00     0.210 HD
ENDBRANCH   3   5
ENDBRANCH   1   3
BRANCH   1   7
HETATM    7  C   LIG     1      17.422  38.298  24.705  1.00  0.00     0.007 C 
BRANCH   7   8
HETATM    8  C   LIG     1      18.105  37.261  25.620  1.00  0.00     0.000 C 
BRANCH   8   9
HETATM    9  C   LIG     1      17.560  35.840  25.404  1.00  0.00    -0.005 C 
HETATM   10  C   LIG     1      18.236  34.803  26.300  1.00  0.00     0.005 C 
ENDBRANCH   8   9
ENDBRANCH   7   8
ENDBRANCH   1   7
TORSDOF 5
ENDMDL
MODEL 2
REMARK VINA RESULT:      -5.5      1.681      4.273
REMARK  5 active torsions:
REMARK  status: ('A' for Active; 'I' for Inactive)
REMARK    1  A    between atoms: C_2  and  C_4 
REMARK    2  A    between atoms: C_2  and  O_3 
REMARK    3  A    between atoms: C_4  and  C_6 
REMARK    4  A    between atoms: C_6  and  C_7 
REMARK    5  A    between atoms: C_7  and  C_8 
ROOT
HETATM    1  C   LIG     1      17.375  37.465  22.604  1.00  0.00     0.010 C 
HETATM    2  C   LIG     1      16.980  36.351  21.616  1.00  0.00     0.012 C 
ENDROOT
BRANCH   1   3
HETATM    3  C   LIG     1      16.545  37.402  23.916  1.00  0.00     0.117 C 
HETATM    4  C   LIG     1      17.275  38.072  25.088  1.00  0.00     0.039 C 
BRANCH   3   5
HETATM    5  O   LIG     1      15.312  38.049  23.725  1.00  0.00    -0.396 OA
HETATM    6  H   LIG     1      14.859  37.594  22.967  1.00  0.00     0.210 HD
ENDBRANCH   3   5
ENDBRANCH   1   3
BRANCH   1   7
HETATM    7  C   LIG     1      17.321  38.858  21.921  1.00  0.00     0.007 C 
BRANCH   7   8
HETATM    8  C   LIG     1      18.696  39.406  21.488  1.00  0.00     0.000 C 
BRANCH   8   9
HETATM    9  C   LIG     1      18.903  39.333  19.966  1.00  0.00    -0.005 C 
HETATM   10  C   LIG     1      20.225  38.673  19.578  1.00  0.00     0.005 C 
ENDBRANCH   8   9
ENDBRANCH   7   8
ENDBRANCH   1   7
TORSDOF 5
ENDMDL
MODEL 3
REMARK VINA RESULT:      -5.4      1.768      2.637
REMARK  5 active torsions:
REMARK  status: ('A' for Active; 'I' for Inactive)
REMARK    1  A    between atoms: C_2  and  C_4 
REMARK    2  A    between atoms: C_2  and  O_3 
REMARK    3  A    between atoms: C_4  and  C_6 
REMARK    4  A    between atoms: C_6  and  C_7 
REMARK    5  A    between atoms: C_7  and  C_8 
ROOT
HETATM    1  C   LIG     1      16.667  36.401  22.738  1.00  0.00     0.010 C 
HETATM    2  C   LIG     1      17.039  35.086  22.028  1.00  0.00     0.012 C 
ENDROOT
BRANCH   1   3
HETATM    3  C   LIG     1      17.156  37.647  21.948  1.00  0.00     0.117 C 
HETATM    4  C   LIG     1      17.935  38.622  22.842  1.00  0.00     0.039 C 
BRANCH   3   5
HETATM    5  O   LIG     1      17.989  37.240  20.892  1.00  0.00    -0.396 OA
HETATM    6  H   LIG     1      18.082  38.016  20.280  1.00  0.00     0.210 HD
ENDBRANCH   3   5
ENDBRANCH   1   3
BRANCH   1   7
HETATM    7  C   LIG     1      17.152  36.392  24.212  1.00  0.00     0.007 C 
BRANCH   7   8
HETATM    8  C   LIG     1      17.375  34.984  24.799  1.00  0.00     0.000 C 
BRANCH   8   9
HETATM    9  C   LIG     1      17.963  35.026  26.218  1.00  0.00    -0.005 C 
HETATM   10  C   LIG     1      18.485  36.410  26.603  1.00  0.00     0.005 C 
ENDBRANCH   8   9
ENDBRANCH   7   8
ENDBRANCH   1   7
TORSDOF 5
ENDMDL
MODEL 4
REMARK VINA RESULT:      -5.3      1.661      3.840
REMARK  5 active torsions:
REMARK  status: ('A' for Active; 'I' for Inactive)
REMARK    1  A    between atoms: C_2  and  C_4 
REMARK    2  A    between atoms: C_2  and  O_3 
REMARK    3  A    between atoms: C_4  and  C_6 
REMARK    4  A    between atoms: C_6  and  C_7 
REMARK    5  A    between atoms: C_7  and  C_8 
ROOT
HETATM    1  C   LIG     1      17.470  38.676  23.192  1.00  0.00     0.010 C 
HETATM    2  C   LIG     1      17.899  38.074  24.544  1.00  0.00     0.012 C 
ENDROOT
BRANCH   1   3
HETATM    3  C   LIG     1      16.405  37.800  22.476  1.00  0.00     0.117 C 
HETATM    4  C   LIG     1      16.725  36.303  22.589  1.00  0.00     0.039 C 
BRANCH   3   5
HETATM    5  O   LIG     1      15.142  38.035  23.044  1.00  0.00    -0.396 OA
HETATM    6  H   LIG     1      14.815  37.166  23.395  1.00  0.00     0.210 HD
ENDBRANCH   3   5
ENDBRANCH   1   3
BRANCH   1   7
HETATM    7  C   LIG     1      18.706  38.974  22.300  1.00  0.00     0.007 C 
BRANCH   7   8
HETATM    8  C   LIG     1      18.377  39.170  20.807  1.00  0.00     0.000 C 
BRANCH   8   9
HETATM    9  C   LIG     1      19.374  38.446  19.887  1.00  0.00    -0.005 C 
HETATM   10  C   LIG     1      19.002  36.985  19.642  1.00  0.00     0.005 C 
ENDBRANCH   8   9
ENDBRANCH   7   8
ENDBRANCH   1   7
TORSDOF 5
ENDMDL
MODEL 5
REMARK VINA RESULT:      -5.2      2.031      2.637
REMARK  5 active torsions:
REMARK  status: ('A' for Active; 'I' for Inactive)
REMARK    1  A    between atoms: C_2  and  C_4 
REMARK    2  A    between atoms: C_2  and  O_3 
REMARK    3  A    between atoms: C_4  and  C_6 
REMARK    4  A    between atoms: C_6  and  C_7 
REMARK    5  A    between atoms: C_7  and  C_8 
ROOT
HETATM    1  C   LIG     1      16.818  35.907  21.416  1.00  0.00     0.010 C 
HETATM    2  C   LIG     1      17.922  36.450  20.490  1.00  0.00     0.012 C 
ENDROOT
BRANCH   1   3
HETATM    3  C   LIG     1      15.601  35.365  20.616  1.00  0.00     0.117 C 
HETATM    4  C   LIG     1      15.618  33.834  20.514  1.00  0.00     0.039 C 
BRANCH   3   5
HETATM    5  O   LIG     1      14.409  35.761  21.247  1.00  0.00    -0.396 OA
HETATM    6  H   LIG     1      14.601  35.823  22.219  1.00  0.00     0.210 HD
ENDBRANCH   3   5
ENDBRANCH   1   3
BRANCH   1   7
HETATM    7  C   LIG     1      16.419  36.961  22.483  1.00  0.00     0.007 C 
BRANCH   7   8
HETATM    8  C   LIG     1      17.006  36.700  23.885  1.00  0.00     0.000 C 
BRANCH   8   9
HETATM    9  C   LIG     1      17.166  35.200  24.182  1.00  0.00    -0.005 C 
HETATM   10  C   LIG     1      17.540  34.920  25.637  1.00  0.00     0.005 C 
ENDBRANCH   8   9
ENDBRANCH   7   8
ENDBRANCH   1   7
TORSDOF 5
ENDMDL
MODEL 6
REMARK VINA RESULT:      -5.2      1.950      4.149
REMARK  5 active torsions:
REMARK  status: ('A' for Active; 'I' for Inactive)
REMARK    1  A    between atoms: C_2  and  C_4 
REMARK    2  A    between atoms: C_2  and  O_3 
REMARK    3  A    between atoms: C_4  and  C_6 
REMARK    4  A    between atoms: C_6  and  C_7 
REMARK    5  A    between atoms: C_7  and  C_8 
ROOT
HETATM    1  C   LIG     1      17.043  36.479  24.602  1.00  0.00     0.010 C 
HETATM    2  C   LIG     1      17.498  37.676  23.746  1.00  0.00     0.012 C 
ENDROOT
BRANCH   1   3
HETATM    3  C   LIG     1      17.801  36.411  25.957  1.00  0.00     0.117 C 
HETATM    4  C   LIG     1      18.286  34.989  26.270  1.00  0.00     0.039 C 
BRANCH   3   5
HETATM    5  O   LIG     1      18.912  37.269  25.920  1.00  0.00    -0.396 OA
HETATM    6  H   LIG     1      19.124  37.512  26.859  1.00  0.00     0.210 HD
ENDBRANCH   3   5
ENDBRANCH   1   3
BRANCH   1   7
HETATM    7  C   LIG     1      17.128  35.156  23.795  1.00  0.00     0.007 C 
BRANCH   7   8
HETATM    8  C   LIG     1      17.152  35.345  22.265  1.00  0.00     0.000 C 
BRANCH   8   9
HETATM    9  C   LIG     1      15.909  34.752  21.582  1.00  0.00    -0.005 C 
HETATM   10  C   LIG     1      14.834  35.799  21.293  1.00  0.00     0.005 C 
ENDBRANCH   8   9
ENDBRANCH   7   8
ENDBRANCH   1   7
TORSDOF 5
ENDMDL
MODEL 7
REMARK VINA RESULT:      -5.1      2.325      3.078
REMARK  5 active torsions:
REMARK  status: ('A' for Active; 'I' for Inactive)
REMARK    1  A    between atoms: C_2  and  C_4 
REMARK    2  A    between atoms: C_2  and  O_3 
REMARK    3  A    between atoms: C_4  and  C_6 
REMARK    4  A    between atoms: C_6  and  C_7 
REMARK    5  A    between atoms: C_7  and  C_8 
ROOT
HETATM    1  C   LIG     1      17.555  38.262  21.487  1.00  0.00     0.010 C 
HETATM    2  C   LIG     1      17.265  36.750  21.515  1.00  0.00     0.012 C 
ENDROOT
BRANCH   1   3
HETATM    3  C   LIG     1      18.959  38.575  20.897  1.00  0.00     0.117 C 
HETATM    4  C   LIG     1      19.247  37.749  19.636  1.00  0.00     0.039 C 
BRANCH   3   5
HETATM    5  O   LIG     1      19.039  39.939  20.571  1.00  0.00    -0.396 OA
HETATM    6  H   LIG     1      20.002  40.179  20.559  1.00  0.00     0.210 HD
ENDBRANCH   3   5
ENDBRANCH   1   3
BRANCH   1   7
HETATM    7  C   LIG     1      17.333  38.896  22.887  1.00  0.00     0.007 C 
BRANCH   7   8
HETATM    8  C   LIG     1      18.194  38.278  24.007  1.00  0.00     0.000 C 
BRANCH   8   9
HETATM    9  C   LIG     1      17.351  37.809  25.203  1.00  0.00    -0.005 C 
HETATM   10  C   LIG     1      18.123  36.894  26.152  1.00  0.00     0.005 C 
ENDBRANCH   8   9
ENDBRANCH   7   8
ENDBRANCH   1   7
TORSDOF 5
ENDMDL
MODEL 8
REMARK VINA RESULT:      -4.9      1.516      4.040
REMARK  5 active torsions:
REMARK  status: ('A' for Active; 'I' for Inactive)
REMARK    1  A    between atoms: C_2  and  C_4 
REMARK    2  A    between atoms: C_2  and  O_3 
REMARK    3  A    between atoms: C_4  and  C_6 
REMARK    4  A    between atoms: C_6  and  C_7 
REMARK    5  A    between atoms: C_7  and  C_8 
ROOT
HETATM    1  C   LIG     1      17.515  35.814  24.638  1.00  0.00     0.010 C 
HETATM    2  C   LIG     1      17.427  34.956  25.914  1.00  0.00     0.012 C 
ENDROOT
BRANCH   1   3
HETATM    3  C   LIG     1      17.188  37.308  24.916  1.00  0.00     0.117 C 
HETATM    4  C   LIG     1      18.301  38.239  24.418  1.00  0.00     0.039 C 
BRANCH   3   5
HETATM    5  O   LIG     1      15.988  37.656  24.273  1.00  0.00    -0.396 OA
HETATM    6  H   LIG     1      16.061  38.613  24.020  1.00  0.00     0.210 HD
ENDBRANCH   3   5
ENDBRANCH   1   3
BRANCH   1   7
HETATM    7  C   LIG     1      16.648  35.208  23.501  1.00  0.00     0.007 C 
BRANCH   7   8
HETATM    8  C   LIG     1      17.286  35.299  22.100  1.00  0.00     0.000 C 
BRANCH   8   9
HETATM    9  C   LIG     1      16.259  35.098  20.974  1.00  0.00    -0.005 C 
HETATM   10  C   LIG     1      14.902  35.726  21.290  1.00  0.00     0.005 C 
ENDBRANCH   8   9
ENDBRANCH   7   8
ENDBRANCH   1   7
TORSDOF 5
ENDMDL
MODEL 9
REMARK VINA RESULT:      -4.9      2.149      4.325
REMARK  5 active torsions:
REMARK  status: ('A' for Active; 'I' for Inactive)
REMARK    1  A    between atoms: C_2  and  C_4 
REMARK    2  A    between atoms: C_2  and  O_3 
REMARK    3  A    between atoms: C_4  and  C_6 
REMARK    4  A    between atoms: C_6  and  C_7 
REMARK    5  A    between atoms: C_7  and  C_8 
ROOT
HETATM    1  C   LIG     1      16.797  36.372  22.664  1.00  0.00     0.010 C 
HETATM    2  C   LIG     1      17.046  35.265  23.705  1.00  0.00     0.012 C 
ENDROOT
BRANCH   1   3
HETATM    3  C   LIG     1      16.523  37.749  23.331  1.00  0.00     0.117 C 
HETATM    4  C   LIG     1      17.069  38.911  22.490  1.00  0.00     0.039 C 
BRANCH   3   5
HETATM    5  O   LIG     1      15.139  37.925  23.498  1.00  0.00    -0.396 OA
HETATM    6  H   LIG     1      15.010  38.438  24.338  1.00  0.00     0.210 HD
ENDBRANCH   3   5
ENDBRANCH   1   3
BRANCH   1   7
HETATM    7  C   LIG     1      15.685  35.954  21.664  1.00  0.00     0.007 C 
BRANCH   7   8
HETATM    8  C   LIG     1      16.091  34.817  20.704  1.00  0.00     0.000 C 
BRANCH   8   9
HETATM    9  C   LIG     1      15.121  33.626  20.765  1.00  0.00    -0.005 C 
HETATM   10  C   LIG     1      15.494  32.508  19.792  1.00  0.00     0.005 C 
ENDBRANCH   8   9
ENDBRANCH   7   8
ENDBRANCH   1   7
TORSDOF 5
ENDMDL
MODEL 10
REMARK VINA RESULT:      -4.7      2.491      3.876
REMARK  5 active torsions:
REMARK  status: ('A' for Active; 'I' for Inactive)
REMARK    1  A    between atoms: C_2  and  C_4 
REMARK    2  A    between atoms: C_2  and  O_3 
REMARK    3  A    between atoms: C_4  and  C_6 
REMARK    4  A    between atoms: C_6  and  C_7 
REMARK    5  A    between atoms: C_7  and  C_8 
ROOT
HETATM    1  C   LIG     1      16.478  35.668  21.521  1.00  0.00     0.010 C 
HETATM    2  C   LIG     1      17.635  36.071  20.587  1.00  0.00     0.012 C 
ENDROOT
BRANCH   1   3
HETATM    3  C   LIG     1      15.319  34.977  20.749  1.00  0.00     0.117 C 
HETATM    4  C   LIG     1      15.684  33.545  20.332  1.00  0.00     0.039 C 
BRANCH   3   5
HETATM    5  O   LIG     1      14.173  34.932  21.560  1.00  0.00    -0.396 OA
HETATM    6  H   LIG     1      14.423  35.323  22.438  1.00  0.00     0.210 HD
ENDBRANCH   3   5
ENDBRANCH   1   3
BRANCH   1   7
HETATM    7  C   LIG     1      16.001  36.878  22.368  1.00  0.00     0.007 C 
BRANCH   7   8
HETATM    8  C   LIG     1      17.137  37.646  23.074  1.00  0.00     0.000 C 
BRANCH   8   9
HETATM    9  C   LIG     1      17.230  39.109  22.613  1.00  0.00    -0.005 C 
HETATM   10  C   LIG     1      18.468  39.385  21.760  1.00  0.00     0.005 C 
ENDBRANCH   8   9
ENDBRANCH   7   8
ENDBRANCH   1   7
TORSDOF 5
ENDMDL
MODEL 11
REMARK VINA RESULT:      -4.6      7.436      9.855
REMARK  5 active torsions:
REMARK  status: ('A' for Active; 'I' for Inactive)
REMARK    1  A    between atoms: C_2  and  C_4 
REMARK    2  A    between atoms: C_2  and  O_3 
REMARK    3  A    between atoms: C_4  and  C_6 
REMARK    4  A    between atoms: C_6  and  C_7 
REMARK    5  A    between atoms: C_7  and  C_8 
ROOT
HETATM    1  C   LIG     1      14.475  32.733  17.474  1.00  0.00     0.010 C 
HETATM    2  C   LIG     1      15.069  34.080  17.019  1.00  0.00     0.012 C 
ENDROOT
BRANCH   1   3
HETATM    3  C   LIG     1      15.108  32.236  18.804  1.00  0.00     0.117 C 
HETATM    4  C   LIG     1      15.465  33.401  19.737  1.00  0.00     0.039 C 
BRANCH   3   5
HETATM    5  O   LIG     1      14.205  31.388  19.467  1.00  0.00    -0.396 OA
HETATM    6  H   LIG     1      14.116  30.569  18.914  1.00  0.00     0.210 HD
ENDBRANCH   3   5
ENDBRANCH   1   3
BRANCH   1   7
HETATM    7  C   LIG     1      14.554  31.679  16.337  1.00  0.00     0.007 C 
BRANCH   7   8
HETATM    8  C   LIG     1      13.278  30.831  16.168  1.00  0.00     0.000 C 
BRANCH   8   9
HETATM    9  C   LIG     1      13.307  29.975  14.892  1.00  0.00    -0.005 C 
HETATM   10  C   LIG     1      14.696  29.899  14.260  1.00  0.00     0.005 C 
ENDBRANCH   8   9
ENDBRANCH   7   8
ENDBRANCH   1   7
TORSDOF 5
ENDMDL
MODEL 12
REMARK VINA RESULT:      -4.6      3.681      6.121
REMARK  5 active torsions:
REMARK  status: ('A' for Active; 'I' for Inactive)
REMARK    1  A    between atoms: C_2  and  C_4 
REMARK    2  A    between atoms: C_2  and  O_3 
REMARK    3  A    between atoms: C_4  and  C_6 
REMARK    4  A    between atoms: C_6  and  C_7 
REMARK    5  A    between atoms: C_7  and  C_8 
ROOT
HETATM    1  C   LIG     1      18.522  37.488  20.638  1.00  0.00     0.010 C 
HETATM    2  C   LIG     1      17.468  36.407  20.939  1.00  0.00     0.012 C 
ENDROOT
BRANCH   1   3
HETATM    3  C   LIG     1      18.162  38.851  21.292  1.00  0.00     0.117 C 
HETATM    4  C   LIG     1      16.979  38.725  22.262  1.00  0.00     0.039 C 
BRANCH   3   5
HETATM    5  O   LIG     1      19.273  39.343  21.998  1.00  0.00    -0.396 OA
HETATM    6  H   LIG     1      19.226  38.964  22.914  1.00  0.00     0.210 HD
ENDBRANCH   3   5
ENDBRANCH   1   3
BRANCH   1   7
HETATM    7  C   LIG     1      18.782  37.601  19.111  1.00  0.00     0.007 C 
BRANCH   7   8
HETATM    8  C   LIG     1      19.364  38.958  18.666  1.00  0.00     0.000 C 
BRANCH   8   9
HETATM    9  C   LIG     1      18.387  39.753  17.784  1.00  0.00    -0.005 C 
HETATM   10  C   LIG     1      18.669  39.593  16.291  1.00  0.00     0.005 C 
ENDBRANCH   8   9
ENDBRANCH   7   8
ENDBRANCH   1   7
TORSDOF 5
ENDMDL
MODEL 13
REMARK VINA RESULT:      -4.6      2.972      4.361
REMARK  5 active torsions:
REMARK  status: ('A' for Active; 'I' for Inactive)
REMARK    1  A    between atoms: C_2  and  C_4 
REMARK    2  A    between atoms: C_2  and  O_3 
REMARK    3  A    between atoms: C_4  and  C_6 
REMARK    4  A    between atoms: C_6  and  C_7 
REMARK    5  A    between atoms: C_7  and  C_8 
ROOT
HETATM    1  C   LIG     1      17.719  37.021  20.797  1.00  0.00     0.010 C 
HETATM    2  C   LIG     1      18.837  36.775  19.766  1.00  0.00     0.012 C 
ENDROOT
BRANCH   1   3
HETATM    3  C   LIG     1      18.009  38.259  21.689  1.00  0.00     0.117 C 
HETATM    4  C   LIG     1      18.699  39.382  20.902  1.00  0.00     0.039 C 
BRANCH   3   5
HETATM    5  O   LIG     1      16.805  38.753  22.217  1.00  0.00    -0.396 OA
HETATM    6  H   LIG     1      16.992  39.041  23.148  1.00  0.00     0.210 HD
ENDBRANCH   3   5
ENDBRANCH   1   3
BRANCH   1   7
HETATM    7  C   LIG     1      17.432  35.737  21.621  1.00  0.00     0.007 C 
BRANCH   7   8
HETATM    8  C   LIG     1      15.988  35.211  21.495  1.00  0.00     0.000 C 
BRANCH   8   9
HETATM    9  C   LIG     1      15.689  34.648  20.096  1.00  0.00    -0.005 C 
HETATM   10  C   LIG     1      15.475  33.136  20.098  1.00  0.00     0.005 C 
ENDBRANCH   8   9
ENDBRANCH   7   8
ENDBRANCH   1   7
TORSDOF 5
ENDMDL
MODEL 14
REMARK VINA RESULT:      -4.5      9.156     11.012
REMARK  5 active torsions:
REMARK  status: ('A' for Active; 'I' for Inactive)
REMARK    1  A    between atoms: C_2  and  C_4 
REMARK    2  A    between atoms: C_2  and  O_3 
REMARK    3  A    between atoms: C_4  and  C_6 
REMARK    4  A    between atoms: C_6  and  C_7 
REMARK    5  A    between atoms: C_7  and  C_8 
ROOT
HETATM    1  C   LIG     1      16.381  32.455  15.400  1.00  0.00     0.010 C 
HETATM    2  C   LIG     1      15.368  33.077  16.379  1.00  0.00     0.012 C 
ENDROOT
BRANCH   1   3
HETATM    3  C   LIG     1      17.439  33.488  14.921  1.00  0.00     0.117 C 
HETATM    4  C   LIG     1      17.580  33.495  13.392  1.00  0.00     0.039 C 
BRANCH   3   5
HETATM    5  O   LIG     1      17.067  34.775  15.345  1.00  0.00    -0.396 OA
HETATM    6  H   LIG     1      17.889  35.220  15.678  1.00  0.00     0.210 HD
ENDBRANCH   3   5
ENDBRANCH   1   3
BRANCH   1   7
HETATM    7  C   LIG     1      15.654  31.746  14.225  1.00  0.00     0.007 C 
BRANCH   7   8
HETATM    8  C   LIG     1      15.518  30.220  14.392  1.00  0.00     0.000 C 
BRANCH   8   9
HETATM    9  C   LIG     1      14.055  29.752  14.337  1.00  0.00    -0.005 C 
HETATM   10  C   LIG     1      13.191  30.377  15.432  1.00  0.00     0.005 C 
ENDBRANCH   8   9
ENDBRANCH   7   8
ENDBRANCH   1   7
TORSDOF 5
ENDMDL
MODEL 15
REMARK VINA RESULT:      -4.5      8.543     10.437
REMARK  5 active torsions:
REMARK  status: ('A' for Active; 'I' for Inactive)
REMARK    1  A    between atoms: C_2  and  C_4 
REMARK    2  A    between atoms: C_2  and  O_3 
REMARK    3  A    between atoms: C_4  and  C_6 
REMARK    4  A    between atoms: C_6  and  C_7 
REMARK    5  A    between atoms: C_7  and  C_8 
ROOT
HETATM    1  C   LIG     1      14.483  31.398  15.195  1.00  0.00     0.010 C 
HETATM    2  C   LIG     1      13.307  30.514  15.652  1.00  0.00     0.012 C 
ENDROOT
BRANCH   1   3
HETATM    3  C   LIG     1      15.588  30.572  14.479  1.00  0.00     0.117 C 
HETATM    4  C   LIG     1      15.065  29.213  13.997  1.00  0.00     0.039 C 
BRANCH   3   5
HETATM    5  O   LIG     1      16.068  31.290  13.370  1.00  0.00    -0.396 OA
HETATM    6  H   LIG     1      15.339  31.305  12.697  1.00  0.00     0.210 HD
ENDBRANCH   3   5
ENDBRANCH   1   3
BRANCH   1   7
HETATM    7  C   LIG     1      15.031  32.246  16.374  1.00  0.00     0.007 C 
BRANCH   7   8
HETATM    8  C   LIG     1      14.285  32.037  17.707  1.00  0.00     0.000 C 
BRANCH   8   9
HETATM    9  C   LIG     1      15.196  32.246  18.927  1.00  0.00    -0.005 C 
HETATM   10  C   LIG     1      14.853  31.316  20.090  1.00  0.00     0.005 C 
ENDBRANCH   8   9
ENDBRANCH   7   8
ENDBRANCH   1   7
TORSDOF 5
ENDMDL
MODEL 16
REMARK VINA RESULT:      -4.4      7.414      9.893
REMARK  5 active torsions:
REMARK  status: ('A' for Active; 'I' for Inactive)
REMARK    1  A    between atoms: C_2  and  C_4 
REMARK    2  A    between atoms: C_2  and  O_3 
REMARK    3  A    between atoms: C_4  and  C_6 
REMARK    4  A    between atoms: C_6  and  C_7 
REMARK    5  A    between atoms: C_7  and  C_8 
ROOT
HETATM    1  C   LIG     1      14.853  32.032  17.209  1.00  0.00     0.010 C 
HETATM    2  C   LIG     1      13.452  31.564  16.773  1.00  0.00     0.012 C 
ENDROOT
BRANCH   1   3
HETATM    3  C   LIG     1      14.831  32.716  18.605  1.00  0.00     0.117 C 
HETATM    4  C   LIG     1      15.611  31.907  19.650  1.00  0.00     0.039 C 
BRANCH   3   5
HETATM    5  O   LIG     1      15.399  33.997  18.511  1.00  0.00    -0.396 OA
HETATM    6  H   LIG     1      15.198  34.467  19.363  1.00  0.00     0.210 HD
ENDBRANCH   3   5
ENDBRANCH   1   3
BRANCH   1   7
HETATM    7  C   LIG     1      15.509  32.917  16.115  1.00  0.00     0.007 C 
BRANCH   7   8
HETATM    8  C   LIG     1      16.505  32.168  15.207  1.00  0.00     0.000 C 
BRANCH   8   9
HETATM    9  C   LIG     1      15.945  31.928  13.795  1.00  0.00    -0.005 C 
HETATM   10  C   LIG     1      15.313  30.546  13.634  1.00  0.00     0.005 C 
ENDBRANCH   8   9
ENDBRANCH   7   8
ENDBRANCH   1   7
TORSDOF 5
ENDMDL
MODEL 17
REMARK VINA RESULT:      -4.2      1.937      3.888
REMARK  5 active torsions:
REMARK  status: ('A' for Active; 'I' for Inactive)
REMARK    1  A    between atoms: C_2  and  C_4 
REMARK    2  A    between atoms: C_2  and  O_3 
REMARK    3  A    between atoms: C_4  and  C_6 
REMARK    4  A    between atoms: C_6  and  C_7 
REMARK    5  A    between atoms: C_7  and  C_8 
ROOT
HETATM    1  C   LIG     1      16.963  37.231  24.559  1.00  0.00     0.010 C 
HETATM    2  C   LIG     1      18.144  37.849  25.330  1.00  0.00     0.012 C 
ENDROOT
BRANCH   1   3
HETATM    3  C   LIG     1      16.968  35.678  24.631  1.00  0.00     0.117 C 
HETATM    4  C   LIG     1      17.197  35.043  23.253  1.00  0.00     0.039 C 
BRANCH   3   5
HETATM    5  O   LIG     1      17.986  35.250  25.500  1.00  0.00    -0.396 OA
HETATM    6  H   LIG     1      18.664  34.783  24.944  1.00  0.00     0.210 HD
ENDBRANCH   3   5
ENDBRANCH   1   3
BRANCH   1   7
HETATM    7  C   LIG     1      16.908  37.768  23.103  1.00  0.00     0.007 C 
BRANCH   7   8
HETATM    8  C   LIG     1      17.568  39.148  22.911  1.00  0.00     0.000 C 
BRANCH   8   9
HETATM    9  C   LIG     1      18.819  39.080  22.021  1.00  0.00    -0.005 C 
HETATM   10  C   LIG     1      18.485  39.004  20.532  1.00  0.00     0.005 C 
ENDBRANCH   8   9
ENDBRANCH   7   8
ENDBRANCH   1   7
TORSDOF 5
ENDMDL
MODEL 18
REMARK VINA RESULT:      -4.1     10.285     12.094
REMARK  5 active torsions:
REMARK  status: ('A' for Active; 'I' for Inactive)
REMARK    1  A    between atoms: C_2  and  C_4 
REMARK    2  A    between atoms: C_2  and  O_3 
REMARK    3  A    between atoms: C_4  and  C_6 
REMARK    4  A    between atoms: C_6  and  C_7 
REMARK    5  A    between atoms: C_7  and  C_8 
ROOT
HETATM    1  C   LIG     1      15.815  31.561  14.942  1.00  0.00     0.010 C 
HETATM    2  C   LIG     1      14.850  31.847  16.107  1.00  0.00     0.012 C 
ENDROOT
BRANCH   1   3
HETATM    3  C   LIG     1      16.346  32.868  14.290  1.00  0.00     0.117 C 
HETATM    4  C   LIG     1      17.808  33.143  14.669  1.00  0.00     0.039 C 
BRANCH   3   5
HETATM    5  O   LIG     1      16.254  32.768  12.892  1.00  0.00    -0.396 OA
HETATM    6  H   LIG     1      17.127  33.062  12.521  1.00  0.00     0.210 HD
ENDBRANCH   3   5
ENDBRANCH   1   3
BRANCH   1   7
HETATM    7  C   LIG     1      15.172  30.591  13.914  1.00  0.00     0.007 C 
BRANCH   7   8
HETATM    8  C   LIG     1      13.972  29.793  14.460  1.00  0.00     0.000 C 
BRANCH   8   9
HETATM    9  C   LIG     1      13.915  28.363  13.899  1.00  0.00    -0.005 C 
HETATM   10  C   LIG     1      15.300  27.777  13.626  1.00  0.00     0.005 C 
ENDBRANCH   8   9
ENDBRANCH   7   8
ENDBRANCH   1   7
TORSDOF 5
ENDMDL
MODEL 19
REMARK VINA RESULT:      -4.1      9.449     10.451
REMARK  5 active torsions:
REMARK  status: ('A' for Active; 'I' for Inactive)
REMARK    1  A    between atoms: C_2  and  C_4 
REMARK    2  A    between atoms: C_2  and  O_3 
REMARK    3  A    between atoms: C_4  and  C_6 
REMARK    4  A    between atoms: C_6  and  C_7 
REMARK    5  A    between atoms: C_7  and  C_8 
ROOT
HETATM    1  C   LIG     1      15.062  31.673  16.099  1.00  0.00     0.010 C 
HETATM    2  C   LIG     1      14.915  30.833  14.817  1.00  0.00     0.012 C 
ENDROOT
BRANCH   1   3
HETATM    3  C   LIG     1      13.690  31.958  16.771  1.00  0.00     0.117 C 
HETATM    4  C   LIG     1      12.627  30.931  16.357  1.00  0.00     0.039 C 
BRANCH   3   5
HETATM    5  O   LIG     1      13.832  31.921  18.168  1.00  0.00    -0.396 OA
HETATM    6  H   LIG     1      14.003  30.975  18.417  1.00  0.00     0.210 HD
ENDBRANCH   3   5
ENDBRANCH   1   3
BRANCH   1   7
HETATM    7  C   LIG     1      15.880  32.965  15.826  1.00  0.00     0.007 C 
BRANCH   7   8
HETATM    8  C   LIG     1      17.189  32.733  15.046  1.00  0.00     0.000 C 
BRANCH   8   9
HETATM    9  C   LIG     1      17.701  34.013  14.365  1.00  0.00    -0.005 C 
HETATM   10  C   LIG     1      18.681  33.730  13.228  1.00  0.00     0.005 C 
ENDBRANCH   8   9
ENDBRANCH   7   8
ENDBRANCH   1   7
TORSDOF 5
ENDMDL
