REMARK  5 active torsions:
REMARK  status: ('A' for Active; 'I' for Inactive)
REMARK    1  A    between atoms: C_2  and  C_4 
REMARK    2  A    between atoms: C_2  and  O_3 
REMARK    3  A    between atoms: C_4  and  C_6 
REMARK    4  A    between atoms: C_6  and  C_7 
REMARK    5  A    between atoms: C_7  and  C_8 
ROOT
HETATM    1  C   LIG     1      -0.976   0.673  -0.311  1.00  0.00     0.010 C 
HETATM    2  C   LIG     1      -0.965   1.665   0.867  1.00  0.00     0.012 C 
ENDROOT
BRANCH   1   3
HETATM    3  C   LIG     1      -1.919  -0.534  -0.048  1.00  0.00     0.117 C 
HETATM    4  C   LIG     1      -3.388  -0.101   0.052  1.00  0.00     0.039 C 
BRANCH   3   5
HETATM    5  O   LIG     1      -1.794  -1.466  -1.092  1.00  0.00    -0.396 OA
HETATM    6  H   LIG     1      -2.107  -2.340  -0.740  1.00  0.00     0.210 HD
ENDBRANCH   3   5
ENDBRANCH   1   3
BRANCH   1   7
HETATM    7  C   LIG     1       0.467   0.241  -0.687  1.00  0.00     0.007 C 
BRANCH   7   8
HETATM    8  C   LIG     1       1.197  -0.557   0.412  1.00  0.00     0.000 C 
BRANCH   8   9
HETATM    9  C   LIG     1       2.596  -1.017  -0.029  1.00  0.00    -0.005 C 
HETATM   10  C   LIG     1       3.600   0.132  -0.111  1.00  0.00     0.005 C 
ENDBRANCH   8   9
ENDBRANCH   7   8
ENDBRANCH   1   7
TORSDOF 5
