MODEL 1
REMARK VINA RESULT:     -10.0      0.000      0.000
REMARK  4 active torsions:
REMARK  status: ('A' for Active; 'I' for Inactive)
REMARK    1  A    between atoms: O_2  and  C_3 
REMARK       I    between atoms: C_3  and  N_5 
REMARK    2  A    between atoms: N_5  and  C_6 
REMARK    3  A    between atoms: C_11  and  C_15 
REMARK    4  A    between atoms: C_15  and  C_17 
ROOT
HETATM    1  C   LIG     1      14.846  32.927  19.575  1.00  0.00     0.710 A 
HETATM    2  N   LIG     1      15.714  33.772  18.957  1.00  0.00    -0.062 NA
HETATM    3  C   LIG     1      16.019  34.644  19.935  1.00  0.00     0.103 A 
HETATM    4  C   LIG     1      16.870  35.742  19.861  1.00  0.00     0.036 A 
HETATM    5  C   LIG     1      17.034  36.524  21.019  1.00  0.00     0.018 A 
HETATM    6  C   LIG     1      16.359  36.190  22.225  1.00  0.00     0.017 A 
HETATM    7  C   LIG     1      15.491  35.071  22.250  1.00  0.00     0.048 A 
HETATM    8  C   LIG     1      15.358  34.325  21.083  1.00  0.00     0.079 A 
HETATM    9  N   LIG     1      14.607  33.238  20.872  1.00  0.00    -0.187 N 
HETATM   10  H   LIG     1      13.983  32.745  21.550  1.00  0.00     0.184 HD
ENDROOT
BRANCH   6  11
HETATM   11  C   LIG     1      16.532  37.042  23.426  1.00  0.00     0.192 C 
HETATM   12  O   LIG     1      16.029  38.199  23.429  1.00  0.00    -0.287 OA
BRANCH  11  13
HETATM   13  C   LIG     1      17.275  36.583  24.625  1.00  0.00     0.015 A 
HETATM   14  C   LIG     1      17.296  35.223  24.989  1.00  0.00     0.015 A 
HETATM   15  C   LIG     1      18.014  34.802  26.112  1.00  0.00     0.001 A 
HETATM   16  C   LIG     1      18.726  35.730  26.876  1.00  0.00     0.000 A 
HETATM   17  C   LIG     1      18.725  37.079  26.516  1.00  0.00     0.001 A 
HETATM   18  C   LIG     1      18.009  37.505  25.393  1.00  0.00     0.015 A 
ENDBRANCH  11  13
ENDBRANCH   6  11
BRANCH   1  19
HETATM   19  N   LIG     1      14.228  31.806  18.927  1.00  0.00    -0.133 N 
HETATM   20  C   LIG     1      14.059  31.699  17.507  1.00  0.00     0.378 C 
HETATM   21  O   LIG     1      13.502  30.673  17.030  1.00  0.00    -0.238 OA
HETATM   22  H   LIG     1      13.882  31.023  19.525  1.00  0.00     0.190 HD
BRANCH  20  23
HETATM   23  O   LIG     1      14.504  32.717  16.658  1.00  0.00    -0.308 OA
HETATM   24  C   LIG     1      15.550  32.525  15.712  1.00  0.00     0.215 C 
ENDBRANCH  20  23
ENDBRANCH   1  19
TORSDOF 4
ENDMDL
MODEL 2
REMARK VINA RESULT:      -9.3      1.096      1.507
REMARK  4 active torsions:
REMARK  status: ('A' for Active; 'I' for Inactive)
REMARK    1  A    between atoms: O_2  and  C_3 
REMARK       I    between atoms: C_3  and  N_5 
REMARK    2  A    between atoms: N_5  and  C_6 
REMARK    3  A    between atoms: C_11  and  C_15 
REMARK    4  A    between atoms: C_15  and  C_17 
ROOT
HETATM    1  C   LIG     1      15.580  34.311  18.674  1.00  0.00     0.710 A 
HETATM    2  N   LIG     1      16.623  35.167  18.500  1.00  0.00    -0.062 NA
HETATM    3  C   LIG     1      16.729  35.747  19.709  1.00  0.00     0.103 A 
HETATM    4  C   LIG     1      17.635  36.723  20.107  1.00  0.00     0.036 A 
HETATM    5  C   LIG     1      17.555  37.193  21.431  1.00  0.00     0.018 A 
HETATM    6  C   LIG     1      16.583  36.673  22.331  1.00  0.00     0.017 A 
HETATM    7  C   LIG     1      15.671  35.689  21.876  1.00  0.00     0.048 A 
HETATM    8  C   LIG     1      15.786  35.253  20.560  1.00  0.00     0.079 A 
HETATM    9  N   LIG     1      15.046  34.342  19.919  1.00  0.00    -0.187 N 
HETATM   10  H   LIG     1      14.245  33.784  20.292  1.00  0.00     0.184 HD
ENDROOT
BRANCH   6  11
HETATM   11  C   LIG     1      16.504  37.199  23.714  1.00  0.00     0.192 C 
HETATM   12  O   LIG     1      15.739  38.173  23.952  1.00  0.00    -0.287 OA
BRANCH  11  13
HETATM   13  C   LIG     1      17.293  36.620  24.829  1.00  0.00     0.015 A 
HETATM   14  C   LIG     1      17.286  35.235  25.081  1.00  0.00     0.015 A 
HETATM   15  C   LIG     1      18.047  34.702  26.126  1.00  0.00     0.001 A 
HETATM   16  C   LIG     1      18.830  35.542  26.922  1.00  0.00     0.000 A 
HETATM   17  C   LIG     1      18.858  36.916  26.671  1.00  0.00     0.001 A 
HETATM   18  C   LIG     1      18.098  37.454  25.627  1.00  0.00     0.015 A 
ENDBRANCH  11  13
ENDBRANCH   6  11
BRANCH   1  19
HETATM   19  N   LIG     1      15.076  33.451  17.642  1.00  0.00    -0.133 N 
HETATM   20  C   LIG     1      14.398  32.214  17.894  1.00  0.00     0.378 C 
HETATM   21  O   LIG     1      13.991  31.525  16.918  1.00  0.00    -0.238 OA
HETATM   22  H   LIG     1      15.211  33.746  16.648  1.00  0.00     0.190 HD
BRANCH  20  23
HETATM   23  O   LIG     1      14.188  31.771  19.203  1.00  0.00    -0.308 OA
HETATM   24  C   LIG     1      15.182  31.079  19.949  1.00  0.00     0.215 C 
ENDBRANCH  20  23
ENDBRANCH   1  19
TORSDOF 4
ENDMDL
MODEL 3
REMARK VINA RESULT:      -9.1      2.955      3.916
REMARK  4 active torsions:
REMARK  status: ('A' for Active; 'I' for Inactive)
REMARK    1  A    between atoms: O_2  and  C_3 
REMARK       I    between atoms: C_3  and  N_5 
REMARK    2  A    between atoms: N_5  and  C_6 
REMARK    3  A    between atoms: C_11  and  C_15 
REMARK    4  A    between atoms: C_15  and  C_17 
ROOT
HETATM    1  C   LIG     1      15.119  32.605  17.016  1.00  0.00     0.710 A 
HETATM    2  N   LIG     1      14.815  32.012  18.202  1.00  0.00    -0.062 NA
HETATM    3  C   LIG     1      15.145  32.961  19.096  1.00  0.00     0.103 A 
HETATM    4  C   LIG     1      15.049  32.894  20.482  1.00  0.00     0.036 A 
HETATM    5  C   LIG     1      15.464  34.016  21.224  1.00  0.00     0.018 A 
HETATM    6  C   LIG     1      15.952  35.181  20.571  1.00  0.00     0.017 A 
HETATM    7  C   LIG     1      16.045  35.199  19.157  1.00  0.00     0.048 A 
HETATM    8  C   LIG     1      15.624  34.068  18.463  1.00  0.00     0.079 A 
HETATM    9  N   LIG     1      15.617  33.859  17.142  1.00  0.00    -0.187 N 
HETATM   10  H   LIG     1      15.923  34.511  16.385  1.00  0.00     0.184 HD
ENDROOT
BRANCH   6  11
HETATM   11  C   LIG     1      16.402  36.342  21.374  1.00  0.00     0.192 C 
HETATM   12  O   LIG     1      15.791  36.616  22.443  1.00  0.00    -0.287 OA
BRANCH  11  13
HETATM   13  C   LIG     1      17.545  37.195  20.966  1.00  0.00     0.015 A 
HETATM   14  C   LIG     1      18.468  36.757  19.998  1.00  0.00     0.015 A 
HETATM   15  C   LIG     1      19.531  37.578  19.612  1.00  0.00     0.001 A 
HETATM   16  C   LIG     1      19.679  38.846  20.178  1.00  0.00     0.000 A 
HETATM   17  C   LIG     1      18.760  39.299  21.128  1.00  0.00     0.001 A 
HETATM   18  C   LIG     1      17.694  38.481  21.517  1.00  0.00     0.015 A 
ENDBRANCH  11  13
ENDBRANCH   6  11
BRANCH   1  19
HETATM   19  N   LIG     1      14.940  31.973  15.741  1.00  0.00    -0.133 N 
HETATM   20  C   LIG     1      15.997  31.767  14.796  1.00  0.00     0.378 C 
HETATM   21  O   LIG     1      15.741  31.202  13.698  1.00  0.00    -0.238 OA
HETATM   22  H   LIG     1      13.981  31.644  15.488  1.00  0.00     0.190 HD
BRANCH  20  23
HETATM   23  O   LIG     1      17.300  32.187  15.082  1.00  0.00    -0.308 OA
HETATM   24  C   LIG     1      17.924  33.271  14.405  1.00  0.00     0.215 C 
ENDBRANCH  20  23
ENDBRANCH   1  19
TORSDOF 4
ENDMDL
MODEL 4
REMARK VINA RESULT:      -8.7      3.973      9.363
REMARK  4 active torsions:
REMARK  status: ('A' for Active; 'I' for Inactive)
REMARK    1  A    between atoms: O_2  and  C_3 
REMARK       I    between atoms: C_3  and  N_5 
REMARK    2  A    between atoms: N_5  and  C_6 
REMARK    3  A    between atoms: C_11  and  C_15 
REMARK    4  A    between atoms: C_15  and  C_17 
ROOT
HETATM    1  C   LIG     1      14.759  32.023  17.522  1.00  0.00     0.710 A 
HETATM    2  N   LIG     1      14.556  31.181  16.473  1.00  0.00    -0.062 NA
HETATM    3  C   LIG     1      15.269  31.763  15.491  1.00  0.00     0.103 A 
HETATM    4  C   LIG     1      15.416  31.332  14.177  1.00  0.00     0.036 A 
HETATM    5  C   LIG     1      16.212  32.111  13.316  1.00  0.00     0.018 A 
HETATM    6  C   LIG     1      16.851  33.292  13.784  1.00  0.00     0.017 A 
HETATM    7  C   LIG     1      16.662  33.699  15.128  1.00  0.00     0.048 A 
HETATM    8  C   LIG     1      15.867  32.900  15.945  1.00  0.00     0.079 A 
HETATM    9  N   LIG     1      15.552  33.082  17.232  1.00  0.00    -0.187 N 
HETATM   10  H   LIG     1      15.850  33.858  17.865  1.00  0.00     0.184 HD
ENDROOT
BRANCH   6  11
HETATM   11  C   LIG     1      17.667  34.107  12.853  1.00  0.00     0.192 C 
HETATM   12  O   LIG     1      17.225  35.227  12.479  1.00  0.00    -0.287 OA
BRANCH  11  13
HETATM   13  C   LIG     1      18.984  33.652  12.346  1.00  0.00     0.015 A 
HETATM   14  C   LIG     1      19.075  32.768  11.254  1.00  0.00     0.015 A 
HETATM   15  C   LIG     1      20.324  32.361  10.776  1.00  0.00     0.001 A 
HETATM   16  C   LIG     1      21.493  32.837  11.374  1.00  0.00     0.000 A 
HETATM   17  C   LIG     1      21.416  33.727  12.448  1.00  0.00     0.001 A 
HETATM   18  C   LIG     1      20.169  34.138  12.929  1.00  0.00     0.015 A 
ENDBRANCH  11  13
ENDBRANCH   6  11
BRANCH   1  19
HETATM   19  N   LIG     1      14.188  31.823  18.823  1.00  0.00    -0.133 N 
HETATM   20  C   LIG     1      14.752  32.348  20.032  1.00  0.00     0.378 C 
HETATM   21  O   LIG     1      14.177  32.118  21.131  1.00  0.00    -0.238 OA
HETATM   22  H   LIG     1      13.309  31.262  18.892  1.00  0.00     0.190 HD
BRANCH  20  23
HETATM   23  O   LIG     1      15.926  33.107  19.999  1.00  0.00    -0.308 OA
HETATM   24  C   LIG     1      16.045  34.366  20.651  1.00  0.00     0.215 C 
ENDBRANCH  20  23
ENDBRANCH   1  19
TORSDOF 4
ENDMDL
MODEL 5
REMARK VINA RESULT:      -8.6      1.561      2.464
REMARK  4 active torsions:
REMARK  status: ('A' for Active; 'I' for Inactive)
REMARK    1  A    between atoms: O_2  and  C_3 
REMARK       I    between atoms: C_3  and  N_5 
REMARK    2  A    between atoms: N_5  and  C_6 
REMARK    3  A    between atoms: C_11  and  C_15 
REMARK    4  A    between atoms: C_15  and  C_17 
ROOT
HETATM    1  C   LIG     1      15.176  33.400  17.655  1.00  0.00     0.710 A 
HETATM    2  N   LIG     1      14.816  32.753  18.796  1.00  0.00    -0.062 NA
HETATM    3  C   LIG     1      15.216  33.608  19.755  1.00  0.00     0.103 A 
HETATM    4  C   LIG     1      15.106  33.454  21.132  1.00  0.00     0.036 A 
HETATM    5  C   LIG     1      15.606  34.484  21.951  1.00  0.00     0.018 A 
HETATM    6  C   LIG     1      16.192  35.647  21.380  1.00  0.00     0.017 A 
HETATM    7  C   LIG     1      16.296  35.755  19.971  1.00  0.00     0.048 A 
HETATM    8  C   LIG     1      15.789  34.713  19.200  1.00  0.00     0.079 A 
HETATM    9  N   LIG     1      15.773  34.597  17.868  1.00  0.00    -0.187 N 
HETATM   10  H   LIG     1      16.136  35.272  17.158  1.00  0.00     0.184 HD
ENDROOT
BRANCH   6  11
HETATM   11  C   LIG     1      16.730  36.710  22.263  1.00  0.00     0.192 C 
HETATM   12  O   LIG     1      16.830  37.883  21.811  1.00  0.00    -0.287 OA
BRANCH  11  13
HETATM   13  C   LIG     1      17.156  36.442  23.658  1.00  0.00     0.015 A 
HETATM   14  C   LIG     1      17.482  37.497  24.532  1.00  0.00     0.015 A 
HETATM   15  C   LIG     1      17.866  37.231  25.849  1.00  0.00     0.001 A 
HETATM   16  C   LIG     1      17.920  35.914  26.311  1.00  0.00     0.000 A 
HETATM   17  C   LIG     1      17.584  34.860  25.458  1.00  0.00     0.001 A 
HETATM   18  C   LIG     1      17.198  35.121  24.140  1.00  0.00     0.015 A 
ENDBRANCH  11  13
ENDBRANCH   6  11
BRANCH   1  19
HETATM   19  N   LIG     1      14.954  32.874  16.339  1.00  0.00    -0.133 N 
HETATM   20  C   LIG     1      15.961  32.817  15.321  1.00  0.00     0.378 C 
HETATM   21  O   LIG     1      15.669  32.337  14.192  1.00  0.00    -0.238 OA
HETATM   22  H   LIG     1      14.001  32.511  16.110  1.00  0.00     0.190 HD
BRANCH  20  23
HETATM   23  O   LIG     1      17.254  33.287  15.572  1.00  0.00    -0.308 OA
HETATM   24  C   LIG     1      18.260  33.344  14.567  1.00  0.00     0.215 C 
ENDBRANCH  20  23
ENDBRANCH   1  19
TORSDOF 4
ENDMDL
MODEL 6
REMARK VINA RESULT:      -8.2      2.710      3.581
REMARK  4 active torsions:
REMARK  status: ('A' for Active; 'I' for Inactive)
REMARK    1  A    between atoms: O_2  and  C_3 
REMARK       I    between atoms: C_3  and  N_5 
REMARK    2  A    between atoms: N_5  and  C_6 
REMARK    3  A    between atoms: C_11  and  C_15 
REMARK    4  A    between atoms: C_15  and  C_17 
ROOT
HETATM    1  C   LIG     1      13.998  31.482  17.317  1.00  0.00     0.710 A 
HETATM    2  N   LIG     1      14.359  32.650  16.721  1.00  0.00    -0.062 NA
HETATM    3  C   LIG     1      14.861  33.358  17.748  1.00  0.00     0.103 A 
HETATM    4  C   LIG     1      15.379  34.649  17.720  1.00  0.00     0.036 A 
HETATM    5  C   LIG     1      15.845  35.197  18.929  1.00  0.00     0.018 A 
HETATM    6  C   LIG     1      15.797  34.445  20.136  1.00  0.00     0.017 A 
HETATM    7  C   LIG     1      15.248  33.139  20.120  1.00  0.00     0.048 A 
HETATM    8  C   LIG     1      14.799  32.636  18.902  1.00  0.00     0.079 A 
HETATM    9  N   LIG     1      14.251  31.443  18.647  1.00  0.00    -0.187 N 
HETATM   10  H   LIG     1      14.064  30.663  19.317  1.00  0.00     0.184 HD
ENDROOT
BRANCH   6  11
HETATM   11  C   LIG     1      16.274  35.051  21.401  1.00  0.00     0.192 C 
HETATM   12  O   LIG     1      16.083  34.431  22.483  1.00  0.00    -0.287 OA
BRANCH  11  13
HETATM   13  C   LIG     1      16.970  36.360  21.442  1.00  0.00     0.015 A 
HETATM   14  C   LIG     1      18.019  36.652  20.550  1.00  0.00     0.015 A 
HETATM   15  C   LIG     1      18.654  37.897  20.588  1.00  0.00     0.001 A 
HETATM   16  C   LIG     1      18.245  38.865  21.508  1.00  0.00     0.000 A 
HETATM   17  C   LIG     1      17.194  38.592  22.388  1.00  0.00     0.001 A 
HETATM   18  C   LIG     1      16.555  37.349  22.352  1.00  0.00     0.015 A 
ENDBRANCH  11  13
ENDBRANCH   6  11
BRANCH   1  19
HETATM   19  N   LIG     1      13.399  30.383  16.615  1.00  0.00    -0.133 N 
HETATM   20  C   LIG     1      13.674  30.066  15.244  1.00  0.00     0.378 C 
HETATM   21  O   LIG     1      13.096  29.079  14.713  1.00  0.00    -0.238 OA
HETATM   22  H   LIG     1      12.724  29.779  17.135  1.00  0.00     0.190 HD
BRANCH  20  23
HETATM   23  O   LIG     1      14.570  30.840  14.500  1.00  0.00    -0.308 OA
HETATM   24  C   LIG     1      15.374  30.296  13.460  1.00  0.00     0.215 C 
ENDBRANCH  20  23
ENDBRANCH   1  19
TORSDOF 4
ENDMDL
MODEL 7
REMARK VINA RESULT:      -8.2      7.399      9.638
REMARK  4 active torsions:
REMARK  status: ('A' for Active; 'I' for Inactive)
REMARK    1  A    between atoms: O_2  and  C_3 
REMARK       I    between atoms: C_3  and  N_5 
REMARK    2  A    between atoms: N_5  and  C_6 
REMARK    3  A    between atoms: C_11  and  C_15 
REMARK    4  A    between atoms: C_15  and  C_17 
ROOT
HETATM    1  C   LIG     1      13.826  29.783  14.337  1.00  0.00     0.710 A 
HETATM    2  N   LIG     1      13.935  30.408  15.541  1.00  0.00    -0.062 NA
HETATM    3  C   LIG     1      14.862  31.352  15.296  1.00  0.00     0.103 A 
HETATM    4  C   LIG     1      15.376  32.290  16.185  1.00  0.00     0.036 A 
HETATM    5  C   LIG     1      16.354  33.182  15.706  1.00  0.00     0.018 A 
HETATM    6  C   LIG     1      16.787  33.129  14.352  1.00  0.00     0.017 A 
HETATM    7  C   LIG     1      16.245  32.147  13.487  1.00  0.00     0.048 A 
HETATM    8  C   LIG     1      15.282  31.285  14.002  1.00  0.00     0.079 A 
HETATM    9  N   LIG     1      14.636  30.293  13.378  1.00  0.00    -0.187 N 
HETATM   10  H   LIG     1      14.733  29.985  12.385  1.00  0.00     0.184 HD
ENDROOT
BRANCH   6  11
HETATM   11  C   LIG     1      17.833  34.065  13.876  1.00  0.00     0.192 C 
HETATM   12  O   LIG     1      17.806  35.261  14.278  1.00  0.00    -0.287 OA
BRANCH  11  13
HETATM   13  C   LIG     1      18.909  33.648  12.945  1.00  0.00     0.015 A 
HETATM   14  C   LIG     1      18.616  32.912  11.781  1.00  0.00     0.015 A 
HETATM   15  C   LIG     1      19.638  32.540  10.904  1.00  0.00     0.001 A 
HETATM   16  C   LIG     1      20.959  32.905  11.172  1.00  0.00     0.000 A 
HETATM   17  C   LIG     1      21.260  33.648  12.316  1.00  0.00     0.001 A 
HETATM   18  C   LIG     1      20.241  34.024  13.196  1.00  0.00     0.015 A 
ENDBRANCH  11  13
ENDBRANCH   6  11
BRANCH   1  19
HETATM   19  N   LIG     1      12.942  28.681  14.091  1.00  0.00    -0.133 N 
HETATM   20  C   LIG     1      13.381  27.387  13.656  1.00  0.00     0.378 C 
HETATM   21  O   LIG     1      12.526  26.479  13.465  1.00  0.00    -0.238 OA
HETATM   22  H   LIG     1      11.919  28.830  14.238  1.00  0.00     0.190 HD
BRANCH  20  23
HETATM   23  O   LIG     1      14.739  27.129  13.445  1.00  0.00    -0.308 OA
HETATM   24  C   LIG     1      15.294  26.948  12.147  1.00  0.00     0.215 C 
ENDBRANCH  20  23
ENDBRANCH   1  19
TORSDOF 4
ENDMDL
MODEL 8
REMARK VINA RESULT:      -7.7      2.294      8.756
REMARK  4 active torsions:
REMARK  status: ('A' for Active; 'I' for Inactive)
REMARK    1  A    between atoms: O_2  and  C_3 
REMARK       I    between atoms: C_3  and  N_5 
REMARK    2  A    between atoms: N_5  and  C_6 
REMARK    3  A    between atoms: C_11  and  C_15 
REMARK    4  A    between atoms: C_15  and  C_17 
ROOT
HETATM    1  C   LIG     1      16.362  34.426  20.869  1.00  0.00     0.710 A 
HETATM    2  N   LIG     1      16.299  35.196  19.750  1.00  0.00    -0.062 NA
HETATM    3  C   LIG     1      15.629  34.407  18.890  1.00  0.00     0.103 A 
HETATM    4  C   LIG     1      15.283  34.685  17.573  1.00  0.00     0.036 A 
HETATM    5  C   LIG     1      14.583  33.698  16.855  1.00  0.00     0.018 A 
HETATM    6  C   LIG     1      14.233  32.462  17.467  1.00  0.00     0.017 A 
HETATM    7  C   LIG     1      14.620  32.217  18.807  1.00  0.00     0.048 A 
HETATM    8  C   LIG     1      15.311  33.220  19.480  1.00  0.00     0.079 A 
HETATM    9  N   LIG     1      15.770  33.214  20.737  1.00  0.00    -0.187 N 
HETATM   10  H   LIG     1      15.689  32.454  21.448  1.00  0.00     0.184 HD
ENDROOT
BRANCH   6  11
HETATM   11  C   LIG     1      13.514  31.430  16.684  1.00  0.00     0.192 C 
HETATM   12  O   LIG     1      12.331  31.135  17.009  1.00  0.00    -0.287 OA
BRANCH  11  13
HETATM   13  C   LIG     1      14.135  30.730  15.533  1.00  0.00     0.015 A 
HETATM   14  C   LIG     1      13.574  29.548  15.014  1.00  0.00     0.015 A 
HETATM   15  C   LIG     1      14.160  28.908  13.919  1.00  0.00     0.001 A 
HETATM   16  C   LIG     1      15.304  29.445  13.323  1.00  0.00     0.000 A 
HETATM   17  C   LIG     1      15.861  30.627  13.819  1.00  0.00     0.001 A 
HETATM   18  C   LIG     1      15.277  31.271  14.915  1.00  0.00     0.015 A 
ENDBRANCH  11  13
ENDBRANCH   6  11
BRANCH   1  19
HETATM   19  N   LIG     1      16.996  34.842  22.086  1.00  0.00    -0.133 N 
HETATM   20  C   LIG     1      16.684  36.061  22.774  1.00  0.00     0.378 C 
HETATM   21  O   LIG     1      17.298  36.342  23.839  1.00  0.00    -0.238 OA
HETATM   22  H   LIG     1      17.730  34.220  22.495  1.00  0.00     0.190 HD
BRANCH  20  23
HETATM   23  O   LIG     1      15.710  36.931  22.273  1.00  0.00    -0.308 OA
HETATM   24  C   LIG     1      15.660  38.310  22.621  1.00  0.00     0.215 C 
ENDBRANCH  20  23
ENDBRANCH   1  19
TORSDOF 4
ENDMDL
MODEL 9
REMARK VINA RESULT:      -7.6      4.648      7.259
REMARK  4 active torsions:
REMARK  status: ('A' for Active; 'I' for Inactive)
REMARK    1  A    between atoms: O_2  and  C_3 
REMARK       I    between atoms: C_3  and  N_5 
REMARK    2  A    between atoms: N_5  and  C_6 
REMARK    3  A    between atoms: C_11  and  C_15 
REMARK    4  A    between atoms: C_15  and  C_17 
ROOT
HETATM    1  C   LIG     1      13.456  28.556  14.190  1.00  0.00     0.710 A 
HETATM    2  N   LIG     1      14.670  28.889  13.675  1.00  0.00    -0.062 NA
HETATM    3  C   LIG     1      14.962  30.028  14.330  1.00  0.00     0.103 A 
HETATM    4  C   LIG     1      16.095  30.821  14.193  1.00  0.00     0.036 A 
HETATM    5  C   LIG     1      16.183  31.983  14.982  1.00  0.00     0.018 A 
HETATM    6  C   LIG     1      15.148  32.322  15.897  1.00  0.00     0.017 A 
HETATM    7  C   LIG     1      14.005  31.491  15.993  1.00  0.00     0.048 A 
HETATM    8  C   LIG     1      13.959  30.352  15.194  1.00  0.00     0.079 A 
HETATM    9  N   LIG     1      12.994  29.429  15.117  1.00  0.00    -0.187 N 
HETATM   10  H   LIG     1      12.095  29.391  15.648  1.00  0.00     0.184 HD
ENDROOT
BRANCH   6  11
HETATM   11  C   LIG     1      15.253  33.561  16.703  1.00  0.00     0.192 C 
HETATM   12  O   LIG     1      15.367  34.667  16.106  1.00  0.00    -0.287 OA
BRANCH  11  13
HETATM   13  C   LIG     1      15.230  33.549  18.186  1.00  0.00     0.015 A 
HETATM   14  C   LIG     1      14.996  32.357  18.898  1.00  0.00     0.015 A 
HETATM   15  C   LIG     1      14.993  32.357  20.295  1.00  0.00     0.001 A 
HETATM   16  C   LIG     1      15.233  33.541  20.997  1.00  0.00     0.000 A 
HETATM   17  C   LIG     1      15.483  34.727  20.302  1.00  0.00     0.001 A 
HETATM   18  C   LIG     1      15.487  34.731  18.903  1.00  0.00     0.015 A 
ENDBRANCH  11  13
ENDBRANCH   6  11
BRANCH   1  19
HETATM   19  N   LIG     1      12.717  27.392  13.794  1.00  0.00    -0.133 N 
HETATM   20  C   LIG     1      11.506  27.436  13.029  1.00  0.00     0.378 C 
HETATM   21  O   LIG     1      10.926  26.357  12.729  1.00  0.00    -0.238 OA
HETATM   22  H   LIG     1      13.084  26.457  14.081  1.00  0.00     0.190 HD
BRANCH  20  23
HETATM   23  O   LIG     1      10.969  28.660  12.616  1.00  0.00    -0.308 OA
HETATM   24  C   LIG     1       9.793  29.216  13.192  1.00  0.00     0.215 C 
ENDBRANCH  20  23
ENDBRANCH   1  19
TORSDOF 4
ENDMDL
MODEL 10
REMARK VINA RESULT:      -7.6      2.237      8.117
REMARK  4 active torsions:
REMARK  status: ('A' for Active; 'I' for Inactive)
REMARK    1  A    between atoms: O_2  and  C_3 
REMARK       I    between atoms: C_3  and  N_5 
REMARK    2  A    between atoms: N_5  and  C_6 
REMARK    3  A    between atoms: C_11  and  C_15 
REMARK    4  A    between atoms: C_15  and  C_17 
ROOT
HETATM    1  C   LIG     1      16.687  36.487  22.745  1.00  0.00     0.710 A 
HETATM    2  N   LIG     1      16.827  36.861  21.444  1.00  0.00    -0.062 NA
HETATM    3  C   LIG     1      16.368  35.785  20.780  1.00  0.00     0.103 A 
HETATM    4  C   LIG     1      16.285  35.606  19.404  1.00  0.00     0.036 A 
HETATM    5  C   LIG     1      15.775  34.383  18.930  1.00  0.00     0.018 A 
HETATM    6  C   LIG     1      15.349  33.372  19.835  1.00  0.00     0.017 A 
HETATM    7  C   LIG     1      15.466  33.593  21.229  1.00  0.00     0.048 A 
HETATM    8  C   LIG     1      15.975  34.816  21.655  1.00  0.00     0.079 A 
HETATM    9  N   LIG     1      16.173  35.244  22.906  1.00  0.00    -0.187 N 
HETATM   10  H   LIG     1      15.975  34.738  23.799  1.00  0.00     0.184 HD
ENDROOT
BRANCH   6  11
HETATM   11  C   LIG     1      14.834  32.084  19.312  1.00  0.00     0.192 C 
HETATM   12  O   LIG     1      14.479  31.193  20.131  1.00  0.00    -0.287 OA
BRANCH  11  13
HETATM   13  C   LIG     1      14.722  31.805  17.859  1.00  0.00     0.015 A 
HETATM   14  C   LIG     1      13.656  31.041  17.348  1.00  0.00     0.015 A 
HETATM   15  C   LIG     1      13.554  30.799  15.975  1.00  0.00     0.001 A 
HETATM   16  C   LIG     1      14.507  31.325  15.098  1.00  0.00     0.000 A 
HETATM   17  C   LIG     1      15.560  32.098  15.593  1.00  0.00     0.001 A 
HETATM   18  C   LIG     1      15.665  32.343  16.965  1.00  0.00     0.015 A 
ENDBRANCH  11  13
ENDBRANCH   6  11
BRANCH   1  19
HETATM   19  N   LIG     1      17.051  37.319  23.855  1.00  0.00    -0.133 N 
HETATM   20  C   LIG     1      17.355  36.818  25.163  1.00  0.00     0.378 C 
HETATM   21  O   LIG     1      17.664  37.630  26.078  1.00  0.00    -0.238 OA
HETATM   22  H   LIG     1      17.098  38.351  23.700  1.00  0.00     0.190 HD
BRANCH  20  23
HETATM   23  O   LIG     1      17.310  35.445  25.428  1.00  0.00    -0.308 OA
HETATM   24  C   LIG     1      18.296  34.781  26.209  1.00  0.00     0.215 C 
ENDBRANCH  20  23
ENDBRANCH   1  19
TORSDOF 4
ENDMDL
