REMARK  4 active torsions:
REMARK  status: ('A' for Active; 'I' for Inactive)
REMARK    1  A    between atoms: O_2  and  C_3 
REMARK       I    between atoms: C_3  and  N_5 
REMARK    2  A    between atoms: N_5  and  C_6 
REMARK    3  A    between atoms: C_11  and  C_15 
REMARK    4  A    between atoms: C_15  and  C_17 
ROOT
HETATM    1  C   LIG     1       2.518  -1.178   0.021  1.00  0.00     0.710 A 
HETATM    2  N   LIG     1       2.776   0.152  -0.102  1.00  0.00    -0.062 NA
HETATM    3  C   LIG     1       1.558   0.663  -0.357  1.00  0.00     0.103 A 
HETATM    4  C   LIG     1       1.224   1.994  -0.582  1.00  0.00     0.036 A 
HETATM    5  C   LIG     1      -0.126   2.298  -0.839  1.00  0.00     0.018 A 
HETATM    6  C   LIG     1      -1.113   1.274  -0.854  1.00  0.00     0.017 A 
HETATM    7  C   LIG     1      -0.724  -0.070  -0.633  1.00  0.00     0.048 A 
HETATM    8  C   LIG     1       0.621  -0.326  -0.383  1.00  0.00     0.079 A 
HETATM    9  N   LIG     1       1.213  -1.502  -0.147  1.00  0.00    -0.187 N 
HETATM   10  H   LIG     1       0.772  -2.448  -0.102  1.00  0.00     0.184 HD
ENDROOT
BRANCH   6  11
HETATM   11  C   LIG     1      -2.525   1.616  -1.147  1.00  0.00     0.192 C 
HETATM   12  O   LIG     1      -2.769   2.584  -1.918  1.00  0.00    -0.287 OA
BRANCH  11  13
HETATM   13  C   LIG     1      -3.662   0.861  -0.566  1.00  0.00     0.015 A 
HETATM   14  C   LIG     1      -3.582   0.310   0.727  1.00  0.00     0.015 A 
HETATM   15  C   LIG     1      -4.667  -0.385   1.268  1.00  0.00     0.001 A 
HETATM   16  C   LIG     1      -5.845  -0.529   0.531  1.00  0.00     0.000 A 
HETATM   17  C   LIG     1      -5.942   0.027  -0.747  1.00  0.00     0.001 A 
HETATM   18  C   LIG     1      -4.859   0.724  -1.292  1.00  0.00     0.015 A 
ENDBRANCH  11  13
ENDBRANCH   6  11
BRANCH   1  19
HETATM   19  N   LIG     1       3.525  -2.161   0.299  1.00  0.00    -0.133 N 
HETATM   20  C   LIG     1       4.913  -1.853   0.481  1.00  0.00     0.378 C 
HETATM   21  O   LIG     1       5.725  -2.788   0.721  1.00  0.00    -0.238 OA
HETATM   22  H   LIG     1       3.228  -3.160   0.373  1.00  0.00     0.190 HD
BRANCH  20  23
HETATM   23  O   LIG     1       5.367  -0.533   0.394  1.00  0.00    -0.308 OA
HETATM   24  C   LIG     1       6.734  -0.178   0.565  1.00  0.00     0.215 C 
ENDBRANCH  20  23
ENDBRANCH   1  19
TORSDOF 4
