MODEL 1
REMARK VINA RESULT:      -5.7      0.000      0.000
REMARK  1 active torsions:
REMARK  status: ('A' for Active; 'I' for Inactive)
REMARK    1  A    between atoms: O_1  and  C_2 
ROOT
HETATM    1  C   LIG     1      17.175  35.455  24.142  1.00  0.00     0.179 A 
HETATM    2  C   LIG     1      17.144  36.831  24.345  1.00  0.00     0.083 A 
HETATM    3  C   LIG     1      16.792  37.917  23.570  1.00  0.00     0.158 A 
HETATM    4  N   LIG     1      16.971  39.038  24.314  1.00  0.00    -0.184 NA
HETATM    5  N   LIG     1      17.420  38.684  25.515  1.00  0.00    -0.261 N 
HETATM    6  C   LIG     1      17.527  37.349  25.536  1.00  0.00     0.161 A 
HETATM    7  N   LIG     1      17.946  36.577  26.567  1.00  0.00    -0.222 NA
HETATM    8  C   LIG     1      17.980  35.223  26.379  1.00  0.00     0.238 A 
HETATM    9  N   LIG     1      17.598  34.674  25.180  1.00  0.00    -0.217 NA
HETATM   10  H   LIG     1      17.644  39.347  26.289  1.00  0.00     0.191 HD
ENDROOT
BRANCH   1  11
HETATM   11  O   LIG     1      16.793  34.874  22.936  1.00  0.00    -0.344 OA
HETATM   12  H   LIG     1      16.007  35.226  22.402  1.00  0.00     0.219 HD
ENDBRANCH   1  11
TORSDOF 1
ENDMDL
MODEL 2
REMARK VINA RESULT:      -5.7      1.209      2.839
REMARK  1 active torsions:
REMARK  status: ('A' for Active; 'I' for Inactive)
REMARK    1  A    between atoms: O_1  and  C_2 
ROOT
HETATM    1  C   LIG     1      16.915  36.204  23.015  1.00  0.00     0.179 A 
HETATM    2  C   LIG     1      17.229  36.470  24.343  1.00  0.00     0.083 A 
HETATM    3  C   LIG     1      17.631  35.702  25.416  1.00  0.00     0.158 A 
HETATM    4  N   LIG     1      17.791  36.525  26.484  1.00  0.00    -0.184 NA
HETATM    5  N   LIG     1      17.502  37.768  26.110  1.00  0.00    -0.261 N 
HETATM    6  C   LIG     1      17.161  37.737  24.815  1.00  0.00     0.161 A 
HETATM    7  N   LIG     1      16.795  38.786  24.040  1.00  0.00    -0.222 NA
HETATM    8  C   LIG     1      16.484  38.536  22.732  1.00  0.00     0.238 A 
HETATM    9  N   LIG     1      16.545  37.260  22.231  1.00  0.00    -0.217 NA
HETATM   10  H   LIG     1      17.541  38.604  26.733  1.00  0.00     0.191 HD
ENDROOT
BRANCH   1  11
HETATM   11  O   LIG     1      16.968  34.919  22.482  1.00  0.00    -0.344 OA
HETATM   12  H   LIG     1      17.747  34.298  22.669  1.00  0.00     0.219 HD
ENDBRANCH   1  11
TORSDOF 1
ENDMDL
MODEL 3
REMARK VINA RESULT:      -5.6      2.080      2.793
REMARK  1 active torsions:
REMARK  status: ('A' for Active; 'I' for Inactive)
REMARK    1  A    between atoms: O_1  and  C_2 
ROOT
HETATM    1  C   LIG     1      17.406  37.536  25.478  1.00  0.00     0.179 A 
HETATM    2  C   LIG     1      17.068  36.992  24.244  1.00  0.00     0.083 A 
HETATM    3  C   LIG     1      16.623  37.511  23.045  1.00  0.00     0.158 A 
HETATM    4  N   LIG     1      16.458  36.480  22.177  1.00  0.00    -0.184 NA
HETATM    5  N   LIG     1      16.783  35.348  22.795  1.00  0.00    -0.261 N 
HETATM    6  C   LIG     1      17.152  35.655  24.046  1.00  0.00     0.161 A 
HETATM    7  N   LIG     1      17.560  34.799  25.012  1.00  0.00    -0.222 NA
HETATM    8  C   LIG     1      17.895  35.322  26.231  1.00  0.00     0.238 A 
HETATM    9  N   LIG     1      17.817  36.674  26.455  1.00  0.00    -0.217 NA
HETATM   10  H   LIG     1      16.748  34.400  22.362  1.00  0.00     0.191 HD
ENDROOT
BRANCH   1  11
HETATM   11  O   LIG     1      17.336  38.903  25.731  1.00  0.00    -0.344 OA
HETATM   12  H   LIG     1      17.645  39.586  25.050  1.00  0.00     0.219 HD
ENDBRANCH   1  11
TORSDOF 1
ENDMDL
MODEL 4
REMARK VINA RESULT:      -5.6     10.204     11.081
REMARK  1 active torsions:
REMARK  status: ('A' for Active; 'I' for Inactive)
REMARK    1  A    between atoms: O_1  and  C_2 
ROOT
HETATM    1  C   LIG     1      15.121  30.767  14.524  1.00  0.00     0.179 A 
HETATM    2  C   LIG     1      14.272  31.109  15.570  1.00  0.00     0.083 A 
HETATM    3  C   LIG     1      13.012  30.708  15.967  1.00  0.00     0.158 A 
HETATM    4  N   LIG     1      12.685  31.403  17.087  1.00  0.00    -0.184 NA
HETATM    5  N   LIG     1      13.692  32.215  17.393  1.00  0.00    -0.261 N 
HETATM    6  C   LIG     1      14.654  32.040  16.477  1.00  0.00     0.161 A 
HETATM    7  N   LIG     1      15.851  32.669  16.416  1.00  0.00    -0.222 NA
HETATM    8  C   LIG     1      16.695  32.341  15.391  1.00  0.00     0.238 A 
HETATM    9  N   LIG     1      16.329  31.401  14.459  1.00  0.00    -0.217 NA
HETATM   10  H   LIG     1      13.709  32.866  18.209  1.00  0.00     0.191 HD
ENDROOT
BRANCH   1  11
HETATM   11  O   LIG     1      14.774  29.817  13.566  1.00  0.00    -0.344 OA
HETATM   12  H   LIG     1      15.394  29.052  13.328  1.00  0.00     0.219 HD
ENDBRANCH   1  11
TORSDOF 1
ENDMDL
MODEL 5
REMARK VINA RESULT:      -5.6      2.963      4.026
REMARK  1 active torsions:
REMARK  status: ('A' for Active; 'I' for Inactive)
REMARK    1  A    between atoms: O_1  and  C_2 
ROOT
HETATM    1  C   LIG     1      17.753  37.065  20.815  1.00  0.00     0.179 A 
HETATM    2  C   LIG     1      17.098  37.571  21.932  1.00  0.00     0.083 A 
HETATM    3  C   LIG     1      16.067  37.128  22.734  1.00  0.00     0.158 A 
HETATM    4  N   LIG     1      15.850  38.063  23.694  1.00  0.00    -0.184 NA
HETATM    5  N   LIG     1      16.707  39.065  23.512  1.00  0.00    -0.261 N 
HETATM    6  C   LIG     1      17.462  38.770  22.446  1.00  0.00     0.161 A 
HETATM    7  N   LIG     1      18.458  39.519  21.917  1.00  0.00    -0.222 NA
HETATM    8  C   LIG     1      19.110  39.031  20.818  1.00  0.00     0.238 A 
HETATM    9  N   LIG     1      18.758  37.819  20.278  1.00  0.00    -0.217 NA
HETATM   10  H   LIG     1      16.762  39.919  24.108  1.00  0.00     0.191 HD
ENDROOT
BRANCH   1  11
HETATM   11  O   LIG     1      17.415  35.839  20.248  1.00  0.00    -0.344 OA
HETATM   12  H   LIG     1      18.120  35.147  20.020  1.00  0.00     0.219 HD
ENDBRANCH   1  11
TORSDOF 1
ENDMDL
MODEL 6
REMARK VINA RESULT:      -5.5      3.376      4.647
REMARK  1 active torsions:
REMARK  status: ('A' for Active; 'I' for Inactive)
REMARK    1  A    between atoms: O_1  and  C_2 
ROOT
HETATM    1  C   LIG     1      16.318  38.073  22.783  1.00  0.00     0.179 A 
HETATM    2  C   LIG     1      16.570  37.066  21.859  1.00  0.00     0.083 A 
HETATM    3  C   LIG     1      15.955  35.874  21.533  1.00  0.00     0.158 A 
HETATM    4  N   LIG     1      16.664  35.297  20.529  1.00  0.00    -0.184 NA
HETATM    5  N   LIG     1      17.691  36.087  20.226  1.00  0.00    -0.261 N 
HETATM    6  C   LIG     1      17.636  37.157  21.030  1.00  0.00     0.161 A 
HETATM    7  N   LIG     1      18.492  38.207  21.055  1.00  0.00    -0.222 NA
HETATM    8  C   LIG     1      18.254  39.204  21.960  1.00  0.00     0.238 A 
HETATM    9  N   LIG     1      17.179  39.133  22.811  1.00  0.00    -0.217 NA
HETATM   10  H   LIG     1      18.402  35.887  19.489  1.00  0.00     0.191 HD
ENDROOT
BRANCH   1  11
HETATM   11  O   LIG     1      15.235  38.025  23.658  1.00  0.00    -0.344 OA
HETATM   12  H   LIG     1      14.466  38.681  23.587  1.00  0.00     0.219 HD
ENDBRANCH   1  11
TORSDOF 1
ENDMDL
MODEL 7
REMARK VINA RESULT:      -5.5      1.609      2.459
REMARK  1 active torsions:
REMARK  status: ('A' for Active; 'I' for Inactive)
REMARK    1  A    between atoms: O_1  and  C_2 
ROOT
HETATM    1  C   LIG     1      17.381  35.428  24.859  1.00  0.00     0.179 A 
HETATM    2  C   LIG     1      17.255  36.812  24.836  1.00  0.00     0.083 A 
HETATM    3  C   LIG     1      17.405  37.815  25.772  1.00  0.00     0.158 A 
HETATM    4  N   LIG     1      17.147  39.000  25.163  1.00  0.00    -0.184 NA
HETATM    5  N   LIG     1      16.842  38.766  23.889  1.00  0.00    -0.261 N 
HETATM    6  C   LIG     1      16.906  37.443  23.690  1.00  0.00     0.161 A 
HETATM    7  N   LIG     1      16.670  36.777  22.534  1.00  0.00    -0.222 NA
HETATM    8  C   LIG     1      16.792  35.415  22.544  1.00  0.00     0.238 A 
HETATM    9  N   LIG     1      17.143  34.754  23.695  1.00  0.00    -0.217 NA
HETATM   10  H   LIG     1      16.599  39.499  23.188  1.00  0.00     0.191 HD
ENDROOT
BRANCH   1  11
HETATM   11  O   LIG     1      17.736  34.734  26.013  1.00  0.00    -0.344 OA
HETATM   12  H   LIG     1      17.546  35.105  26.936  1.00  0.00     0.219 HD
ENDBRANCH   1  11
TORSDOF 1
ENDMDL
MODEL 8
REMARK VINA RESULT:      -5.5      4.042      4.952
REMARK  1 active torsions:
REMARK  status: ('A' for Active; 'I' for Inactive)
REMARK    1  A    between atoms: O_1  and  C_2 
ROOT
HETATM    1  C   LIG     1      17.192  38.138  22.019  1.00  0.00     0.179 A 
HETATM    2  C   LIG     1      18.211  38.487  21.141  1.00  0.00     0.083 A 
HETATM    3  C   LIG     1      18.972  39.620  20.941  1.00  0.00     0.158 A 
HETATM    4  N   LIG     1      19.831  39.374  19.918  1.00  0.00    -0.184 NA
HETATM    5  N   LIG     1      19.627  38.134  19.482  1.00  0.00    -0.261 N 
HETATM    6  C   LIG     1      18.647  37.595  20.219  1.00  0.00     0.161 A 
HETATM    7  N   LIG     1      18.129  36.349  20.107  1.00  0.00    -0.222 NA
HETATM    8  C   LIG     1      17.125  35.995  20.967  1.00  0.00     0.238 A 
HETATM    9  N   LIG     1      16.666  36.882  21.908  1.00  0.00    -0.217 NA
HETATM   10  H   LIG     1      20.150  37.682  18.700  1.00  0.00     0.191 HD
ENDROOT
BRANCH   1  11
HETATM   11  O   LIG     1      16.708  39.018  22.983  1.00  0.00    -0.344 OA
HETATM   12  H   LIG     1      15.876  39.575  22.826  1.00  0.00     0.219 HD
ENDBRANCH   1  11
TORSDOF 1
ENDMDL
MODEL 9
REMARK VINA RESULT:      -5.5      3.111      4.012
REMARK  1 active torsions:
REMARK  status: ('A' for Active; 'I' for Inactive)
REMARK    1  A    between atoms: O_1  and  C_2 
ROOT
HETATM    1  C   LIG     1      17.320  36.711  21.168  1.00  0.00     0.179 A 
HETATM    2  C   LIG     1      18.102  37.830  20.908  1.00  0.00     0.083 A 
HETATM    3  C   LIG     1      18.937  38.212  19.878  1.00  0.00     0.158 A 
HETATM    4  N   LIG     1      19.440  39.436  20.177  1.00  0.00    -0.184 NA
HETATM    5  N   LIG     1      18.949  39.823  21.351  1.00  0.00    -0.261 N 
HETATM    6  C   LIG     1      18.139  38.852  21.796  1.00  0.00     0.161 A 
HETATM    7  N   LIG     1      17.435  38.840  22.952  1.00  0.00    -0.222 NA
HETATM    8  C   LIG     1      16.662  37.744  23.219  1.00  0.00     0.238 A 
HETATM    9  N   LIG     1      16.609  36.695  22.334  1.00  0.00    -0.217 NA
HETATM   10  H   LIG     1      19.169  40.726  21.823  1.00  0.00     0.191 HD
ENDROOT
BRANCH   1  11
HETATM   11  O   LIG     1      17.249  35.634  20.288  1.00  0.00    -0.344 OA
HETATM   12  H   LIG     1      16.826  35.724  19.371  1.00  0.00     0.219 HD
ENDBRANCH   1  11
TORSDOF 1
ENDMDL
MODEL 10
REMARK VINA RESULT:      -5.4     10.355     11.593
REMARK  1 active torsions:
REMARK  status: ('A' for Active; 'I' for Inactive)
REMARK    1  A    between atoms: O_1  and  C_2 
ROOT
HETATM    1  C   LIG     1      15.750  31.871  15.292  1.00  0.00     0.179 A 
HETATM    2  C   LIG     1      14.547  31.572  15.923  1.00  0.00     0.083 A 
HETATM    3  C   LIG     1      13.872  32.081  17.013  1.00  0.00     0.158 A 
HETATM    4  N   LIG     1      12.721  31.376  17.161  1.00  0.00    -0.184 NA
HETATM    5  N   LIG     1      12.664  30.452  16.205  1.00  0.00    -0.261 N 
HETATM    6  C   LIG     1      13.768  30.568  15.456  1.00  0.00     0.161 A 
HETATM    7  N   LIG     1      14.107  29.823  14.377  1.00  0.00    -0.222 NA
HETATM    8  C   LIG     1      15.288  30.108  13.748  1.00  0.00     0.238 A 
HETATM    9  N   LIG     1      16.095  31.120  14.205  1.00  0.00    -0.217 NA
HETATM   10  H   LIG     1      11.886  29.768  16.082  1.00  0.00     0.191 HD
ENDROOT
BRANCH   1  11
HETATM   11  O   LIG     1      16.587  32.892  15.735  1.00  0.00    -0.344 OA
HETATM   12  H   LIG     1      16.286  33.559  16.436  1.00  0.00     0.219 HD
ENDBRANCH   1  11
TORSDOF 1
ENDMDL
MODEL 11
REMARK VINA RESULT:      -5.4     10.048     11.105
REMARK  1 active torsions:
REMARK  status: ('A' for Active; 'I' for Inactive)
REMARK    1  A    between atoms: O_1  and  C_2 
ROOT
HETATM    1  C   LIG     1      13.649  30.650  15.738  1.00  0.00     0.179 A 
HETATM    2  C   LIG     1      14.504  31.681  16.110  1.00  0.00     0.083 A 
HETATM    3  C   LIG     1      14.522  32.603  17.137  1.00  0.00     0.158 A 
HETATM    4  N   LIG     1      15.627  33.377  16.986  1.00  0.00    -0.184 NA
HETATM    5  N   LIG     1      16.288  32.969  15.907  1.00  0.00    -0.261 N 
HETATM    6  C   LIG     1      15.611  31.943  15.375  1.00  0.00     0.161 A 
HETATM    7  N   LIG     1      15.937  31.233  14.269  1.00  0.00    -0.222 NA
HETATM    8  C   LIG     1      15.103  30.216  13.893  1.00  0.00     0.238 A 
HETATM    9  N   LIG     1      13.974  29.932  14.622  1.00  0.00    -0.217 NA
HETATM   10  H   LIG     1      17.176  33.389  15.556  1.00  0.00     0.191 HD
ENDROOT
BRANCH   1  11
HETATM   11  O   LIG     1      12.499  30.342  16.460  1.00  0.00    -0.344 OA
HETATM   12  H   LIG     1      12.218  30.885  17.268  1.00  0.00     0.219 HD
ENDBRANCH   1  11
TORSDOF 1
ENDMDL
MODEL 12
REMARK VINA RESULT:      -5.4      3.585      4.638
REMARK  1 active torsions:
REMARK  status: ('A' for Active; 'I' for Inactive)
REMARK    1  A    between atoms: O_1  and  C_2 
ROOT
HETATM    1  C   LIG     1      18.522  38.804  21.018  1.00  0.00     0.179 A 
HETATM    2  C   LIG     1      17.512  38.368  21.867  1.00  0.00     0.083 A 
HETATM    3  C   LIG     1      16.814  38.934  22.914  1.00  0.00     0.158 A 
HETATM    4  N   LIG     1      15.928  38.014  23.374  1.00  0.00    -0.184 NA
HETATM    5  N   LIG     1      16.054  36.904  22.652  1.00  0.00    -0.261 N 
HETATM    6  C   LIG     1      17.013  37.115  21.740  1.00  0.00     0.161 A 
HETATM    7  N   LIG     1      17.458  36.244  20.804  1.00  0.00    -0.222 NA
HETATM    8  C   LIG     1      18.452  36.663  19.962  1.00  0.00     0.238 A 
HETATM    9  N   LIG     1      18.974  37.927  20.072  1.00  0.00    -0.217 NA
HETATM   10  H   LIG     1      15.495  36.034  22.790  1.00  0.00     0.191 HD
ENDROOT
BRANCH   1  11
HETATM   11  O   LIG     1      19.069  40.081  21.108  1.00  0.00    -0.344 OA
HETATM   12  H   LIG     1      19.607  40.373  21.916  1.00  0.00     0.219 HD
ENDBRANCH   1  11
TORSDOF 1
ENDMDL
MODEL 13
REMARK VINA RESULT:      -5.4      1.941      2.858
REMARK  1 active torsions:
REMARK  status: ('A' for Active; 'I' for Inactive)
REMARK    1  A    between atoms: O_1  and  C_2 
ROOT
HETATM    1  C   LIG     1      17.558  35.915  25.270  1.00  0.00     0.179 A 
HETATM    2  C   LIG     1      17.130  36.057  23.955  1.00  0.00     0.083 A 
HETATM    3  C   LIG     1      16.921  35.188  22.904  1.00  0.00     0.158 A 
HETATM    4  N   LIG     1      16.492  35.913  21.839  1.00  0.00    -0.184 NA
HETATM    5  N   LIG     1      16.429  37.193  22.193  1.00  0.00    -0.261 N 
HETATM    6  C   LIG     1      16.815  37.284  23.473  1.00  0.00     0.161 A 
HETATM    7  N   LIG     1      16.897  38.406  24.226  1.00  0.00    -0.222 NA
HETATM    8  C   LIG     1      17.317  38.278  25.522  1.00  0.00     0.238 A 
HETATM    9  N   LIG     1      17.642  37.045  26.032  1.00  0.00    -0.217 NA
HETATM   10  H   LIG     1      16.130  37.973  21.568  1.00  0.00     0.191 HD
ENDROOT
BRANCH   1  11
HETATM   11  O   LIG     1      17.893  34.677  25.811  1.00  0.00    -0.344 OA
HETATM   12  H   LIG     1      17.819  34.494  26.805  1.00  0.00     0.219 HD
ENDBRANCH   1  11
TORSDOF 1
ENDMDL
MODEL 14
REMARK VINA RESULT:      -5.4      2.032      2.965
REMARK  1 active torsions:
REMARK  status: ('A' for Active; 'I' for Inactive)
REMARK    1  A    between atoms: O_1  and  C_2 
ROOT
HETATM    1  C   LIG     1      17.035  37.648  22.600  1.00  0.00     0.179 A 
HETATM    2  C   LIG     1      17.219  37.421  23.960  1.00  0.00     0.083 A 
HETATM    3  C   LIG     1      17.408  38.231  25.061  1.00  0.00     0.158 A 
HETATM    4  N   LIG     1      17.530  37.433  26.153  1.00  0.00    -0.184 NA
HETATM    5  N   LIG     1      17.424  36.165  25.766  1.00  0.00    -0.261 N 
HETATM    6  C   LIG     1      17.237  36.155  24.440  1.00  0.00     0.161 A 
HETATM    7  N   LIG     1      17.080  35.071  23.643  1.00  0.00    -0.222 NA
HETATM    8  C   LIG     1      16.899  35.282  22.304  1.00  0.00     0.238 A 
HETATM    9  N   LIG     1      16.878  36.556  21.795  1.00  0.00    -0.217 NA
HETATM   10  H   LIG     1      17.482  35.339  26.402  1.00  0.00     0.191 HD
ENDROOT
BRANCH   1  11
HETATM   11  O   LIG     1      17.010  38.930  22.059  1.00  0.00    -0.344 OA
HETATM   12  H   LIG     1      16.146  39.454  21.972  1.00  0.00     0.219 HD
ENDBRANCH   1  11
TORSDOF 1
ENDMDL
MODEL 15
REMARK VINA RESULT:      -5.4      3.369      3.969
REMARK  1 active torsions:
REMARK  status: ('A' for Active; 'I' for Inactive)
REMARK    1  A    between atoms: O_1  and  C_2 
ROOT
HETATM    1  C   LIG     1      17.537  36.487  20.718  1.00  0.00     0.179 A 
HETATM    2  C   LIG     1      17.027  37.317  21.710  1.00  0.00     0.083 A 
HETATM    3  C   LIG     1      17.506  38.413  22.397  1.00  0.00     0.158 A 
HETATM    4  N   LIG     1      16.543  38.818  23.265  1.00  0.00    -0.184 NA
HETATM    5  N   LIG     1      15.492  38.013  23.139  1.00  0.00    -0.261 N 
HETATM    6  C   LIG     1      15.782  37.104  22.199  1.00  0.00     0.161 A 
HETATM    7  N   LIG     1      14.988  36.098  21.760  1.00  0.00    -0.222 NA
HETATM    8  C   LIG     1      15.479  35.275  20.784  1.00  0.00     0.238 A 
HETATM    9  N   LIG     1      16.738  35.471  20.274  1.00  0.00    -0.217 NA
HETATM   10  H   LIG     1      14.608  38.094  23.687  1.00  0.00     0.191 HD
ENDROOT
BRANCH   1  11
HETATM   11  O   LIG     1      18.810  36.664  20.183  1.00  0.00    -0.344 OA
HETATM   12  H   LIG     1      19.242  35.961  19.595  1.00  0.00     0.219 HD
ENDBRANCH   1  11
TORSDOF 1
ENDMDL
MODEL 16
REMARK VINA RESULT:      -5.3     10.345     11.629
REMARK  1 active torsions:
REMARK  status: ('A' for Active; 'I' for Inactive)
REMARK    1  A    between atoms: O_1  and  C_2 
ROOT
HETATM    1  C   LIG     1      14.672  32.091  16.575  1.00  0.00     0.179 A 
HETATM    2  C   LIG     1      14.294  31.129  15.645  1.00  0.00     0.083 A 
HETATM    3  C   LIG     1      13.186  30.325  15.477  1.00  0.00     0.158 A 
HETATM    4  N   LIG     1      13.380  29.568  14.366  1.00  0.00    -0.184 NA
HETATM    5  N   LIG     1      14.565  29.875  13.845  1.00  0.00    -0.261 N 
HETATM    6  C   LIG     1      15.121  30.819  14.617  1.00  0.00     0.161 A 
HETATM    7  N   LIG     1      16.325  31.413  14.445  1.00  0.00    -0.222 NA
HETATM    8  C   LIG     1      16.707  32.361  15.354  1.00  0.00     0.238 A 
HETATM    9  N   LIG     1      15.887  32.691  16.404  1.00  0.00    -0.217 NA
HETATM   10  H   LIG     1      14.970  29.444  12.986  1.00  0.00     0.191 HD
ENDROOT
BRANCH   1  11
HETATM   11  O   LIG     1      13.859  32.444  17.649  1.00  0.00    -0.344 OA
HETATM   12  H   LIG     1      13.047  31.894  17.904  1.00  0.00     0.219 HD
ENDBRANCH   1  11
TORSDOF 1
ENDMDL
MODEL 17
REMARK VINA RESULT:      -5.3      3.679      4.629
REMARK  1 active torsions:
REMARK  status: ('A' for Active; 'I' for Inactive)
REMARK    1  A    between atoms: O_1  and  C_2 
ROOT
HETATM    1  C   LIG     1      18.030  38.860  22.194  1.00  0.00     0.179 A 
HETATM    2  C   LIG     1      18.090  37.881  21.208  1.00  0.00     0.083 A 
HETATM    3  C   LIG     1      18.742  37.764  19.998  1.00  0.00     0.158 A 
HETATM    4  N   LIG     1      18.416  36.560  19.461  1.00  0.00    -0.184 NA
HETATM    5  N   LIG     1      17.590  35.933  20.293  1.00  0.00    -0.261 N 
HETATM    6  C   LIG     1      17.390  36.731  21.351  1.00  0.00     0.161 A 
HETATM    7  N   LIG     1      16.616  36.477  22.432  1.00  0.00    -0.222 NA
HETATM    8  C   LIG     1      16.549  37.432  23.409  1.00  0.00     0.238 A 
HETATM    9  N   LIG     1      17.249  38.607  23.286  1.00  0.00    -0.217 NA
HETATM   10  H   LIG     1      17.181  34.987  20.130  1.00  0.00     0.191 HD
ENDROOT
BRANCH   1  11
HETATM   11  O   LIG     1      18.729  40.059  22.094  1.00  0.00    -0.344 OA
HETATM   12  H   LIG     1      19.400  40.343  22.798  1.00  0.00     0.219 HD
ENDBRANCH   1  11
TORSDOF 1
ENDMDL
MODEL 18
REMARK VINA RESULT:      -5.3     10.241     11.386
REMARK  1 active torsions:
REMARK  status: ('A' for Active; 'I' for Inactive)
REMARK    1  A    between atoms: O_1  and  C_2 
ROOT
HETATM    1  C   LIG     1      13.555  31.130  16.390  1.00  0.00     0.179 A 
HETATM    2  C   LIG     1      14.409  30.960  15.306  1.00  0.00     0.083 A 
HETATM    3  C   LIG     1      14.547  30.002  14.323  1.00  0.00     0.158 A 
HETATM    4  N   LIG     1      15.576  30.373  13.517  1.00  0.00    -0.184 NA
HETATM    5  N   LIG     1      16.075  31.521  13.968  1.00  0.00    -0.261 N 
HETATM    6  C   LIG     1      15.371  31.878  15.050  1.00  0.00     0.161 A 
HETATM    7  N   LIG     1      15.548  32.981  15.814  1.00  0.00    -0.222 NA
HETATM    8  C   LIG     1      14.714  33.160  16.883  1.00  0.00     0.238 A 
HETATM    9  N   LIG     1      13.732  32.242  17.163  1.00  0.00    -0.217 NA
HETATM   10  H   LIG     1      16.875  32.034  13.537  1.00  0.00     0.191 HD
ENDROOT
BRANCH   1  11
HETATM   11  O   LIG     1      12.551  30.215  16.695  1.00  0.00    -0.344 OA
HETATM   12  H   LIG     1      11.681  30.505  17.126  1.00  0.00     0.219 HD
ENDBRANCH   1  11
TORSDOF 1
ENDMDL
MODEL 19
REMARK VINA RESULT:      -5.2     10.067     11.292
REMARK  1 active torsions:
REMARK  status: ('A' for Active; 'I' for Inactive)
REMARK    1  A    between atoms: O_1  and  C_2 
ROOT
HETATM    1  C   LIG     1      15.817  31.907  15.554  1.00  0.00     0.179 A 
HETATM    2  C   LIG     1      14.752  31.055  15.280  1.00  0.00     0.083 A 
HETATM    3  C   LIG     1      14.454  30.175  14.260  1.00  0.00     0.158 A 
HETATM    4  N   LIG     1      13.250  29.609  14.533  1.00  0.00    -0.184 NA
HETATM    5  N   LIG     1      12.797  30.108  15.680  1.00  0.00    -0.261 N 
HETATM    6  C   LIG     1      13.703  30.984  16.133  1.00  0.00     0.161 A 
HETATM    7  N   LIG     1      13.637  31.716  17.270  1.00  0.00    -0.222 NA
HETATM    8  C   LIG     1      14.678  32.558  17.551  1.00  0.00     0.238 A 
HETATM    9  N   LIG     1      15.752  32.648  16.700  1.00  0.00    -0.217 NA
HETATM   10  H   LIG     1      11.891  29.848  16.128  1.00  0.00     0.191 HD
ENDROOT
BRANCH   1  11
HETATM   11  O   LIG     1      16.917  32.017  14.708  1.00  0.00    -0.344 OA
HETATM   12  H   LIG     1      16.808  32.174  13.713  1.00  0.00     0.219 HD
ENDBRANCH   1  11
TORSDOF 1
ENDMDL
MODEL 20
REMARK VINA RESULT:      -5.1      9.939     11.113
REMARK  1 active torsions:
REMARK  status: ('A' for Active; 'I' for Inactive)
REMARK    1  A    between atoms: O_1  and  C_2 
ROOT
HETATM    1  C   LIG     1      15.388  33.183  16.227  1.00  0.00     0.179 A 
HETATM    2  C   LIG     1      15.525  32.277  15.181  1.00  0.00     0.083 A 
HETATM    3  C   LIG     1      16.262  32.246  14.016  1.00  0.00     0.158 A 
HETATM    4  N   LIG     1      15.984  31.083  13.373  1.00  0.00    -0.184 NA
HETATM    5  N   LIG     1      15.104  30.398  14.098  1.00  0.00    -0.261 N 
HETATM    6  C   LIG     1      14.823  31.118  15.192  1.00  0.00     0.161 A 
HETATM    7  N   LIG     1      13.975  30.788  16.194  1.00  0.00    -0.222 NA
HETATM    8  C   LIG     1      13.833  31.671  17.228  1.00  0.00     0.238 A 
HETATM    9  N   LIG     1      14.532  32.853  17.239  1.00  0.00    -0.217 NA
HETATM   10  H   LIG     1      14.713  29.465  13.839  1.00  0.00     0.191 HD
ENDROOT
BRANCH   1  11
HETATM   11  O   LIG     1      16.085  34.387  16.262  1.00  0.00    -0.344 OA
HETATM   12  H   LIG     1      16.162  34.932  17.113  1.00  0.00     0.219 HD
ENDBRANCH   1  11
TORSDOF 1
ENDMDL
