MODEL 1
REMARK VINA RESULT:      -6.7      0.000      0.000
REMARK  1 active torsions:
REMARK  status: ('A' for Active; 'I' for Inactive)
REMARK    1  A    between atoms: C_9  and  C_10 
ROOT
HETATM    1 CL   LIG     1      14.518  35.674  22.035  1.00  0.00    -0.083 Cl
HETATM    2  C   LIG     1      16.000  36.298  21.316  1.00  0.00     0.046 A 
HETATM    3  C   LIG     1      16.647  37.363  21.952  1.00  0.00     0.050 A 
HETATM    4  C   LIG     1      17.856  37.861  21.456  1.00  0.00     0.057 A 
HETATM    5 CL   LIG     1      18.632  39.200  22.291  1.00  0.00    -0.082 Cl
HETATM    6  C   LIG     1      18.431  37.283  20.314  1.00  0.00     0.056 A 
HETATM    7 CL   LIG     1      19.953  37.876  19.661  1.00  0.00    -0.083 Cl
HETATM    8  C   LIG     1      17.789  36.219  19.675  1.00  0.00     0.039 A 
HETATM    9  C   LIG     1      16.568  35.720  20.159  1.00  0.00    -0.002 A 
ENDROOT
BRANCH   9  10
HETATM   10  C   LIG     1      15.913  34.601  19.445  1.00  0.00    -0.022 A 
HETATM   11  C   LIG     1      15.530  34.738  18.102  1.00  0.00     0.014 A 
HETATM   12  C   LIG     1      14.927  33.673  17.428  1.00  0.00     0.026 A 
HETATM   13  C   LIG     1      14.709  32.457  18.083  1.00  0.00     0.055 A 
HETATM   14  C   LIG     1      15.101  32.306  19.424  1.00  0.00     0.056 A 
HETATM   15 CL   LIG     1      13.949  31.139  17.200  1.00  0.00    -0.083 Cl
HETATM   16 CL   LIG     1      14.850  30.793  20.282  1.00  0.00    -0.083 Cl
HETATM   17  C   LIG     1      15.704  33.375  20.098  1.00  0.00     0.038 A 
ENDBRANCH   9  10
TORSDOF 1
ENDMDL
MODEL 2
REMARK VINA RESULT:      -5.8      2.770      3.623
REMARK  1 active torsions:
REMARK  status: ('A' for Active; 'I' for Inactive)
REMARK    1  A    between atoms: C_9  and  C_10 
ROOT
HETATM    1 CL   LIG     1      16.259  38.440  21.986  1.00  0.00    -0.083 Cl
HETATM    2  C   LIG     1      16.851  37.301  23.193  1.00  0.00     0.046 A 
HETATM    3  C   LIG     1      17.290  37.807  24.421  1.00  0.00     0.050 A 
HETATM    4  C   LIG     1      17.717  36.944  25.435  1.00  0.00     0.057 A 
HETATM    5 CL   LIG     1      18.259  37.628  26.962  1.00  0.00    -0.082 Cl
HETATM    6  C   LIG     1      17.701  35.557  25.223  1.00  0.00     0.056 A 
HETATM    7 CL   LIG     1      18.226  34.438  26.473  1.00  0.00    -0.083 Cl
HETATM    8  C   LIG     1      17.264  35.046  23.997  1.00  0.00     0.039 A 
HETATM    9  C   LIG     1      16.844  35.906  22.969  1.00  0.00    -0.002 A 
ENDROOT
BRANCH   9  10
HETATM   10  C   LIG     1      16.401  35.327  21.680  1.00  0.00    -0.022 A 
HETATM   11  C   LIG     1      16.707  35.965  20.469  1.00  0.00     0.014 A 
HETATM   12  C   LIG     1      16.302  35.405  19.254  1.00  0.00     0.026 A 
HETATM   13  C   LIG     1      15.595  34.198  19.235  1.00  0.00     0.055 A 
HETATM   14  C   LIG     1      15.295  33.546  20.443  1.00  0.00     0.056 A 
HETATM   15 CL   LIG     1      15.103  33.524  17.687  1.00  0.00    -0.083 Cl
HETATM   16 CL   LIG     1      14.414  32.025  20.463  1.00  0.00    -0.083 Cl
HETATM   17  C   LIG     1      15.702  34.109  21.659  1.00  0.00     0.038 A 
ENDBRANCH   9  10
TORSDOF 1
ENDMDL
MODEL 3
REMARK VINA RESULT:      -5.5      5.818      7.790
REMARK  1 active torsions:
REMARK  status: ('A' for Active; 'I' for Inactive)
REMARK    1  A    between atoms: C_9  and  C_10 
ROOT
HETATM    1 CL   LIG     1      16.077  34.806  11.505  1.00  0.00    -0.083 Cl
HETATM    2  C   LIG     1      17.762  34.477  11.900  1.00  0.00     0.046 A 
HETATM    3  C   LIG     1      18.751  34.987  11.052  1.00  0.00     0.050 A 
HETATM    4  C   LIG     1      20.105  34.804  11.348  1.00  0.00     0.057 A 
HETATM    5 CL   LIG     1      21.313  35.465  10.253  1.00  0.00    -0.082 Cl
HETATM    6  C   LIG     1      20.478  34.109  12.508  1.00  0.00     0.056 A 
HETATM    7 CL   LIG     1      22.170  33.861  12.919  1.00  0.00    -0.083 Cl
HETATM    8  C   LIG     1      19.493  33.597  13.358  1.00  0.00     0.039 A 
HETATM    9  C   LIG     1      18.130  33.766  13.063  1.00  0.00    -0.002 A 
ENDROOT
BRANCH   9  10
HETATM   10  C   LIG     1      17.118  33.197  13.981  1.00  0.00    -0.022 A 
HETATM   11  C   LIG     1      16.823  33.831  15.198  1.00  0.00     0.014 A 
HETATM   12  C   LIG     1      15.854  33.300  16.054  1.00  0.00     0.026 A 
HETATM   13  C   LIG     1      15.164  32.136  15.701  1.00  0.00     0.055 A 
HETATM   14  C   LIG     1      15.445  31.501  14.479  1.00  0.00     0.056 A 
HETATM   15 CL   LIG     1      13.951  31.498  16.804  1.00  0.00    -0.083 Cl
HETATM   16 CL   LIG     1      14.596  30.039  13.995  1.00  0.00    -0.083 Cl
HETATM   17  C   LIG     1      16.415  32.036  13.623  1.00  0.00     0.038 A 
ENDBRANCH   9  10
TORSDOF 1
ENDMDL
MODEL 4
REMARK VINA RESULT:      -5.2      5.521      8.336
REMARK  1 active torsions:
REMARK  status: ('A' for Active; 'I' for Inactive)
REMARK    1  A    between atoms: C_9  and  C_10 
ROOT
HETATM    1 CL   LIG     1      17.178  35.534  15.824  1.00  0.00    -0.083 Cl
HETATM    2  C   LIG     1      16.509  33.930  15.529  1.00  0.00     0.046 A 
HETATM    3  C   LIG     1      15.485  33.478  16.368  1.00  0.00     0.050 A 
HETATM    4  C   LIG     1      14.880  32.236  16.146  1.00  0.00     0.057 A 
HETATM    5 CL   LIG     1      13.595  31.711  17.225  1.00  0.00    -0.082 Cl
HETATM    6  C   LIG     1      15.298  31.439  15.069  1.00  0.00     0.056 A 
HETATM    7 CL   LIG     1      14.560  29.875  14.752  1.00  0.00    -0.083 Cl
HETATM    8  C   LIG     1      16.321  31.888  14.229  1.00  0.00     0.039 A 
HETATM    9  C   LIG     1      16.943  33.127  14.451  1.00  0.00    -0.002 A 
ENDROOT
BRANCH   9  10
HETATM   10  C   LIG     1      18.032  33.560  13.547  1.00  0.00    -0.022 A 
HETATM   11  C   LIG     1      19.371  33.268  13.853  1.00  0.00     0.014 A 
HETATM   12  C   LIG     1      20.394  33.663  12.988  1.00  0.00     0.026 A 
HETATM   13  C   LIG     1      20.093  34.346  11.805  1.00  0.00     0.055 A 
HETATM   14  C   LIG     1      18.755  34.631  11.484  1.00  0.00     0.056 A 
HETATM   15 CL   LIG     1      21.409  34.826  10.740  1.00  0.00    -0.083 Cl
HETATM   16 CL   LIG     1      18.334  35.481  10.005  1.00  0.00    -0.083 Cl
HETATM   17  C   LIG     1      17.731  34.234  12.353  1.00  0.00     0.038 A 
ENDBRANCH   9  10
TORSDOF 1
ENDMDL
MODEL 5
REMARK VINA RESULT:      -5.1      4.676      7.577
REMARK  1 active torsions:
REMARK  status: ('A' for Active; 'I' for Inactive)
REMARK    1  A    between atoms: C_9  and  C_10 
ROOT
HETATM    1 CL   LIG     1      15.849  32.023  13.156  1.00  0.00    -0.083 Cl
HETATM    2  C   LIG     1      15.421  31.948  14.863  1.00  0.00     0.046 A 
HETATM    3  C   LIG     1      15.749  33.038  15.676  1.00  0.00     0.050 A 
HETATM    4  C   LIG     1      15.383  33.056  17.025  1.00  0.00     0.057 A 
HETATM    5 CL   LIG     1      15.817  34.449  18.007  1.00  0.00    -0.082 Cl
HETATM    6  C   LIG     1      14.675  31.974  17.570  1.00  0.00     0.056 A 
HETATM    7 CL   LIG     1      14.191  31.959  19.261  1.00  0.00    -0.083 Cl
HETATM    8  C   LIG     1      14.344  30.882  16.762  1.00  0.00     0.039 A 
HETATM    9  C   LIG     1      14.718  30.851  15.408  1.00  0.00    -0.002 A 
ENDROOT
BRANCH   9  10
HETATM   10  C   LIG     1      14.361  29.670  14.589  1.00  0.00    -0.022 A 
HETATM   11  C   LIG     1      15.346  28.749  14.200  1.00  0.00     0.014 A 
HETATM   12  C   LIG     1      15.002  27.627  13.441  1.00  0.00     0.026 A 
HETATM   13  C   LIG     1      13.671  27.407  13.071  1.00  0.00     0.055 A 
HETATM   14  C   LIG     1      12.677  28.317  13.468  1.00  0.00     0.056 A 
HETATM   15 CL   LIG     1      13.277  25.982  12.118  1.00  0.00    -0.083 Cl
HETATM   16 CL   LIG     1      10.992  28.074  13.029  1.00  0.00    -0.083 Cl
HETATM   17  C   LIG     1      13.024  29.441  14.228  1.00  0.00     0.038 A 
ENDBRANCH   9  10
TORSDOF 1
ENDMDL
MODEL 6
REMARK VINA RESULT:      -5.1     14.753     16.257
REMARK  1 active torsions:
REMARK  status: ('A' for Active; 'I' for Inactive)
REMARK    1  A    between atoms: C_9  and  C_10 
ROOT
HETATM    1 CL   LIG     1      27.533  24.329  21.538  1.00  0.00    -0.083 Cl
HETATM    2  C   LIG     1      26.276  23.518  20.607  1.00  0.00     0.046 A 
HETATM    3  C   LIG     1      25.253  22.866  21.304  1.00  0.00     0.050 A 
HETATM    4  C   LIG     1      24.200  22.255  20.617  1.00  0.00     0.057 A 
HETATM    5 CL   LIG     1      22.937  21.449  21.537  1.00  0.00    -0.082 Cl
HETATM    6  C   LIG     1      24.164  22.299  19.215  1.00  0.00     0.056 A 
HETATM    7 CL   LIG     1      22.855  21.547  18.313  1.00  0.00    -0.083 Cl
HETATM    8  C   LIG     1      25.184  22.949  18.513  1.00  0.00     0.039 A 
HETATM    9  C   LIG     1      26.251  23.556  19.195  1.00  0.00    -0.002 A 
ENDROOT
BRANCH   9  10
HETATM   10  C   LIG     1      27.319  24.222  18.415  1.00  0.00    -0.022 A 
HETATM   11  C   LIG     1      28.067  23.502  17.471  1.00  0.00     0.014 A 
HETATM   12  C   LIG     1      29.062  24.139  16.725  1.00  0.00     0.026 A 
HETATM   13  C   LIG     1      29.315  25.502  16.906  1.00  0.00     0.055 A 
HETATM   14  C   LIG     1      28.562  26.234  17.840  1.00  0.00     0.056 A 
HETATM   15 CL   LIG     1      30.575  26.269  15.947  1.00  0.00    -0.083 Cl
HETATM   16 CL   LIG     1      28.845  27.950  18.094  1.00  0.00    -0.083 Cl
HETATM   17  C   LIG     1      27.566  25.593  18.586  1.00  0.00     0.038 A 
ENDBRANCH   9  10
TORSDOF 1
ENDMDL
MODEL 7
REMARK VINA RESULT:      -5.0     14.572     16.570
REMARK  1 active torsions:
REMARK  status: ('A' for Active; 'I' for Inactive)
REMARK    1  A    between atoms: C_9  and  C_10 
ROOT
HETATM    1 CL   LIG     1      23.089  23.139  21.313  1.00  0.00    -0.083 Cl
HETATM    2  C   LIG     1      23.708  22.143  19.998  1.00  0.00     0.046 A 
HETATM    3  C   LIG     1      22.834  21.240  19.385  1.00  0.00     0.050 A 
HETATM    4  C   LIG     1      23.256  20.464  18.301  1.00  0.00     0.057 A 
HETATM    5 CL   LIG     1      22.120  19.343  17.562  1.00  0.00    -0.082 Cl
HETATM    6  C   LIG     1      24.567  20.597  17.818  1.00  0.00     0.056 A 
HETATM    7 CL   LIG     1      25.137  19.645  16.454  1.00  0.00    -0.083 Cl
HETATM    8  C   LIG     1      25.445  21.498  18.427  1.00  0.00     0.039 A 
HETATM    9  C   LIG     1      25.032  22.273  19.524  1.00  0.00    -0.002 A 
ENDROOT
BRANCH   9  10
HETATM   10  C   LIG     1      25.996  23.206  20.151  1.00  0.00    -0.022 A 
HETATM   11  C   LIG     1      26.538  22.928  21.416  1.00  0.00     0.014 A 
HETATM   12  C   LIG     1      27.460  23.803  21.995  1.00  0.00     0.026 A 
HETATM   13  C   LIG     1      27.859  24.959  21.316  1.00  0.00     0.055 A 
HETATM   14  C   LIG     1      27.331  25.238  20.044  1.00  0.00     0.056 A 
HETATM   15 CL   LIG     1      29.023  26.035  22.078  1.00  0.00    -0.083 Cl
HETATM   16 CL   LIG     1      27.810  26.677  19.155  1.00  0.00    -0.083 Cl
HETATM   17  C   LIG     1      26.407  24.360  19.465  1.00  0.00     0.038 A 
ENDBRANCH   9  10
TORSDOF 1
ENDMDL
MODEL 8
REMARK VINA RESULT:      -5.0     14.438     15.781
REMARK  1 active torsions:
REMARK  status: ('A' for Active; 'I' for Inactive)
REMARK    1  A    between atoms: C_9  and  C_10 
ROOT
HETATM    1 CL   LIG     1      26.905  21.626  18.091  1.00  0.00    -0.083 Cl
HETATM    2  C   LIG     1      27.405  23.310  18.225  1.00  0.00     0.046 A 
HETATM    3  C   LIG     1      28.107  23.878  17.156  1.00  0.00     0.050 A 
HETATM    4  C   LIG     1      28.479  25.225  17.185  1.00  0.00     0.057 A 
HETATM    5 CL   LIG     1      29.360  25.895  15.818  1.00  0.00    -0.082 Cl
HETATM    6  C   LIG     1      28.141  26.019  18.292  1.00  0.00     0.056 A 
HETATM    7 CL   LIG     1      28.586  27.719  18.366  1.00  0.00    -0.083 Cl
HETATM    8  C   LIG     1      27.440  25.456  19.362  1.00  0.00     0.039 A 
HETATM    9  C   LIG     1      27.072  24.100  19.347  1.00  0.00    -0.002 A 
ENDROOT
BRANCH   9  10
HETATM   10  C   LIG     1      26.342  23.539  20.506  1.00  0.00    -0.022 A 
HETATM   11  C   LIG     1      27.036  23.125  21.654  1.00  0.00     0.014 A 
HETATM   12  C   LIG     1      26.342  22.611  22.752  1.00  0.00     0.026 A 
HETATM   13  C   LIG     1      24.947  22.514  22.721  1.00  0.00     0.055 A 
HETATM   14  C   LIG     1      24.242  22.937  21.581  1.00  0.00     0.056 A 
HETATM   15 CL   LIG     1      24.107  21.863  24.123  1.00  0.00    -0.083 Cl
HETATM   16 CL   LIG     1      22.489  22.837  21.504  1.00  0.00    -0.083 Cl
HETATM   17  C   LIG     1      24.941  23.452  20.482  1.00  0.00     0.038 A 
ENDBRANCH   9  10
TORSDOF 1
ENDMDL
MODEL 9
REMARK VINA RESULT:      -4.9     14.341     16.101
REMARK  1 active torsions:
REMARK  status: ('A' for Active; 'I' for Inactive)
REMARK    1  A    between atoms: C_9  and  C_10 
ROOT
HETATM    1 CL   LIG     1      28.440  23.036  22.099  1.00  0.00    -0.083 Cl
HETATM    2  C   LIG     1      26.703  22.948  21.818  1.00  0.00     0.046 A 
HETATM    3  C   LIG     1      25.922  22.229  22.728  1.00  0.00     0.050 A 
HETATM    4  C   LIG     1      24.532  22.173  22.584  1.00  0.00     0.057 A 
HETATM    5 CL   LIG     1      23.591  21.257  23.755  1.00  0.00    -0.082 Cl
HETATM    6  C   LIG     1      23.913  22.850  21.523  1.00  0.00     0.056 A 
HETATM    7 CL   LIG     1      22.168  22.809  21.309  1.00  0.00    -0.083 Cl
HETATM    8  C   LIG     1      24.690  23.570  20.610  1.00  0.00     0.039 A 
HETATM    9  C   LIG     1      26.087  23.622  20.740  1.00  0.00    -0.002 A 
ENDROOT
BRANCH   9  10
HETATM   10  C   LIG     1      26.876  24.384  19.745  1.00  0.00    -0.022 A 
HETATM   11  C   LIG     1      27.157  25.744  19.948  1.00  0.00     0.014 A 
HETATM   12  C   LIG     1      27.916  26.454  19.015  1.00  0.00     0.026 A 
HETATM   13  C   LIG     1      28.409  25.814  17.873  1.00  0.00     0.055 A 
HETATM   14  C   LIG     1      28.143  24.449  17.668  1.00  0.00     0.056 A 
HETATM   15 CL   LIG     1      29.362  26.742  16.721  1.00  0.00    -0.083 Cl
HETATM   16 CL   LIG     1      28.750  23.606  16.250  1.00  0.00    -0.083 Cl
HETATM   17  C   LIG     1      27.383  23.740  18.605  1.00  0.00     0.038 A 
ENDBRANCH   9  10
TORSDOF 1
ENDMDL
MODEL 10
REMARK VINA RESULT:      -4.9     14.571     16.046
REMARK  1 active torsions:
REMARK  status: ('A' for Active; 'I' for Inactive)
REMARK    1  A    between atoms: C_9  and  C_10 
ROOT
HETATM    1 CL   LIG     1      24.086  22.410  17.897  1.00  0.00    -0.083 Cl
HETATM    2  C   LIG     1      24.297  22.443  19.646  1.00  0.00     0.046 A 
HETATM    3  C   LIG     1      23.424  21.682  20.431  1.00  0.00     0.050 A 
HETATM    4  C   LIG     1      23.580  21.628  21.820  1.00  0.00     0.057 A 
HETATM    5 CL   LIG     1      22.459  20.656  22.765  1.00  0.00    -0.082 Cl
HETATM    6  C   LIG     1      24.624  22.336  22.432  1.00  0.00     0.056 A 
HETATM    7 CL   LIG     1      24.859  22.290  24.175  1.00  0.00    -0.083 Cl
HETATM    8  C   LIG     1      25.499  23.098  21.652  1.00  0.00     0.039 A 
HETATM    9  C   LIG     1      25.343  23.168  20.258  1.00  0.00    -0.002 A 
ENDROOT
BRANCH   9  10
HETATM   10  C   LIG     1      26.282  23.997  19.468  1.00  0.00    -0.022 A 
HETATM   11  C   LIG     1      26.418  25.369  19.733  1.00  0.00     0.014 A 
HETATM   12  C   LIG     1      27.318  26.144  18.997  1.00  0.00     0.026 A 
HETATM   13  C   LIG     1      28.097  25.557  17.994  1.00  0.00     0.055 A 
HETATM   14  C   LIG     1      27.976  24.182  17.730  1.00  0.00     0.056 A 
HETATM   15 CL   LIG     1      29.220  26.566  17.090  1.00  0.00    -0.083 Cl
HETATM   16 CL   LIG     1      28.941  23.406  16.483  1.00  0.00    -0.083 Cl
HETATM   17  C   LIG     1      27.074  23.408  18.470  1.00  0.00     0.038 A 
ENDBRANCH   9  10
TORSDOF 1
ENDMDL
MODEL 11
REMARK VINA RESULT:      -4.9     14.733     15.995
REMARK  1 active torsions:
REMARK  status: ('A' for Active; 'I' for Inactive)
REMARK    1  A    between atoms: C_9  and  C_10 
ROOT
HETATM    1 CL   LIG     1      22.819  19.839  24.370  1.00  0.00    -0.083 Cl
HETATM    2  C   LIG     1      23.845  21.228  24.716  1.00  0.00     0.046 A 
HETATM    3  C   LIG     1      24.213  21.463  26.045  1.00  0.00     0.050 A 
HETATM    4  C   LIG     1      25.071  22.519  26.370  1.00  0.00     0.057 A 
HETATM    5 CL   LIG     1      25.506  22.774  28.055  1.00  0.00    -0.082 Cl
HETATM    6  C   LIG     1      25.574  23.347  25.355  1.00  0.00     0.056 A 
HETATM    7 CL   LIG     1      26.659  24.682  25.721  1.00  0.00    -0.083 Cl
HETATM    8  C   LIG     1      25.209  23.116  24.025  1.00  0.00     0.039 A 
HETATM    9  C   LIG     1      24.338  22.066  23.691  1.00  0.00    -0.002 A 
ENDROOT
BRANCH   9  10
HETATM   10  C   LIG     1      23.965  21.863  22.273  1.00  0.00    -0.022 A 
HETATM   11  C   LIG     1      22.799  22.445  21.752  1.00  0.00     0.014 A 
HETATM   12  C   LIG     1      22.460  22.265  20.408  1.00  0.00     0.026 A 
HETATM   13  C   LIG     1      23.285  21.510  19.568  1.00  0.00     0.055 A 
HETATM   14  C   LIG     1      24.461  20.933  20.078  1.00  0.00     0.056 A 
HETATM   15 CL   LIG     1      22.825  21.307  17.882  1.00  0.00    -0.083 Cl
HETATM   16 CL   LIG     1      25.527  19.982  19.054  1.00  0.00    -0.083 Cl
HETATM   17  C   LIG     1      24.798  21.115  21.425  1.00  0.00     0.038 A 
ENDBRANCH   9  10
TORSDOF 1
ENDMDL
MODEL 12
REMARK VINA RESULT:      -4.9      1.379      6.171
REMARK  1 active torsions:
REMARK  status: ('A' for Active; 'I' for Inactive)
REMARK    1  A    between atoms: C_9  and  C_10 
ROOT
HETATM    1 CL   LIG     1      14.390  32.709  21.357  1.00  0.00    -0.083 Cl
HETATM    2  C   LIG     1      14.847  32.926  19.670  1.00  0.00     0.046 A 
HETATM    3  C   LIG     1      14.502  31.924  18.757  1.00  0.00     0.050 A 
HETATM    4  C   LIG     1      14.790  32.070  17.396  1.00  0.00     0.057 A 
HETATM    5 CL   LIG     1      14.335  30.784  16.287  1.00  0.00    -0.082 Cl
HETATM    6  C   LIG     1      15.426  33.234  16.940  1.00  0.00     0.056 A 
HETATM    7 CL   LIG     1      15.802  33.460  15.237  1.00  0.00    -0.083 Cl
HETATM    8  C   LIG     1      15.773  34.239  17.848  1.00  0.00     0.039 A 
HETATM    9  C   LIG     1      15.498  34.095  19.218  1.00  0.00    -0.002 A 
ENDROOT
BRANCH   9  10
HETATM   10  C   LIG     1      15.895  35.176  20.150  1.00  0.00    -0.022 A 
HETATM   11  C   LIG     1      15.108  35.472  21.274  1.00  0.00     0.014 A 
HETATM   12  C   LIG     1      15.495  36.481  22.159  1.00  0.00     0.026 A 
HETATM   13  C   LIG     1      16.675  37.199  21.938  1.00  0.00     0.055 A 
HETATM   14  C   LIG     1      17.475  36.900  20.822  1.00  0.00     0.056 A 
HETATM   15 CL   LIG     1      17.130  38.461  23.077  1.00  0.00    -0.083 Cl
HETATM   16 CL   LIG     1      18.968  37.774  20.511  1.00  0.00    -0.083 Cl
HETATM   17  C   LIG     1      17.085  35.889  19.936  1.00  0.00     0.038 A 
ENDBRANCH   9  10
TORSDOF 1
ENDMDL
MODEL 13
REMARK VINA RESULT:      -4.8     14.433     16.474
REMARK  1 active torsions:
REMARK  status: ('A' for Active; 'I' for Inactive)
REMARK    1  A    between atoms: C_9  and  C_10 
ROOT
HETATM    1 CL   LIG     1      27.023  22.790  21.860  1.00  0.00    -0.083 Cl
HETATM    2  C   LIG     1      25.839  22.209  20.692  1.00  0.00     0.046 A 
HETATM    3  C   LIG     1      25.044  21.113  21.047  1.00  0.00     0.050 A 
HETATM    4  C   LIG     1      24.051  20.645  20.181  1.00  0.00     0.057 A 
HETATM    5 CL   LIG     1      23.076  19.265  20.671  1.00  0.00    -0.082 Cl
HETATM    6  C   LIG     1      23.843  21.282  18.948  1.00  0.00     0.056 A 
HETATM    7 CL   LIG     1      22.602  20.727  17.832  1.00  0.00    -0.083 Cl
HETATM    8  C   LIG     1      24.635  22.377  18.589  1.00  0.00     0.039 A 
HETATM    9  C   LIG     1      25.643  22.846  19.447  1.00  0.00    -0.002 A 
ENDROOT
BRANCH   9  10
HETATM   10  C   LIG     1      26.469  24.000  19.025  1.00  0.00    -0.022 A 
HETATM   11  C   LIG     1      26.371  25.230  19.693  1.00  0.00     0.014 A 
HETATM   12  C   LIG     1      27.165  26.311  19.301  1.00  0.00     0.026 A 
HETATM   13  C   LIG     1      28.072  26.174  18.245  1.00  0.00     0.055 A 
HETATM   14  C   LIG     1      28.187  24.941  17.579  1.00  0.00     0.056 A 
HETATM   15 CL   LIG     1      29.056  27.557  17.783  1.00  0.00    -0.083 Cl
HETATM   16 CL   LIG     1      29.318  24.725  16.252  1.00  0.00    -0.083 Cl
HETATM   17  C   LIG     1      27.389  23.860  17.974  1.00  0.00     0.038 A 
ENDBRANCH   9  10
TORSDOF 1
ENDMDL
MODEL 14
REMARK VINA RESULT:      -4.7     14.769     15.735
REMARK  1 active torsions:
REMARK  status: ('A' for Active; 'I' for Inactive)
REMARK    1  A    between atoms: C_9  and  C_10 
ROOT
HETATM    1 CL   LIG     1      25.988  25.093  18.222  1.00  0.00    -0.083 Cl
HETATM    2  C   LIG     1      26.573  24.508  19.778  1.00  0.00     0.046 A 
HETATM    3  C   LIG     1      27.460  25.316  20.497  1.00  0.00     0.050 A 
HETATM    4  C   LIG     1      27.912  24.926  21.761  1.00  0.00     0.057 A 
HETATM    5 CL   LIG     1      29.026  25.976  22.627  1.00  0.00    -0.082 Cl
HETATM    6  C   LIG     1      27.468  23.718  22.319  1.00  0.00     0.056 A 
HETATM    7 CL   LIG     1      28.009  23.194  23.908  1.00  0.00    -0.083 Cl
HETATM    8  C   LIG     1      26.582  22.907  21.604  1.00  0.00     0.039 A 
HETATM    9  C   LIG     1      26.131  23.285  20.328  1.00  0.00    -0.002 A 
ENDROOT
BRANCH   9  10
HETATM   10  C   LIG     1      25.204  22.391  19.598  1.00  0.00    -0.022 A 
HETATM   11  C   LIG     1      23.839  22.358  19.926  1.00  0.00     0.014 A 
HETATM   12  C   LIG     1      22.965  21.526  19.223  1.00  0.00     0.026 A 
HETATM   13  C   LIG     1      23.440  20.725  18.179  1.00  0.00     0.055 A 
HETATM   14  C   LIG     1      24.802  20.761  17.836  1.00  0.00     0.056 A 
HETATM   15 CL   LIG     1      22.307  19.692  17.316  1.00  0.00    -0.083 Cl
HETATM   16 CL   LIG     1      25.438  19.775  16.527  1.00  0.00    -0.083 Cl
HETATM   17  C   LIG     1      25.676  21.596  18.542  1.00  0.00     0.038 A 
ENDBRANCH   9  10
TORSDOF 1
ENDMDL
MODEL 15
REMARK VINA RESULT:      -4.7     17.339     19.213
REMARK  1 active torsions:
REMARK  status: ('A' for Active; 'I' for Inactive)
REMARK    1  A    between atoms: C_9  and  C_10 
ROOT
HETATM    1 CL   LIG     1      21.280  21.150  28.383  1.00  0.00    -0.083 Cl
HETATM    2  C   LIG     1      19.736  20.310  28.506  1.00  0.00     0.046 A 
HETATM    3  C   LIG     1      19.268  19.620  27.383  1.00  0.00     0.050 A 
HETATM    4  C   LIG     1      18.077  18.891  27.442  1.00  0.00     0.057 A 
HETATM    5 CL   LIG     1      17.529  18.039  26.004  1.00  0.00    -0.082 Cl
HETATM    6  C   LIG     1      17.346  18.843  28.639  1.00  0.00     0.056 A 
HETATM    7 CL   LIG     1      15.846  17.933  28.756  1.00  0.00    -0.083 Cl
HETATM    8  C   LIG     1      17.810  19.531  29.764  1.00  0.00     0.039 A 
HETATM    9  C   LIG     1      19.000  20.276  29.711  1.00  0.00    -0.002 A 
ENDROOT
BRANCH   9  10
HETATM   10  C   LIG     1      19.450  21.002  30.920  1.00  0.00    -0.022 A 
HETATM   11  C   LIG     1      19.150  22.363  31.088  1.00  0.00     0.014 A 
HETATM   12  C   LIG     1      19.562  23.039  32.239  1.00  0.00     0.026 A 
HETATM   13  C   LIG     1      20.270  22.363  33.238  1.00  0.00     0.055 A 
HETATM   14  C   LIG     1      20.564  20.998  33.084  1.00  0.00     0.056 A 
HETATM   15 CL   LIG     1      20.771  23.249  34.674  1.00  0.00    -0.083 Cl
HETATM   16 CL   LIG     1      21.446  20.111  34.319  1.00  0.00    -0.083 Cl
HETATM   17  C   LIG     1      20.150  20.322  31.930  1.00  0.00     0.038 A 
ENDBRANCH   9  10
TORSDOF 1
ENDMDL
MODEL 16
REMARK VINA RESULT:      -4.6     14.463     15.485
REMARK  1 active torsions:
REMARK  status: ('A' for Active; 'I' for Inactive)
REMARK    1  A    between atoms: C_9  and  C_10 
ROOT
HETATM    1 CL   LIG     1      26.955  25.884  19.015  1.00  0.00    -0.083 Cl
HETATM    2  C   LIG     1      27.598  25.239  20.524  1.00  0.00     0.046 A 
HETATM    3  C   LIG     1      28.626  25.945  21.158  1.00  0.00     0.050 A 
HETATM    4  C   LIG     1      29.136  25.509  22.386  1.00  0.00     0.057 A 
HETATM    5 CL   LIG     1      30.427  26.430  23.146  1.00  0.00    -0.082 Cl
HETATM    6  C   LIG     1      28.609  24.359  22.991  1.00  0.00     0.056 A 
HETATM    7 CL   LIG     1      29.218  23.780  24.536  1.00  0.00    -0.083 Cl
HETATM    8  C   LIG     1      27.582  23.650  22.360  1.00  0.00     0.039 A 
HETATM    9  C   LIG     1      27.072  24.074  21.122  1.00  0.00    -0.002 A 
ENDROOT
BRANCH   9  10
HETATM   10  C   LIG     1      25.993  23.288  20.480  1.00  0.00    -0.022 A 
HETATM   11  C   LIG     1      26.262  22.498  19.351  1.00  0.00     0.014 A 
HETATM   12  C   LIG     1      25.245  21.745  18.759  1.00  0.00     0.026 A 
HETATM   13  C   LIG     1      23.952  21.765  19.292  1.00  0.00     0.055 A 
HETATM   14  C   LIG     1      23.676  22.543  20.429  1.00  0.00     0.056 A 
HETATM   15 CL   LIG     1      22.698  20.802  18.519  1.00  0.00    -0.083 Cl
HETATM   16 CL   LIG     1      22.066  22.591  21.132  1.00  0.00    -0.083 Cl
HETATM   17  C   LIG     1      24.698  23.297  21.020  1.00  0.00     0.038 A 
ENDBRANCH   9  10
TORSDOF 1
ENDMDL
MODEL 17
REMARK VINA RESULT:      -4.6     16.160     18.035
REMARK  1 active torsions:
REMARK  status: ('A' for Active; 'I' for Inactive)
REMARK    1  A    between atoms: C_9  and  C_10 
ROOT
HETATM    1 CL   LIG     1      27.820  24.730  25.461  1.00  0.00    -0.083 Cl
HETATM    2  C   LIG     1      26.406  23.720  25.756  1.00  0.00     0.046 A 
HETATM    3  C   LIG     1      25.744  23.171  24.652  1.00  0.00     0.050 A 
HETATM    4  C   LIG     1      24.651  22.317  24.830  1.00  0.00     0.057 A 
HETATM    5 CL   LIG     1      23.852  21.650  23.412  1.00  0.00    -0.082 Cl
HETATM    6  C   LIG     1      24.217  22.002  26.126  1.00  0.00     0.056 A 
HETATM    7 CL   LIG     1      22.849  20.929  26.394  1.00  0.00    -0.083 Cl
HETATM    8  C   LIG     1      24.875  22.548  27.232  1.00  0.00     0.039 A 
HETATM    9  C   LIG     1      25.966  23.416  27.063  1.00  0.00    -0.002 A 
ENDROOT
BRANCH   9  10
HETATM   10  C   LIG     1      26.627  23.985  28.259  1.00  0.00    -0.022 A 
HETATM   11  C   LIG     1      27.234  23.145  29.206  1.00  0.00     0.014 A 
HETATM   12  C   LIG     1      27.872  23.687  30.324  1.00  0.00     0.026 A 
HETATM   13  C   LIG     1      27.918  25.073  30.506  1.00  0.00     0.055 A 
HETATM   14  C   LIG     1      27.324  25.922  29.557  1.00  0.00     0.056 A 
HETATM   15 CL   LIG     1      28.732  25.718  31.927  1.00  0.00    -0.083 Cl
HETATM   16 CL   LIG     1      27.366  27.669  29.746  1.00  0.00    -0.083 Cl
HETATM   17  C   LIG     1      26.686  25.376  28.437  1.00  0.00     0.038 A 
ENDBRANCH   9  10
TORSDOF 1
ENDMDL
MODEL 18
REMARK VINA RESULT:      -4.5     15.002     16.281
REMARK  1 active torsions:
REMARK  status: ('A' for Active; 'I' for Inactive)
REMARK    1  A    between atoms: C_9  and  C_10 
ROOT
HETATM    1 CL   LIG     1      26.768  23.420  22.523  1.00  0.00    -0.083 Cl
HETATM    2  C   LIG     1      25.795  22.807  23.859  1.00  0.00     0.046 A 
HETATM    3  C   LIG     1      26.197  23.113  25.163  1.00  0.00     0.050 A 
HETATM    4  C   LIG     1      25.432  22.700  26.259  1.00  0.00     0.057 A 
HETATM    5 CL   LIG     1      25.977  23.110  27.880  1.00  0.00    -0.082 Cl
HETATM    6  C   LIG     1      24.248  21.978  26.050  1.00  0.00     0.056 A 
HETATM    7 CL   LIG     1      23.255  21.444  27.399  1.00  0.00    -0.083 Cl
HETATM    8  C   LIG     1      23.842  21.669  24.748  1.00  0.00     0.039 A 
HETATM    9  C   LIG     1      24.611  22.070  23.642  1.00  0.00    -0.002 A 
ENDROOT
BRANCH   9  10
HETATM   10  C   LIG     1      24.154  21.712  22.280  1.00  0.00    -0.022 A 
HETATM   11  C   LIG     1      23.256  22.539  21.588  1.00  0.00     0.014 A 
HETATM   12  C   LIG     1      22.842  22.205  20.296  1.00  0.00     0.026 A 
HETATM   13  C   LIG     1      23.326  21.048  19.677  1.00  0.00     0.055 A 
HETATM   14  C   LIG     1      24.235  20.220  20.358  1.00  0.00     0.056 A 
HETATM   15 CL   LIG     1      22.782  20.662  18.049  1.00  0.00    -0.083 Cl
HETATM   16 CL   LIG     1      24.871  18.761  19.613  1.00  0.00    -0.083 Cl
HETATM   17  C   LIG     1      24.649  20.557  21.652  1.00  0.00     0.038 A 
ENDBRANCH   9  10
TORSDOF 1
ENDMDL
MODEL 19
REMARK VINA RESULT:      -4.4     14.892     16.312
REMARK  1 active torsions:
REMARK  status: ('A' for Active; 'I' for Inactive)
REMARK    1  A    between atoms: C_9  and  C_10 
ROOT
HETATM    1 CL   LIG     1      26.566  25.942  19.002  1.00  0.00    -0.083 Cl
HETATM    2  C   LIG     1      27.312  24.627  18.096  1.00  0.00     0.046 A 
HETATM    3  C   LIG     1      28.336  24.943  17.196  1.00  0.00     0.050 A 
HETATM    4  C   LIG     1      29.000  23.933  16.493  1.00  0.00     0.057 A 
HETATM    5 CL   LIG     1      30.282  24.378  15.373  1.00  0.00    -0.082 Cl
HETATM    6  C   LIG     1      28.643  22.591  16.694  1.00  0.00     0.056 A 
HETATM    7 CL   LIG     1      29.457  21.292  15.833  1.00  0.00    -0.083 Cl
HETATM    8  C   LIG     1      27.621  22.272  17.593  1.00  0.00     0.039 A 
HETATM    9  C   LIG     1      26.940  23.280  18.295  1.00  0.00    -0.002 A 
ENDROOT
BRANCH   9  10
HETATM   10  C   LIG     1      25.853  22.901  19.226  1.00  0.00    -0.022 A 
HETATM   11  C   LIG     1      24.635  22.404  18.737  1.00  0.00     0.014 A 
HETATM   12  C   LIG     1      23.619  22.031  19.621  1.00  0.00     0.026 A 
HETATM   13  C   LIG     1      23.810  22.143  21.002  1.00  0.00     0.055 A 
HETATM   14  C   LIG     1      25.031  22.628  21.501  1.00  0.00     0.056 A 
HETATM   15 CL   LIG     1      22.508  21.662  22.083  1.00  0.00    -0.083 Cl
HETATM   16 CL   LIG     1      25.313  22.777  23.230  1.00  0.00    -0.083 Cl
HETATM   17  C   LIG     1      26.047  23.000  20.613  1.00  0.00     0.038 A 
ENDBRANCH   9  10
TORSDOF 1
ENDMDL
MODEL 20
REMARK VINA RESULT:      -4.4     14.844     16.023
REMARK  1 active torsions:
REMARK  status: ('A' for Active; 'I' for Inactive)
REMARK    1  A    between atoms: C_9  and  C_10 
ROOT
HETATM    1 CL   LIG     1      23.782  21.685  26.594  1.00  0.00    -0.083 Cl
HETATM    2  C   LIG     1      25.091  22.803  26.223  1.00  0.00     0.046 A 
HETATM    3  C   LIG     1      25.663  23.524  27.276  1.00  0.00     0.050 A 
HETATM    4  C   LIG     1      26.742  24.384  27.047  1.00  0.00     0.057 A 
HETATM    5 CL   LIG     1      27.429  25.269  28.403  1.00  0.00    -0.082 Cl
HETATM    6  C   LIG     1      27.261  24.522  25.751  1.00  0.00     0.056 A 
HETATM    7 CL   LIG     1      28.619  25.589  25.420  1.00  0.00    -0.083 Cl
HETATM    8  C   LIG     1      26.692  23.803  24.694  1.00  0.00     0.039 A 
HETATM    9  C   LIG     1      25.601  22.946  24.914  1.00  0.00    -0.002 A 
ENDROOT
BRANCH   9  10
HETATM   10  C   LIG     1      25.018  22.214  23.766  1.00  0.00    -0.022 A 
HETATM   11  C   LIG     1      25.499  20.944  23.413  1.00  0.00     0.014 A 
HETATM   12  C   LIG     1      24.935  20.249  22.340  1.00  0.00     0.026 A 
HETATM   13  C   LIG     1      23.879  20.810  21.614  1.00  0.00     0.055 A 
HETATM   14  C   LIG     1      23.383  22.077  21.968  1.00  0.00     0.056 A 
HETATM   15 CL   LIG     1      23.194  19.904  20.270  1.00  0.00    -0.083 Cl
HETATM   16 CL   LIG     1      22.054  22.814  21.085  1.00  0.00    -0.083 Cl
HETATM   17  C   LIG     1      23.951  22.770  23.044  1.00  0.00     0.038 A 
ENDBRANCH   9  10
TORSDOF 1
ENDMDL
