REMARK  1 active torsions:
REMARK  status: ('A' for Active; 'I' for Inactive)
REMARK    1  A    between atoms: C_9  and  C_10 
ROOT
HETATM    1 CL   LIG     1      -0.478   2.285  -1.748  1.00  0.00    -0.083 Cl
HETATM    2  C   LIG     1      -1.387   1.093  -0.822  1.00  0.00     0.046 A 
HETATM    3  C   LIG     1      -2.784   1.132  -0.886  1.00  0.00     0.050 A 
HETATM    4  C   LIG     1      -3.554   0.176  -0.216  1.00  0.00     0.057 A 
HETATM    5 CL   LIG     1      -5.307   0.265  -0.327  1.00  0.00    -0.082 Cl
HETATM    6  C   LIG     1      -2.922  -0.836   0.522  1.00  0.00     0.056 A 
HETATM    7 CL   LIG     1      -3.853  -2.060   1.375  1.00  0.00    -0.083 Cl
HETATM    8  C   LIG     1      -1.526  -0.879   0.589  1.00  0.00     0.039 A 
HETATM    9  C   LIG     1      -0.745   0.084  -0.071  1.00  0.00    -0.002 A 
ENDROOT
BRANCH   9  10
HETATM   10  C   LIG     1       0.730   0.012   0.036  1.00  0.00    -0.022 A 
HETATM   11  C   LIG     1       1.462   1.097   0.543  1.00  0.00     0.014 A 
HETATM   12  C   LIG     1       2.852   1.018   0.658  1.00  0.00     0.026 A 
HETATM   13  C   LIG     1       3.526  -0.147   0.277  1.00  0.00     0.055 A 
HETATM   14  C   LIG     1       2.800  -1.243  -0.220  1.00  0.00     0.056 A 
HETATM   15 CL   LIG     1       5.277  -0.209   0.438  1.00  0.00    -0.083 Cl
HETATM   16 CL   LIG     1       3.608  -2.727  -0.704  1.00  0.00    -0.083 Cl
HETATM   17  C   LIG     1       1.407  -1.161  -0.334  1.00  0.00     0.038 A 
ENDBRANCH   9  10
TORSDOF 1
