REMARK  0 active torsions:
REMARK  status: ('A' for Active; 'I' for Inactive)
ROOT
HETATM    1 CL   LIG     1       1.207  -0.746   2.327  1.00  0.00    -0.122 Cl
HETATM    2  C   LIG     1       1.165  -0.840   0.537  1.00  0.00     0.122 C 
HETATM    3  C   LIG     1       1.399   0.565  -0.066  1.00  0.00     0.122 C 
HETATM    4 CL   LIG     1       1.992   0.450  -1.755  1.00  0.00    -0.122 Cl
HETATM    5  C   LIG     1       0.159   1.477   0.078  1.00  0.00     0.122 C 
HETATM    6 CL   LIG     1       0.434   3.087  -0.657  1.00  0.00    -0.122 Cl
HETATM    7  C   LIG     1      -1.146   0.832  -0.438  1.00  0.00     0.122 C 
HETATM    8 CL   LIG     1      -1.229   0.770  -2.232  1.00  0.00    -0.122 Cl
HETATM    9  C   LIG     1      -1.365  -0.547   0.219  1.00  0.00     0.122 C 
HETATM   10 CL   LIG     1      -2.880  -1.315  -0.350  1.00  0.00    -0.122 Cl
HETATM   11  C   LIG     1      -0.156  -1.500   0.078  1.00  0.00     0.122 C 
HETATM   12 CL   LIG     1       0.007  -2.187  -1.571  1.00  0.00    -0.122 Cl
ENDROOT
TORSDOF 0
