MODEL 1
REMARK VINA RESULT:      -3.5      0.000      0.000
REMARK  0 active torsions:
REMARK  status: ('A' for Active; 'I' for Inactive)
ROOT
HETATM    1 CL   LIG     1      26.390  23.785  20.935  1.00  0.00    -0.122 Cl
HETATM    2  C   LIG     1      24.774  23.196  20.429  1.00  0.00     0.122 C 
HETATM    3  C   LIG     1      23.950  22.793  21.675  1.00  0.00     0.122 C 
HETATM    4 CL   LIG     1      22.192  22.813  21.318  1.00  0.00    -0.122 Cl
HETATM    5  C   LIG     1      24.428  21.455  22.284  1.00  0.00     0.122 C 
HETATM    6 CL   LIG     1      23.441  20.986  23.703  1.00  0.00    -0.122 Cl
HETATM    7  C   LIG     1      24.525  20.307  21.255  1.00  0.00     0.122 C 
HETATM    8 CL   LIG     1      22.917  19.670  20.769  1.00  0.00    -0.122 Cl
HETATM    9  C   LIG     1      25.390  20.733  20.050  1.00  0.00     0.122 C 
HETATM   10 CL   LIG     1      25.534  19.416  18.844  1.00  0.00    -0.122 Cl
HETATM   11  C   LIG     1      24.932  22.057  19.395  1.00  0.00     0.122 C 
HETATM   12 CL   LIG     1      23.446  21.873  18.407  1.00  0.00    -0.122 Cl
ENDROOT
TORSDOF 0
ENDMDL
MODEL 2
REMARK VINA RESULT:      -3.4     15.252     17.096
REMARK  0 active torsions:
REMARK  status: ('A' for Active; 'I' for Inactive)
ROOT
HETATM    1 CL   LIG     1      26.421  27.701  32.907  1.00  0.00    -0.122 Cl
HETATM    2  C   LIG     1      27.723  28.602  33.748  1.00  0.00     0.122 C 
HETATM    3  C   LIG     1      28.251  27.768  34.939  1.00  0.00     0.122 C 
HETATM    4 CL   LIG     1      29.905  28.285  35.403  1.00  0.00    -0.122 Cl
HETATM    5  C   LIG     1      27.265  27.759  36.129  1.00  0.00     0.122 C 
HETATM    6 CL   LIG     1      27.907  26.820  37.512  1.00  0.00    -0.122 Cl
HETATM    7  C   LIG     1      26.807  29.169  36.563  1.00  0.00     0.122 C 
HETATM    8 CL   LIG     1      28.082  30.072  37.449  1.00  0.00    -0.122 Cl
HETATM    9  C   LIG     1      26.247  29.951  35.357  1.00  0.00     0.122 C 
HETATM   10 CL   LIG     1      25.694  31.587  35.832  1.00  0.00    -0.122 Cl
HETATM   11  C   LIG     1      27.212  30.005  34.151  1.00  0.00     0.122 C 
HETATM   12 CL   LIG     1      28.579  31.141  34.396  1.00  0.00    -0.122 Cl
ENDROOT
TORSDOF 0
ENDMDL
MODEL 3
REMARK VINA RESULT:      -3.4      1.382      4.047
REMARK  0 active torsions:
REMARK  status: ('A' for Active; 'I' for Inactive)
ROOT
HETATM    1 CL   LIG     1      23.533  18.657  20.977  1.00  0.00    -0.122 Cl
HETATM    2  C   LIG     1      23.151  20.320  20.426  1.00  0.00     0.122 C 
HETATM    3  C   LIG     1      24.101  20.720  19.272  1.00  0.00     0.122 C 
HETATM    4 CL   LIG     1      23.395  22.040  18.285  1.00  0.00    -0.122 Cl
HETATM    5  C   LIG     1      25.528  21.038  19.774  1.00  0.00     0.122 C 
HETATM    6 CL   LIG     1      26.605  21.533  18.431  1.00  0.00    -0.122 Cl
HETATM    7  C   LIG     1      25.563  22.056  20.935  1.00  0.00     0.122 C 
HETATM    8 CL   LIG     1      25.229  23.737  20.396  1.00  0.00    -0.122 Cl
HETATM    9  C   LIG     1      24.637  21.600  22.082  1.00  0.00     0.122 C 
HETATM   10 CL   LIG     1      24.667  22.754  23.452  1.00  0.00    -0.122 Cl
HETATM   11  C   LIG     1      23.192  21.292  21.628  1.00  0.00     0.122 C 
HETATM   12 CL   LIG     1      22.233  22.771  21.292  1.00  0.00    -0.122 Cl
ENDROOT
TORSDOF 0
ENDMDL
MODEL 4
REMARK VINA RESULT:      -3.4     13.496     15.089
REMARK  0 active torsions:
REMARK  status: ('A' for Active; 'I' for Inactive)
ROOT
HETATM    1 CL   LIG     1      22.816  19.509  33.559  1.00  0.00    -0.122 Cl
HETATM    2  C   LIG     1      21.980  20.177  34.998  1.00  0.00     0.122 C 
HETATM    3  C   LIG     1      20.696  20.919  34.559  1.00  0.00     0.122 C 
HETATM    4 CL   LIG     1      19.528  21.041  35.915  1.00  0.00    -0.122 Cl
HETATM    5  C   LIG     1      21.005  22.284  33.903  1.00  0.00     0.122 C 
HETATM    6 CL   LIG     1      19.506  23.146  33.434  1.00  0.00    -0.122 Cl
HETATM    7  C   LIG     1      21.935  23.180  34.750  1.00  0.00     0.122 C 
HETATM    8 CL   LIG     1      21.103  23.897  36.173  1.00  0.00    -0.122 Cl
HETATM    9  C   LIG     1      23.222  22.419  35.130  1.00  0.00     0.122 C 
HETATM   10 CL   LIG     1      24.328  23.439  36.103  1.00  0.00    -0.122 Cl
HETATM   11  C   LIG     1      22.958  21.056  35.811  1.00  0.00     0.122 C 
HETATM   12 CL   LIG     1      22.416  21.216  37.514  1.00  0.00    -0.122 Cl
ENDROOT
TORSDOF 0
ENDMDL
MODEL 5
REMARK VINA RESULT:      -3.3      1.502      2.556
REMARK  0 active torsions:
REMARK  status: ('A' for Active; 'I' for Inactive)
ROOT
HETATM    1 CL   LIG     1      26.920  19.830  20.969  1.00  0.00    -0.122 Cl
HETATM    2  C   LIG     1      26.138  21.384  21.401  1.00  0.00     0.122 C 
HETATM    3  C   LIG     1      25.116  21.157  22.540  1.00  0.00     0.122 C 
HETATM    4 CL   LIG     1      24.790  22.682  23.426  1.00  0.00    -0.122 Cl
HETATM    5  C   LIG     1      23.830  20.461  22.040  1.00  0.00     0.122 C 
HETATM    6 CL   LIG     1      22.643  20.238  23.363  1.00  0.00    -0.122 Cl
HETATM    7  C   LIG     1      23.191  21.149  20.814  1.00  0.00     0.122 C 
HETATM    8 CL   LIG     1      22.361  22.687  21.233  1.00  0.00    -0.122 Cl
HETATM    9  C   LIG     1      24.230  21.318  19.685  1.00  0.00     0.122 C 
HETATM   10 CL   LIG     1      23.515  22.102  18.242  1.00  0.00    -0.122 Cl
HETATM   11  C   LIG     1      25.525  22.031  20.137  1.00  0.00     0.122 C 
HETATM   12 CL   LIG     1      25.312  23.799  20.358  1.00  0.00    -0.122 Cl
ENDROOT
TORSDOF 0
ENDMDL
MODEL 6
REMARK VINA RESULT:      -3.3      1.699      3.799
REMARK  0 active torsions:
REMARK  status: ('A' for Active; 'I' for Inactive)
ROOT
HETATM    1 CL   LIG     1      22.790  19.166  22.725  1.00  0.00    -0.122 Cl
HETATM    2  C   LIG     1      23.062  20.938  22.711  1.00  0.00     0.122 C 
HETATM    3  C   LIG     1      22.585  21.530  21.364  1.00  0.00     0.122 C 
HETATM    4 CL   LIG     1      22.236  23.283  21.517  1.00  0.00    -0.122 Cl
HETATM    5  C   LIG     1      23.557  21.206  20.206  1.00  0.00     0.122 C 
HETATM    6 CL   LIG     1      23.008  21.928  18.661  1.00  0.00    -0.122 Cl
HETATM    7  C   LIG     1      25.026  21.569  20.513  1.00  0.00     0.122 C 
HETATM    8 CL   LIG     1      25.331  23.339  20.458  1.00  0.00    -0.122 Cl
HETATM    9  C   LIG     1      25.477  20.926  21.841  1.00  0.00     0.122 C 
HETATM   10 CL   LIG     1      27.184  21.318  22.218  1.00  0.00    -0.122 Cl
HETATM   11  C   LIG     1      24.544  21.243  23.032  1.00  0.00     0.122 C 
HETATM   12 CL   LIG     1      24.737  22.917  23.648  1.00  0.00    -0.122 Cl
ENDROOT
TORSDOF 0
ENDMDL
MODEL 7
REMARK VINA RESULT:      -3.2     15.938     17.802
REMARK  0 active torsions:
REMARK  status: ('A' for Active; 'I' for Inactive)
ROOT
HETATM    1 CL   LIG     1      27.751  27.309  37.877  1.00  0.00    -0.122 Cl
HETATM    2  C   LIG     1      26.965  28.366  36.660  1.00  0.00     0.122 C 
HETATM    3  C   LIG     1      27.547  28.070  35.257  1.00  0.00     0.122 C 
HETATM    4 CL   LIG     1      26.414  28.591  33.968  1.00  0.00    -0.122 Cl
HETATM    5  C   LIG     1      28.970  28.648  35.081  1.00  0.00     0.122 C 
HETATM    6 CL   LIG     1      29.614  28.328  33.440  1.00  0.00    -0.122 Cl
HETATM    7  C   LIG     1      29.081  30.143  35.453  1.00  0.00     0.122 C 
HETATM    8 CL   LIG     1      28.340  31.223  34.223  1.00  0.00    -0.122 Cl
HETATM    9  C   LIG     1      28.531  30.389  36.874  1.00  0.00     0.122 C 
HETATM   10 CL   LIG     1      28.659  32.114  37.340  1.00  0.00    -0.122 Cl
HETATM   11  C   LIG     1      27.099  29.846  37.087  1.00  0.00     0.122 C 
HETATM   12 CL   LIG     1      25.842  30.858  36.304  1.00  0.00    -0.122 Cl
ENDROOT
TORSDOF 0
ENDMDL
MODEL 8
REMARK VINA RESULT:      -3.1      1.626      2.645
REMARK  0 active torsions:
REMARK  status: ('A' for Active; 'I' for Inactive)
ROOT
HETATM    1 CL   LIG     1      25.667  19.939  22.682  1.00  0.00    -0.122 Cl
HETATM    2  C   LIG     1      25.758  21.064  21.290  1.00  0.00     0.122 C 
HETATM    3  C   LIG     1      24.676  22.160  21.432  1.00  0.00     0.122 C 
HETATM    4 CL   LIG     1      25.105  23.616  20.476  1.00  0.00    -0.122 Cl
HETATM    5  C   LIG     1      23.259  21.628  21.117  1.00  0.00     0.122 C 
HETATM    6 CL   LIG     1      22.024  22.917  21.250  1.00  0.00    -0.122 Cl
HETATM    7  C   LIG     1      23.164  20.886  19.765  1.00  0.00     0.122 C 
HETATM    8 CL   LIG     1      23.207  22.001  18.356  1.00  0.00    -0.122 Cl
HETATM    9  C   LIG     1      24.230  19.774  19.681  1.00  0.00     0.122 C 
HETATM   10 CL   LIG     1      24.135  18.887  18.128  1.00  0.00    -0.122 Cl
HETATM   11  C   LIG     1      25.667  20.270  19.967  1.00  0.00     0.122 C 
HETATM   12 CL   LIG     1      26.371  21.202  18.606  1.00  0.00    -0.122 Cl
ENDROOT
TORSDOF 0
ENDMDL
MODEL 9
REMARK VINA RESULT:      -3.1     15.895     17.491
REMARK  0 active torsions:
REMARK  status: ('A' for Active; 'I' for Inactive)
ROOT
HETATM    1 CL   LIG     1      25.808  30.396  37.478  1.00  0.00    -0.122 Cl
HETATM    2  C   LIG     1      26.433  30.167  35.813  1.00  0.00     0.122 C 
HETATM    3  C   LIG     1      26.695  28.664  35.555  1.00  0.00     0.122 C 
HETATM    4 CL   LIG     1      26.697  28.304  33.798  1.00  0.00    -0.122 Cl
HETATM    5  C   LIG     1      27.966  28.160  36.276  1.00  0.00     0.122 C 
HETATM    6 CL   LIG     1      28.275  26.429  35.938  1.00  0.00    -0.122 Cl
HETATM    7  C   LIG     1      29.216  29.025  36.002  1.00  0.00     0.122 C 
HETATM    8 CL   LIG     1      29.886  28.776  34.353  1.00  0.00    -0.122 Cl
HETATM    9  C   LIG     1      28.927  30.509  36.312  1.00  0.00     0.122 C 
HETATM   10 CL   LIG     1      30.364  31.536  36.017  1.00  0.00    -0.122 Cl
HETATM   11  C   LIG     1      27.675  31.060  35.592  1.00  0.00     0.122 C 
HETATM   12 CL   LIG     1      27.948  31.363  33.845  1.00  0.00    -0.122 Cl
ENDROOT
TORSDOF 0
ENDMDL
MODEL 10
REMARK VINA RESULT:      -3.0      1.352      2.869
REMARK  0 active torsions:
REMARK  status: ('A' for Active; 'I' for Inactive)
ROOT
HETATM    1 CL   LIG     1      26.542  23.705  20.478  1.00  0.00    -0.122 Cl
HETATM    2  C   LIG     1      25.668  22.150  20.298  1.00  0.00     0.122 C 
HETATM    3  C   LIG     1      24.151  22.415  20.159  1.00  0.00     0.122 C 
HETATM    4 CL   LIG     1      23.326  21.036  19.362  1.00  0.00    -0.122 Cl
HETATM    5  C   LIG     1      23.502  22.811  21.505  1.00  0.00     0.122 C 
HETATM    6 CL   LIG     1      21.739  23.080  21.335  1.00  0.00    -0.122 Cl
HETATM    7  C   LIG     1      23.818  21.832  22.656  1.00  0.00     0.122 C 
HETATM    8 CL   LIG     1      22.917  20.283  22.520  1.00  0.00    -0.122 Cl
HETATM    9  C   LIG     1      25.342  21.627  22.789  1.00  0.00     0.122 C 
HETATM   10 CL   LIG     1      25.742  20.505  24.127  1.00  0.00    -0.122 Cl
HETATM   11  C   LIG     1      26.029  21.207  21.470  1.00  0.00     0.122 C 
HETATM   12 CL   LIG     1      25.724  19.494  21.034  1.00  0.00    -0.122 Cl
ENDROOT
TORSDOF 0
ENDMDL
MODEL 11
REMARK VINA RESULT:      -3.0     14.470     16.303
REMARK  0 active torsions:
REMARK  status: ('A' for Active; 'I' for Inactive)
ROOT
HETATM    1 CL   LIG     1      26.417  27.063  32.485  1.00  0.00    -0.122 Cl
HETATM    2  C   LIG     1      26.548  27.713  34.151  1.00  0.00     0.122 C 
HETATM    3  C   LIG     1      26.715  29.250  34.101  1.00  0.00     0.122 C 
HETATM    4 CL   LIG     1      26.220  30.002  35.652  1.00  0.00    -0.122 Cl
HETATM    5  C   LIG     1      28.134  29.669  33.651  1.00  0.00     0.122 C 
HETATM    6 CL   LIG     1      28.321  31.450  33.634  1.00  0.00    -0.122 Cl
HETATM    7  C   LIG     1      29.263  28.987  34.453  1.00  0.00     0.122 C 
HETATM    8 CL   LIG     1      29.441  29.656  36.112  1.00  0.00    -0.122 Cl
HETATM    9  C   LIG     1      29.084  27.454  34.443  1.00  0.00     0.122 C 
HETATM   10 CL   LIG     1      30.389  26.632  35.355  1.00  0.00    -0.122 Cl
HETATM   11  C   LIG     1      27.685  26.990  34.908  1.00  0.00     0.122 C 
HETATM   12 CL   LIG     1      27.458  27.116  36.683  1.00  0.00    -0.122 Cl
ENDROOT
TORSDOF 0
ENDMDL
MODEL 12
REMARK VINA RESULT:      -3.0      1.522      3.964
REMARK  0 active torsions:
REMARK  status: ('A' for Active; 'I' for Inactive)
ROOT
HETATM    1 CL   LIG     1      26.891  19.429  21.068  1.00  0.00    -0.122 Cl
HETATM    2  C   LIG     1      25.104  19.544  21.160  1.00  0.00     0.122 C 
HETATM    3  C   LIG     1      24.549  20.118  19.836  1.00  0.00     0.122 C 
HETATM    4 CL   LIG     1      22.825  19.674  19.614  1.00  0.00    -0.122 Cl
HETATM    5  C   LIG     1      24.803  21.637  19.705  1.00  0.00     0.122 C 
HETATM    6 CL   LIG     1      24.122  22.292  18.183  1.00  0.00    -0.122 Cl
HETATM    7  C   LIG     1      24.336  22.450  20.933  1.00  0.00     0.122 C 
HETATM    8 CL   LIG     1      22.549  22.616  21.018  1.00  0.00    -0.122 Cl
HETATM    9  C   LIG     1      24.946  21.872  22.227  1.00  0.00     0.122 C 
HETATM   10 CL   LIG     1      24.434  22.804  23.669  1.00  0.00    -0.122 Cl
HETATM   11  C   LIG     1      24.695  20.358  22.409  1.00  0.00     0.122 C 
HETATM   12 CL   LIG     1      23.012  19.980  22.901  1.00  0.00    -0.122 Cl
ENDROOT
TORSDOF 0
ENDMDL
MODEL 13
REMARK VINA RESULT:      -2.9      1.358      3.900
REMARK  0 active torsions:
REMARK  status: ('A' for Active; 'I' for Inactive)
ROOT
HETATM    1 CL   LIG     1      26.820  21.545  22.296  1.00  0.00    -0.122 Cl
HETATM    2  C   LIG     1      25.559  20.451  21.641  1.00  0.00     0.122 C 
HETATM    3  C   LIG     1      25.836  20.170  20.145  1.00  0.00     0.122 C 
HETATM    4 CL   LIG     1      25.041  18.651  19.617  1.00  0.00    -0.122 Cl
HETATM    5  C   LIG     1      25.483  21.379  19.249  1.00  0.00     0.122 C 
HETATM    6 CL   LIG     1      25.775  21.026  17.517  1.00  0.00    -0.122 Cl
HETATM    7  C   LIG     1      24.059  21.929  19.484  1.00  0.00     0.122 C 
HETATM    8 CL   LIG     1      22.782  20.870  18.794  1.00  0.00    -0.122 Cl
HETATM    9  C   LIG     1      23.838  22.237  20.980  1.00  0.00     0.122 C 
HETATM   10 CL   LIG     1      22.198  22.890  21.283  1.00  0.00    -0.122 Cl
HETATM   11  C   LIG     1      24.157  21.045  21.912  1.00  0.00     0.122 C 
HETATM   12 CL   LIG     1      22.898  19.768  21.873  1.00  0.00    -0.122 Cl
ENDROOT
TORSDOF 0
ENDMDL
MODEL 14
REMARK VINA RESULT:      -2.9      2.001      3.681
REMARK  0 active torsions:
REMARK  status: ('A' for Active; 'I' for Inactive)
ROOT
HETATM    1 CL   LIG     1      21.960  23.061  21.315  1.00  0.00    -0.122 Cl
HETATM    2  C   LIG     1      23.411  22.019  21.159  1.00  0.00     0.122 C 
HETATM    3  C   LIG     1      23.070  20.577  21.601  1.00  0.00     0.122 C 
HETATM    4 CL   LIG     1      24.220  19.397  20.894  1.00  0.00    -0.122 Cl
HETATM    5  C   LIG     1      22.943  20.451  23.137  1.00  0.00     0.122 C 
HETATM    6 CL   LIG     1      22.583  18.768  23.634  1.00  0.00    -0.122 Cl
HETATM    7  C   LIG     1      24.153  21.024  23.906  1.00  0.00     0.122 C 
HETATM    8 CL   LIG     1      25.606  19.972  23.801  1.00  0.00    -0.122 Cl
HETATM    9  C   LIG     1      24.434  22.477  23.468  1.00  0.00     0.122 C 
HETATM   10 CL   LIG     1      25.826  23.175  24.354  1.00  0.00    -0.122 Cl
HETATM   11  C   LIG     1      24.591  22.645  21.939  1.00  0.00     0.122 C 
HETATM   12 CL   LIG     1      26.163  22.037  21.325  1.00  0.00    -0.122 Cl
ENDROOT
TORSDOF 0
ENDMDL
MODEL 15
REMARK VINA RESULT:      -2.9      1.700      4.143
REMARK  0 active torsions:
REMARK  status: ('A' for Active; 'I' for Inactive)
ROOT
HETATM    1 CL   LIG     1      25.260  18.693  21.471  1.00  0.00    -0.122 Cl
HETATM    2  C   LIG     1      24.060  19.737  20.643  1.00  0.00     0.122 C 
HETATM    3  C   LIG     1      24.130  19.505  19.116  1.00  0.00     0.122 C 
HETATM    4 CL   LIG     1      22.600  19.998  18.319  1.00  0.00    -0.122 Cl
HETATM    5  C   LIG     1      25.379  20.159  18.482  1.00  0.00     0.122 C 
HETATM    6 CL   LIG     1      25.426  19.912  16.708  1.00  0.00    -0.122 Cl
HETATM    7  C   LIG     1      25.553  21.648  18.853  1.00  0.00     0.122 C 
HETATM    8 CL   LIG     1      24.389  22.718  17.998  1.00  0.00    -0.122 Cl
HETATM    9  C   LIG     1      25.521  21.832  20.385  1.00  0.00     0.122 C 
HETATM   10 CL   LIG     1      25.734  23.549  20.847  1.00  0.00    -0.122 Cl
HETATM   11  C   LIG     1      24.275  21.212  21.057  1.00  0.00     0.122 C 
HETATM   12 CL   LIG     1      22.785  22.176  20.798  1.00  0.00    -0.122 Cl
ENDROOT
TORSDOF 0
ENDMDL
MODEL 16
REMARK VINA RESULT:      -2.9      3.327      5.439
REMARK  0 active torsions:
REMARK  status: ('A' for Active; 'I' for Inactive)
ROOT
HETATM    1 CL   LIG     1      29.513  21.723  19.039  1.00  0.00    -0.122 Cl
HETATM    2  C   LIG     1      28.536  22.886  19.992  1.00  0.00     0.122 C 
HETATM    3  C   LIG     1      27.031  22.591  19.793  1.00  0.00     0.122 C 
HETATM    4 CL   LIG     1      26.060  23.252  21.149  1.00  0.00    -0.122 Cl
HETATM    5  C   LIG     1      26.524  23.050  18.407  1.00  0.00     0.122 C 
HETATM    6 CL   LIG     1      24.772  22.734  18.206  1.00  0.00    -0.122 Cl
HETATM    7  C   LIG     1      26.879  24.516  18.073  1.00  0.00     0.122 C 
HETATM    8 CL   LIG     1      25.878  25.698  18.984  1.00  0.00    -0.122 Cl
HETATM    9  C   LIG     1      28.393  24.758  18.242  1.00  0.00     0.122 C 
HETATM   10 CL   LIG     1      28.839  26.447  17.849  1.00  0.00    -0.122 Cl
HETATM   11  C   LIG     1      28.939  24.333  19.625  1.00  0.00     0.122 C 
HETATM   12 CL   LIG     1      28.497  25.476  20.935  1.00  0.00    -0.122 Cl
ENDROOT
TORSDOF 0
ENDMDL
MODEL 17
REMARK VINA RESULT:      -2.9      1.577      3.807
REMARK  0 active torsions:
REMARK  status: ('A' for Active; 'I' for Inactive)
ROOT
HETATM    1 CL   LIG     1      23.909  19.081  19.670  1.00  0.00    -0.122 Cl
HETATM    2  C   LIG     1      23.246  20.153  20.946  1.00  0.00     0.122 C 
HETATM    3  C   LIG     1      23.510  21.631  20.576  1.00  0.00     0.122 C 
HETATM    4 CL   LIG     1      22.366  22.721  21.426  1.00  0.00    -0.122 Cl
HETATM    5  C   LIG     1      24.989  22.030  20.781  1.00  0.00     0.122 C 
HETATM    6 CL   LIG     1      25.270  23.754  20.383  1.00  0.00    -0.122 Cl
HETATM    7  C   LIG     1      25.538  21.673  22.180  1.00  0.00     0.122 C 
HETATM    8 CL   LIG     1      24.922  22.765  23.468  1.00  0.00    -0.122 Cl
HETATM    9  C   LIG     1      25.294  20.182  22.493  1.00  0.00     0.122 C 
HETATM   10 CL   LIG     1      25.933  19.734  24.106  1.00  0.00    -0.122 Cl
HETATM   11  C   LIG     1      23.821  19.745  22.323  1.00  0.00     0.122 C 
HETATM   12 CL   LIG     1      22.763  20.313  23.655  1.00  0.00    -0.122 Cl
ENDROOT
TORSDOF 0
ENDMDL
MODEL 18
REMARK VINA RESULT:      -2.9      3.631      5.740
REMARK  0 active torsions:
REMARK  status: ('A' for Active; 'I' for Inactive)
ROOT
HETATM    1 CL   LIG     1      29.974  23.840  21.557  1.00  0.00    -0.122 Cl
HETATM    2  C   LIG     1      29.183  23.513  19.981  1.00  0.00     0.122 C 
HETATM    3  C   LIG     1      29.187  24.797  19.118  1.00  0.00     0.122 C 
HETATM    4 CL   LIG     1      29.014  24.402  17.377  1.00  0.00    -0.122 Cl
HETATM    5  C   LIG     1      28.151  25.834  19.608  1.00  0.00     0.122 C 
HETATM    6 CL   LIG     1      28.144  27.299  18.576  1.00  0.00    -0.122 Cl
HETATM    7  C   LIG     1      26.730  25.255  19.782  1.00  0.00     0.122 C 
HETATM    8 CL   LIG     1      25.901  24.963  18.215  1.00  0.00    -0.122 Cl
HETATM    9  C   LIG     1      26.763  24.003  20.684  1.00  0.00     0.122 C 
HETATM   10 CL   LIG     1      25.126  23.315  20.916  1.00  0.00    -0.122 Cl
HETATM   11  C   LIG     1      27.771  22.928  20.216  1.00  0.00     0.122 C 
HETATM   12 CL   LIG     1      27.206  22.015  18.779  1.00  0.00    -0.122 Cl
ENDROOT
TORSDOF 0
ENDMDL
MODEL 19
REMARK VINA RESULT:      -2.7      1.382      2.703
REMARK  0 active torsions:
REMARK  status: ('A' for Active; 'I' for Inactive)
ROOT
HETATM    1 CL   LIG     1      24.479  21.828  23.802  1.00  0.00    -0.122 Cl
HETATM    2  C   LIG     1      24.196  22.487  22.159  1.00  0.00     0.122 C 
HETATM    3  C   LIG     1      23.241  21.554  21.378  1.00  0.00     0.122 C 
HETATM    4 CL   LIG     1      22.435  22.433  20.038  1.00  0.00    -0.122 Cl
HETATM    5  C   LIG     1      23.942  20.256  20.914  1.00  0.00     0.122 C 
HETATM    6 CL   LIG     1      22.833  19.204  19.981  1.00  0.00    -0.122 Cl
HETATM    7  C   LIG     1      25.263  20.505  20.154  1.00  0.00     0.122 C 
HETATM    8 CL   LIG     1      25.001  21.123  18.487  1.00  0.00    -0.122 Cl
HETATM    9  C   LIG     1      26.204  21.403  20.984  1.00  0.00     0.122 C 
HETATM   10 CL   LIG     1      27.753  21.699  20.134  1.00  0.00    -0.122 Cl
HETATM   11  C   LIG     1      25.549  22.724  21.450  1.00  0.00     0.122 C 
HETATM   12 CL   LIG     1      25.382  23.927  20.130  1.00  0.00    -0.122 Cl
ENDROOT
TORSDOF 0
ENDMDL
MODEL 20
REMARK VINA RESULT:      -2.3     16.406     18.248
REMARK  0 active torsions:
REMARK  status: ('A' for Active; 'I' for Inactive)
ROOT
HETATM    1 CL   LIG     1      28.307  31.447  33.672  1.00  0.00    -0.122 Cl
HETATM    2  C   LIG     1      28.917  30.683  35.175  1.00  0.00     0.122 C 
HETATM    3  C   LIG     1      28.672  29.156  35.122  1.00  0.00     0.122 C 
HETATM    4 CL   LIG     1      29.782  28.287  36.231  1.00  0.00    -0.122 Cl
HETATM    5  C   LIG     1      27.186  28.794  35.347  1.00  0.00     0.122 C 
HETATM    6 CL   LIG     1      26.926  27.023  35.318  1.00  0.00    -0.122 Cl
HETATM    7  C   LIG     1      26.579  29.438  36.613  1.00  0.00     0.122 C 
HETATM    8 CL   LIG     1      27.142  28.655  38.130  1.00  0.00    -0.122 Cl
HETATM    9  C   LIG     1      26.806  30.964  36.607  1.00  0.00     0.122 C 
HETATM   10 CL   LIG     1      26.099  31.741  38.058  1.00  0.00    -0.122 Cl
HETATM   11  C   LIG     1      28.284  31.370  36.407  1.00  0.00     0.122 C 
HETATM   12 CL   LIG     1      29.287  31.114  37.872  1.00  0.00    -0.122 Cl
ENDROOT
TORSDOF 0
ENDMDL
