MODEL 1
REMARK VINA RESULT:      -6.4      0.000      0.000
REMARK  0 active torsions:
REMARK  status: ('A' for Active; 'I' for Inactive)
ROOT
HETATM    1  C   LIG     1      18.531  33.117  12.030  1.00  0.00     0.049 C 
HETATM    2  C   LIG     1      17.770  33.388  13.302  1.00  0.00    -0.048 A 
HETATM    3  C   LIG     1      16.715  32.547  13.738  1.00  0.00     0.001 A 
HETATM    4  C   LIG     1      16.313  31.408  13.015  1.00  0.00     0.015 A 
HETATM    5  C   LIG     1      15.270  30.603  13.475  1.00  0.00     0.015 A 
HETATM    6  C   LIG     1      14.596  30.910  14.672  1.00  0.00     0.001 A 
HETATM    7  C   LIG     1      14.995  32.053  15.407  1.00  0.00     0.096 A 
HETATM    8  N   LIG     1      14.357  32.369  16.568  1.00  0.00    -0.258 NA
HETATM    9  C   LIG     1      13.339  31.619  17.057  1.00  0.00     0.118 A 
HETATM   10  C   LIG     1      12.910  30.485  16.371  1.00  0.00     0.027 A 
HETATM   11  C   LIG     1      13.534  30.115  15.169  1.00  0.00    -0.048 A 
HETATM   12  C   LIG     1      13.052  28.883  14.446  1.00  0.00     0.049 C 
HETATM   13  C   LIG     1      16.044  32.864  14.944  1.00  0.00     0.096 A 
HETATM   14  N   LIG     1      16.418  33.962  15.659  1.00  0.00    -0.258 NA
HETATM   15  C   LIG     1      17.424  34.776  15.256  1.00  0.00     0.118 A 
HETATM   16  C   LIG     1      18.114  34.506  14.076  1.00  0.00     0.027 A 
ENDROOT
TORSDOF 0
ENDMDL
MODEL 2
REMARK VINA RESULT:      -6.2      8.167      9.942
REMARK  0 active torsions:
REMARK  status: ('A' for Active; 'I' for Inactive)
ROOT
HETATM    1  C   LIG     1      18.217  36.510  18.517  1.00  0.00     0.049 C 
HETATM    2  C   LIG     1      18.301  37.475  19.671  1.00  0.00    -0.048 A 
HETATM    3  C   LIG     1      18.014  37.079  21.002  1.00  0.00     0.001 A 
HETATM    4  C   LIG     1      17.633  35.764  21.330  1.00  0.00     0.015 A 
HETATM    5  C   LIG     1      17.357  35.409  22.651  1.00  0.00     0.015 A 
HETATM    6  C   LIG     1      17.454  36.358  23.687  1.00  0.00     0.001 A 
HETATM    7  C   LIG     1      17.838  37.683  23.367  1.00  0.00     0.096 A 
HETATM    8  N   LIG     1      17.938  38.617  24.353  1.00  0.00    -0.258 NA
HETATM    9  C   LIG     1      17.681  38.323  25.651  1.00  0.00     0.118 A 
HETATM   10  C   LIG     1      17.301  37.033  26.017  1.00  0.00     0.027 A 
HETATM   11  C   LIG     1      17.183  36.034  25.039  1.00  0.00    -0.048 A 
HETATM   12  C   LIG     1      16.770  34.646  25.460  1.00  0.00     0.049 C 
HETATM   13  C   LIG     1      18.114  38.041  22.037  1.00  0.00     0.096 A 
HETATM   14  N   LIG     1      18.482  39.318  21.741  1.00  0.00    -0.258 NA
HETATM   15  C   LIG     1      18.759  39.713  20.474  1.00  0.00     0.118 A 
HETATM   16  C   LIG     1      18.675  38.804  19.422  1.00  0.00     0.027 A 
ENDROOT
TORSDOF 0
ENDMDL
MODEL 3
REMARK VINA RESULT:      -6.2      8.175     10.631
REMARK  0 active torsions:
REMARK  status: ('A' for Active; 'I' for Inactive)
ROOT
HETATM    1  C   LIG     1      16.753  34.658  25.461  1.00  0.00     0.049 C 
HETATM    2  C   LIG     1      17.164  36.046  25.042  1.00  0.00    -0.048 A 
HETATM    3  C   LIG     1      17.445  36.369  23.691  1.00  0.00     0.001 A 
HETATM    4  C   LIG     1      17.359  35.419  22.656  1.00  0.00     0.015 A 
HETATM    5  C   LIG     1      17.644  35.773  21.337  1.00  0.00     0.015 A 
HETATM    6  C   LIG     1      18.023  37.088  21.009  1.00  0.00     0.001 A 
HETATM    7  C   LIG     1      18.111  38.052  22.043  1.00  0.00     0.096 A 
HETATM    8  N   LIG     1      18.475  39.331  21.749  1.00  0.00    -0.258 NA
HETATM    9  C   LIG     1      18.761  39.725  20.484  1.00  0.00     0.118 A 
HETATM   10  C   LIG     1      18.689  38.814  19.432  1.00  0.00     0.027 A 
HETATM   11  C   LIG     1      18.318  37.484  19.681  1.00  0.00    -0.048 A 
HETATM   12  C   LIG     1      18.246  36.518  18.526  1.00  0.00     0.049 C 
HETATM   13  C   LIG     1      17.825  37.696  23.372  1.00  0.00     0.096 A 
HETATM   14  N   LIG     1      17.914  38.631  24.358  1.00  0.00    -0.258 NA
HETATM   15  C   LIG     1      17.649  38.338  25.654  1.00  0.00     0.118 A 
HETATM   16  C   LIG     1      17.271  37.048  26.019  1.00  0.00     0.027 A 
ENDROOT
TORSDOF 0
ENDMDL
MODEL 4
REMARK VINA RESULT:      -5.5      7.667      9.824
REMARK  0 active torsions:
REMARK  status: ('A' for Active; 'I' for Inactive)
ROOT
HETATM    1  C   LIG     1      19.149  40.023  19.095  1.00  0.00     0.049 C 
HETATM    2  C   LIG     1      18.693  38.641  19.483  1.00  0.00    -0.048 A 
HETATM    3  C   LIG     1      18.368  38.306  20.822  1.00  0.00     0.001 A 
HETATM    4  C   LIG     1      18.451  39.241  21.872  1.00  0.00     0.015 A 
HETATM    5  C   LIG     1      18.124  38.876  23.179  1.00  0.00     0.015 A 
HETATM    6  C   LIG     1      17.704  37.567  23.478  1.00  0.00     0.001 A 
HETATM    7  C   LIG     1      17.616  36.620  22.428  1.00  0.00     0.096 A 
HETATM    8  N   LIG     1      17.211  35.347  22.694  1.00  0.00    -0.258 NA
HETATM    9  C   LIG     1      16.882  34.944  23.946  1.00  0.00     0.118 A 
HETATM   10  C   LIG     1      16.952  35.838  25.013  1.00  0.00     0.027 A 
HETATM   11  C   LIG     1      17.363  37.162  24.792  1.00  0.00    -0.048 A 
HETATM   12  C   LIG     1      17.430  38.110  25.963  1.00  0.00     0.049 C 
HETATM   13  C   LIG     1      17.946  36.986  21.113  1.00  0.00     0.096 A 
HETATM   14  N   LIG     1      17.858  36.067  20.111  1.00  0.00    -0.258 NA
HETATM   15  C   LIG     1      18.165  36.371  18.826  1.00  0.00     0.118 A 
HETATM   16  C   LIG     1      18.585  37.655  18.490  1.00  0.00     0.027 A 
ENDROOT
TORSDOF 0
ENDMDL
MODEL 5
REMARK VINA RESULT:      -5.5      7.633     10.513
REMARK  0 active torsions:
REMARK  status: ('A' for Active; 'I' for Inactive)
ROOT
HETATM    1  C   LIG     1      17.405  38.189  25.895  1.00  0.00     0.049 C 
HETATM    2  C   LIG     1      17.343  37.225  24.738  1.00  0.00    -0.048 A 
HETATM    3  C   LIG     1      17.691  37.613  23.420  1.00  0.00     0.001 A 
HETATM    4  C   LIG     1      18.117  38.918  23.107  1.00  0.00     0.015 A 
HETATM    5  C   LIG     1      18.452  39.264  21.797  1.00  0.00     0.015 A 
HETATM    6  C   LIG     1      18.373  38.318  20.759  1.00  0.00     0.001 A 
HETATM    7  C   LIG     1      17.947  37.002  21.064  1.00  0.00     0.096 A 
HETATM    8  N   LIG     1      17.864  36.069  20.075  1.00  0.00    -0.258 NA
HETATM    9  C   LIG     1      18.178  36.355  18.788  1.00  0.00     0.118 A 
HETATM   10  C   LIG     1      18.603  37.636  18.437  1.00  0.00     0.027 A 
HETATM   11  C   LIG     1      18.706  38.633  19.418  1.00  0.00    -0.048 A 
HETATM   12  C   LIG     1      19.169  40.010  19.014  1.00  0.00     0.049 C 
HETATM   13  C   LIG     1      17.609  36.653  22.382  1.00  0.00     0.096 A 
HETATM   14  N   LIG     1      17.200  35.385  22.663  1.00  0.00    -0.258 NA
HETATM   15  C   LIG     1      16.863  34.998  23.918  1.00  0.00     0.118 A 
HETATM   16  C   LIG     1      16.927  35.906  24.973  1.00  0.00     0.027 A 
ENDROOT
TORSDOF 0
ENDMDL
MODEL 6
REMARK VINA RESULT:      -5.4      2.163      4.065
REMARK  0 active torsions:
REMARK  status: ('A' for Active; 'I' for Inactive)
ROOT
HETATM    1  C   LIG     1      13.755  33.090  17.043  1.00  0.00     0.049 C 
HETATM    2  C   LIG     1      14.740  32.376  16.154  1.00  0.00    -0.048 A 
HETATM    3  C   LIG     1      14.405  31.178  15.474  1.00  0.00     0.001 A 
HETATM    4  C   LIG     1      13.136  30.579  15.585  1.00  0.00     0.015 A 
HETATM    5  C   LIG     1      12.841  29.399  14.901  1.00  0.00     0.015 A 
HETATM    6  C   LIG     1      13.805  28.780  14.084  1.00  0.00     0.001 A 
HETATM    7  C   LIG     1      15.085  29.375  13.965  1.00  0.00     0.096 A 
HETATM    8  N   LIG     1      16.034  28.793  13.180  1.00  0.00    -0.258 NA
HETATM    9  C   LIG     1      15.797  27.647  12.495  1.00  0.00     0.118 A 
HETATM   10  C   LIG     1      14.554  27.023  12.579  1.00  0.00     0.027 A 
HETATM   11  C   LIG     1      13.542  27.582  13.374  1.00  0.00    -0.048 A 
HETATM   12  C   LIG     1      12.205  26.888  13.448  1.00  0.00     0.049 C 
HETATM   13  C   LIG     1      15.383  30.562  14.654  1.00  0.00     0.096 A 
HETATM   14  N   LIG     1      16.617  31.125  14.533  1.00  0.00    -0.258 NA
HETATM   15  C   LIG     1      16.953  32.270  15.176  1.00  0.00     0.118 A 
HETATM   16  C   LIG     1      16.027  32.913  15.994  1.00  0.00     0.027 A 
ENDROOT
TORSDOF 0
ENDMDL
MODEL 7
REMARK VINA RESULT:      -5.1     22.979     24.178
REMARK  0 active torsions:
REMARK  status: ('A' for Active; 'I' for Inactive)
ROOT
HETATM    1  C   LIG     1      28.755  32.774  38.017  1.00  0.00     0.049 C 
HETATM    2  C   LIG     1      27.771  31.783  37.450  1.00  0.00    -0.048 A 
HETATM    3  C   LIG     1      28.028  31.073  36.250  1.00  0.00     0.001 A 
HETATM    4  C   LIG     1      29.216  31.247  35.513  1.00  0.00     0.015 A 
HETATM    5  C   LIG     1      29.436  30.531  34.336  1.00  0.00     0.015 A 
HETATM    6  C   LIG     1      28.477  29.618  33.857  1.00  0.00     0.001 A 
HETATM    7  C   LIG     1      27.279  29.436  34.592  1.00  0.00     0.096 A 
HETATM    8  N   LIG     1      26.338  28.558  34.148  1.00  0.00    -0.258 NA
HETATM    9  C   LIG     1      26.504  27.839  33.011  1.00  0.00     0.118 A 
HETATM   10  C   LIG     1      27.664  27.983  32.253  1.00  0.00     0.027 A 
HETATM   11  C   LIG     1      28.666  28.874  32.667  1.00  0.00    -0.048 A 
HETATM   12  C   LIG     1      29.913  29.011  31.830  1.00  0.00     0.049 C 
HETATM   13  C   LIG     1      27.057  30.157  35.777  1.00  0.00     0.096 A 
HETATM   14  N   LIG     1      25.902  29.974  36.475  1.00  0.00    -0.258 NA
HETATM   15  C   LIG     1      25.640  30.645  37.623  1.00  0.00     0.118 A 
HETATM   16  C   LIG     1      26.564  31.557  38.129  1.00  0.00     0.027 A 
ENDROOT
TORSDOF 0
ENDMDL
MODEL 8
REMARK VINA RESULT:      -5.1     22.972     24.117
REMARK  0 active torsions:
REMARK  status: ('A' for Active; 'I' for Inactive)
ROOT
HETATM    1  C   LIG     1      29.882  28.968  31.803  1.00  0.00     0.049 C 
HETATM    2  C   LIG     1      28.644  28.815  32.648  1.00  0.00    -0.048 A 
HETATM    3  C   LIG     1      28.453  29.557  33.841  1.00  0.00     0.001 A 
HETATM    4  C   LIG     1      29.406  30.481  34.312  1.00  0.00     0.015 A 
HETATM    5  C   LIG     1      29.185  31.194  35.492  1.00  0.00     0.015 A 
HETATM    6  C   LIG     1      28.006  31.006  36.237  1.00  0.00     0.001 A 
HETATM    7  C   LIG     1      27.041  30.080  35.770  1.00  0.00     0.096 A 
HETATM    8  N   LIG     1      25.892  29.883  36.475  1.00  0.00    -0.258 NA
HETATM    9  C   LIG     1      25.631  30.550  37.625  1.00  0.00     0.118 A 
HETATM   10  C   LIG     1      26.548  31.473  38.126  1.00  0.00     0.027 A 
HETATM   11  C   LIG     1      27.747  31.713  37.438  1.00  0.00    -0.048 A 
HETATM   12  C   LIG     1      28.723  32.716  37.999  1.00  0.00     0.049 C 
HETATM   13  C   LIG     1      27.263  29.362  34.583  1.00  0.00     0.096 A 
HETATM   14  N   LIG     1      26.329  28.473  34.145  1.00  0.00    -0.258 NA
HETATM   15  C   LIG     1      26.496  27.756  33.006  1.00  0.00     0.118 A 
HETATM   16  C   LIG     1      27.649  27.912  32.241  1.00  0.00     0.027 A 
ENDROOT
TORSDOF 0
ENDMDL
MODEL 9
REMARK VINA RESULT:      -5.1     23.175     24.318
REMARK  0 active torsions:
REMARK  status: ('A' for Active; 'I' for Inactive)
ROOT
HETATM    1  C   LIG     1      25.926  31.800  38.129  1.00  0.00     0.049 C 
HETATM    2  C   LIG     1      27.230  31.576  37.409  1.00  0.00    -0.048 A 
HETATM    3  C   LIG     1      27.323  30.738  36.269  1.00  0.00     0.001 A 
HETATM    4  C   LIG     1      26.207  30.064  35.738  1.00  0.00     0.015 A 
HETATM    5  C   LIG     1      26.336  29.247  34.614  1.00  0.00     0.015 A 
HETATM    6  C   LIG     1      27.584  29.077  33.985  1.00  0.00     0.001 A 
HETATM    7  C   LIG     1      28.712  29.752  34.512  1.00  0.00     0.096 A 
HETATM    8  N   LIG     1      29.929  29.604  33.919  1.00  0.00    -0.258 NA
HETATM    9  C   LIG     1      30.107  28.821  32.826  1.00  0.00     0.118 A 
HETATM   10  C   LIG     1      29.028  28.137  32.271  1.00  0.00     0.027 A 
HETATM   11  C   LIG     1      27.752  28.256  32.843  1.00  0.00    -0.048 A 
HETATM   12  C   LIG     1      26.600  27.506  32.222  1.00  0.00     0.049 C 
HETATM   13  C   LIG     1      28.583  30.575  35.644  1.00  0.00     0.096 A 
HETATM   14  N   LIG     1      29.676  31.218  36.141  1.00  0.00    -0.258 NA
HETATM   15  C   LIG     1      29.603  32.022  37.230  1.00  0.00     0.118 A 
HETATM   16  C   LIG     1      28.387  32.216  37.881  1.00  0.00     0.027 A 
ENDROOT
TORSDOF 0
ENDMDL
MODEL 10
REMARK VINA RESULT:      -4.8     14.241     14.742
REMARK  0 active torsions:
REMARK  status: ('A' for Active; 'I' for Inactive)
ROOT
HETATM    1  C   LIG     1      29.079  27.683  18.125  1.00  0.00     0.049 C 
HETATM    2  C   LIG     1      28.824  26.275  17.650  1.00  0.00    -0.048 A 
HETATM    3  C   LIG     1      27.872  25.433  18.277  1.00  0.00     0.001 A 
HETATM    4  C   LIG     1      27.104  25.855  19.379  1.00  0.00     0.015 A 
HETATM    5  C   LIG     1      26.176  24.998  19.971  1.00  0.00     0.015 A 
HETATM    6  C   LIG     1      25.984  23.693  19.481  1.00  0.00     0.001 A 
HETATM    7  C   LIG     1      26.750  23.260  18.371  1.00  0.00     0.096 A 
HETATM    8  N   LIG     1      26.581  22.001  17.880  1.00  0.00    -0.258 NA
HETATM    9  C   LIG     1      25.692  21.131  18.419  1.00  0.00     0.118 A 
HETATM   10  C   LIG     1      24.914  21.510  19.512  1.00  0.00     0.027 A 
HETATM   11  C   LIG     1      25.049  22.796  20.056  1.00  0.00    -0.048 A 
HETATM   12  C   LIG     1      24.196  23.182  21.238  1.00  0.00     0.049 C 
HETATM   13  C   LIG     1      27.686  24.121  17.775  1.00  0.00     0.096 A 
HETATM   14  N   LIG     1      28.418  23.693  16.709  1.00  0.00    -0.258 NA
HETATM   15  C   LIG     1      29.333  24.486  16.099  1.00  0.00     0.118 A 
HETATM   16  C   LIG     1      29.552  25.784  16.555  1.00  0.00     0.027 A 
ENDROOT
TORSDOF 0
ENDMDL
MODEL 11
REMARK VINA RESULT:      -4.8      1.512      5.472
REMARK  0 active torsions:
REMARK  status: ('A' for Active; 'I' for Inactive)
ROOT
HETATM    1  C   LIG     1      12.718  30.317  16.741  1.00  0.00     0.049 C 
HETATM    2  C   LIG     1      13.694  30.334  15.593  1.00  0.00    -0.048 A 
HETATM    3  C   LIG     1      14.618  31.393  15.409  1.00  0.00     0.001 A 
HETATM    4  C   LIG     1      14.685  32.493  16.285  1.00  0.00     0.015 A 
HETATM    5  C   LIG     1      15.608  33.519  16.073  1.00  0.00     0.015 A 
HETATM    6  C   LIG     1      16.494  33.476  14.981  1.00  0.00     0.001 A 
HETATM    7  C   LIG     1      16.435  32.373  14.095  1.00  0.00     0.096 A 
HETATM    8  N   LIG     1      17.283  32.311  13.031  1.00  0.00    -0.258 NA
HETATM    9  C   LIG     1      18.197  33.281  12.782  1.00  0.00     0.118 A 
HETATM   10  C   LIG     1      18.294  34.387  13.624  1.00  0.00     0.027 A 
HETATM   11  C   LIG     1      17.444  34.498  14.735  1.00  0.00    -0.048 A 
HETATM   12  C   LIG     1      17.569  35.704  15.632  1.00  0.00     0.049 C 
HETATM   13  C   LIG     1      15.506  31.341  14.307  1.00  0.00     0.096 A 
HETATM   14  N   LIG     1      15.458  30.285  13.448  1.00  0.00    -0.258 NA
HETATM   15  C   LIG     1      14.580  29.265  13.609  1.00  0.00     0.118 A 
HETATM   16  C   LIG     1      13.687  29.269  14.678  1.00  0.00     0.027 A 
ENDROOT
TORSDOF 0
ENDMDL
MODEL 12
REMARK VINA RESULT:      -4.8     15.158     15.475
REMARK  0 active torsions:
REMARK  status: ('A' for Active; 'I' for Inactive)
ROOT
HETATM    1  C   LIG     1      22.818  21.292  18.255  1.00  0.00     0.049 C 
HETATM    2  C   LIG     1      23.859  22.004  19.079  1.00  0.00    -0.048 A 
HETATM    3  C   LIG     1      23.899  21.895  20.492  1.00  0.00     0.001 A 
HETATM    4  C   LIG     1      22.973  21.118  21.214  1.00  0.00     0.015 A 
HETATM    5  C   LIG     1      23.043  21.034  22.605  1.00  0.00     0.015 A 
HETATM    6  C   LIG     1      24.040  21.724  23.319  1.00  0.00     0.001 A 
HETATM    7  C   LIG     1      24.977  22.507  22.602  1.00  0.00     0.096 A 
HETATM    8  N   LIG     1      25.951  23.183  23.273  1.00  0.00    -0.258 NA
HETATM    9  C   LIG     1      26.061  23.134  24.623  1.00  0.00     0.118 A 
HETATM   10  C   LIG     1      25.164  22.377  25.374  1.00  0.00     0.027 A 
HETATM   11  C   LIG     1      24.142  21.661  24.732  1.00  0.00    -0.048 A 
HETATM   12  C   LIG     1      23.184  20.849  25.566  1.00  0.00     0.049 C 
HETATM   13  C   LIG     1      24.907  22.593  21.202  1.00  0.00     0.096 A 
HETATM   14  N   LIG     1      25.813  23.350  20.523  1.00  0.00    -0.258 NA
HETATM   15  C   LIG     1      25.788  23.464  19.172  1.00  0.00     0.118 A 
HETATM   16  C   LIG     1      24.816  22.797  18.429  1.00  0.00     0.027 A 
ENDROOT
TORSDOF 0
ENDMDL
MODEL 13
REMARK VINA RESULT:      -4.8     15.268     15.821
REMARK  0 active torsions:
REMARK  status: ('A' for Active; 'I' for Inactive)
ROOT
HETATM    1  C   LIG     1      23.220  20.888  25.589  1.00  0.00     0.049 C 
HETATM    2  C   LIG     1      24.221  21.666  24.774  1.00  0.00    -0.048 A 
HETATM    3  C   LIG     1      24.143  21.740  23.361  1.00  0.00     0.001 A 
HETATM    4  C   LIG     1      23.128  21.094  22.629  1.00  0.00     0.015 A 
HETATM    5  C   LIG     1      23.083  21.189  21.237  1.00  0.00     0.015 A 
HETATM    6  C   LIG     1      24.049  21.932  20.533  1.00  0.00     0.001 A 
HETATM    7  C   LIG     1      25.073  22.586  21.261  1.00  0.00     0.096 A 
HETATM    8  N   LIG     1      26.018  23.310  20.600  1.00  0.00    -0.258 NA
HETATM    9  C   LIG     1      26.018  23.433  19.250  1.00  0.00     0.118 A 
HETATM   10  C   LIG     1      25.031  22.808  18.489  1.00  0.00     0.027 A 
HETATM   11  C   LIG     1      24.033  22.050  19.121  1.00  0.00    -0.048 A 
HETATM   12  C   LIG     1      22.977  21.385  18.276  1.00  0.00     0.049 C 
HETATM   13  C   LIG     1      25.120  22.490  22.662  1.00  0.00     0.096 A 
HETATM   14  N   LIG     1      26.110  23.123  23.351  1.00  0.00    -0.258 NA
HETATM   15  C   LIG     1      26.199  23.062  24.702  1.00  0.00     0.118 A 
HETATM   16  C   LIG     1      25.262  22.337  25.435  1.00  0.00     0.027 A 
ENDROOT
TORSDOF 0
ENDMDL
MODEL 14
REMARK VINA RESULT:      -4.8     14.443     15.305
REMARK  0 active torsions:
REMARK  status: ('A' for Active; 'I' for Inactive)
ROOT
HETATM    1  C   LIG     1      23.095  21.629  18.332  1.00  0.00     0.049 C 
HETATM    2  C   LIG     1      23.926  21.973  19.541  1.00  0.00    -0.048 A 
HETATM    3  C   LIG     1      24.992  22.906  19.477  1.00  0.00     0.001 A 
HETATM    4  C   LIG     1      25.341  23.569  18.286  1.00  0.00     0.015 A 
HETATM    5  C   LIG     1      26.397  24.482  18.260  1.00  0.00     0.015 A 
HETATM    6  C   LIG     1      27.136  24.761  19.425  1.00  0.00     0.001 A 
HETATM    7  C   LIG     1      26.792  24.099  20.629  1.00  0.00     0.096 A 
HETATM    8  N   LIG     1      27.493  24.354  21.768  1.00  0.00    -0.258 NA
HETATM    9  C   LIG     1      28.527  25.231  21.795  1.00  0.00     0.118 A 
HETATM   10  C   LIG     1      28.904  25.907  20.637  1.00  0.00     0.027 A 
HETATM   11  C   LIG     1      28.213  25.681  19.436  1.00  0.00    -0.048 A 
HETATM   12  C   LIG     1      28.641  26.426  18.197  1.00  0.00     0.049 C 
HETATM   13  C   LIG     1      25.729  23.180  20.655  1.00  0.00     0.096 A 
HETATM   14  N   LIG     1      25.408  22.549  21.818  1.00  0.00    -0.258 NA
HETATM   15  C   LIG     1      24.392  21.655  21.896  1.00  0.00     0.118 A 
HETATM   16  C   LIG     1      23.636  21.352  20.765  1.00  0.00     0.027 A 
ENDROOT
TORSDOF 0
ENDMDL
MODEL 15
REMARK VINA RESULT:      -4.7      2.303      4.131
REMARK  0 active torsions:
REMARK  status: ('A' for Active; 'I' for Inactive)
ROOT
HETATM    1  C   LIG     1      16.034  33.421  16.119  1.00  0.00     0.049 C 
HETATM    2  C   LIG     1      14.882  32.451  16.060  1.00  0.00    -0.048 A 
HETATM    3  C   LIG     1      14.924  31.285  15.255  1.00  0.00     0.001 A 
HETATM    4  C   LIG     1      16.041  30.959  14.462  1.00  0.00     0.015 A 
HETATM    5  C   LIG     1      16.047  29.802  13.681  1.00  0.00     0.015 A 
HETATM    6  C   LIG     1      14.939  28.934  13.668  1.00  0.00     0.001 A 
HETATM    7  C   LIG     1      13.811  29.254  14.464  1.00  0.00     0.096 A 
HETATM    8  N   LIG     1      12.728  28.429  14.468  1.00  0.00    -0.258 NA
HETATM    9  C   LIG     1      12.685  27.294  13.727  1.00  0.00     0.118 A 
HETATM   10  C   LIG     1      13.769  26.936  12.928  1.00  0.00     0.027 A 
HETATM   11  C   LIG     1      14.910  27.751  12.889  1.00  0.00    -0.048 A 
HETATM   12  C   LIG     1      16.070  27.342  12.017  1.00  0.00     0.049 C 
HETATM   13  C   LIG     1      13.804  30.419  15.250  1.00  0.00     0.096 A 
HETATM   14  N   LIG     1      12.714  30.716  16.010  1.00  0.00    -0.258 NA
HETATM   15  C   LIG     1      12.658  31.827  16.785  1.00  0.00     0.118 A 
HETATM   16  C   LIG     1      13.734  32.710  16.824  1.00  0.00     0.027 A 
ENDROOT
TORSDOF 0
ENDMDL
MODEL 16
REMARK VINA RESULT:      -4.7     14.298     15.555
REMARK  0 active torsions:
REMARK  status: ('A' for Active; 'I' for Inactive)
ROOT
HETATM    1  C   LIG     1      24.022  22.840  20.857  1.00  0.00     0.049 C 
HETATM    2  C   LIG     1      25.014  22.510  19.771  1.00  0.00    -0.048 A 
HETATM    3  C   LIG     1      25.932  23.471  19.277  1.00  0.00     0.001 A 
HETATM    4  C   LIG     1      25.977  24.790  19.766  1.00  0.00     0.015 A 
HETATM    5  C   LIG     1      26.895  25.709  19.256  1.00  0.00     0.015 A 
HETATM    6  C   LIG     1      27.797  25.339  18.241  1.00  0.00     0.001 A 
HETATM    7  C   LIG     1      27.760  24.014  17.743  1.00  0.00     0.096 A 
HETATM    8  N   LIG     1      28.624  23.633  16.762  1.00  0.00    -0.258 NA
HETATM    9  C   LIG     1      29.534  24.488  16.233  1.00  0.00     0.118 A 
HETATM   10  C   LIG     1      29.609  25.803  16.689  1.00  0.00     0.027 A 
HETATM   11  C   LIG     1      28.742  26.245  17.700  1.00  0.00    -0.048 A 
HETATM   12  C   LIG     1      28.844  27.672  18.176  1.00  0.00     0.049 C 
HETATM   13  C   LIG     1      26.836  23.088  18.256  1.00  0.00     0.096 A 
HETATM   14  N   LIG     1      26.810  21.816  17.769  1.00  0.00    -0.258 NA
HETATM   15  C   LIG     1      25.938  20.887  18.231  1.00  0.00     0.118 A 
HETATM   16  C   LIG     1      25.029  21.214  19.235  1.00  0.00     0.027 A 
ENDROOT
TORSDOF 0
ENDMDL
MODEL 17
REMARK VINA RESULT:      -4.5     14.400     15.336
REMARK  0 active torsions:
REMARK  status: ('A' for Active; 'I' for Inactive)
ROOT
HETATM    1  C   LIG     1      23.159  20.161  21.689  1.00  0.00     0.049 C 
HETATM    2  C   LIG     1      23.569  20.970  20.486  1.00  0.00    -0.048 A 
HETATM    3  C   LIG     1      24.566  21.975  20.561  1.00  0.00     0.001 A 
HETATM    4  C   LIG     1      25.236  22.282  21.761  1.00  0.00     0.015 A 
HETATM    5  C   LIG     1      26.212  23.278  21.799  1.00  0.00     0.015 A 
HETATM    6  C   LIG     1      26.551  23.999  20.638  1.00  0.00     0.001 A 
HETATM    7  C   LIG     1      25.884  23.697  19.426  1.00  0.00     0.096 A 
HETATM    8  N   LIG     1      26.196  24.382  18.291  1.00  0.00    -0.258 NA
HETATM    9  C   LIG     1      27.136  25.358  18.275  1.00  0.00     0.118 A 
HETATM   10  C   LIG     1      27.820  25.692  19.442  1.00  0.00     0.027 A 
HETATM   11  C   LIG     1      27.537  25.017  20.639  1.00  0.00    -0.048 A 
HETATM   12  C   LIG     1      28.292  25.396  21.888  1.00  0.00     0.049 C 
HETATM   13  C   LIG     1      24.900  22.694  19.388  1.00  0.00     0.096 A 
HETATM   14  N   LIG     1      24.265  22.413  18.217  1.00  0.00    -0.258 NA
HETATM   15  C   LIG     1      23.309  21.455  18.128  1.00  0.00     0.118 A 
HETATM   16  C   LIG     1      22.946  20.720  19.253  1.00  0.00     0.027 A 
ENDROOT
TORSDOF 0
ENDMDL
MODEL 18
REMARK VINA RESULT:      -4.5     14.748     15.387
REMARK  0 active torsions:
REMARK  status: ('A' for Active; 'I' for Inactive)
ROOT
HETATM    1  C   LIG     1      22.426  22.613  21.302  1.00  0.00     0.049 C 
HETATM    2  C   LIG     1      23.769  22.520  20.626  1.00  0.00    -0.048 A 
HETATM    3  C   LIG     1      23.989  21.682  19.504  1.00  0.00     0.001 A 
HETATM    4  C   LIG     1      22.969  20.885  18.950  1.00  0.00     0.015 A 
HETATM    5  C   LIG     1      23.221  20.071  17.845  1.00  0.00     0.015 A 
HETATM    6  C   LIG     1      24.500  20.028  17.258  1.00  0.00     0.001 A 
HETATM    7  C   LIG     1      25.532  20.828  17.807  1.00  0.00     0.096 A 
HETATM    8  N   LIG     1      26.776  20.803  17.255  1.00  0.00    -0.258 NA
HETATM    9  C   LIG     1      27.072  20.030  16.182  1.00  0.00     0.118 A 
HETATM   10  C   LIG     1      26.091  19.226  15.605  1.00  0.00     0.027 A 
HETATM   11  C   LIG     1      24.792  19.215  16.135  1.00  0.00    -0.048 A 
HETATM   12  C   LIG     1      23.748  18.337  15.492  1.00  0.00     0.049 C 
HETATM   13  C   LIG     1      25.279  21.647  18.921  1.00  0.00     0.096 A 
HETATM   14  N   LIG     1      26.279  22.411  19.441  1.00  0.00    -0.258 NA
HETATM   15  C   LIG     1      26.086  23.217  20.513  1.00  0.00     0.118 A 
HETATM   16  C   LIG     1      24.835  23.287  21.123  1.00  0.00     0.027 A 
ENDROOT
TORSDOF 0
ENDMDL
MODEL 19
REMARK VINA RESULT:      -4.4     20.900     22.607
REMARK  0 active torsions:
REMARK  status: ('A' for Active; 'I' for Inactive)
ROOT
HETATM    1  C   LIG     1      19.031  21.682  29.543  1.00  0.00     0.049 C 
HETATM    2  C   LIG     1      19.444  20.744  30.648  1.00  0.00    -0.048 A 
HETATM    3  C   LIG     1      19.809  21.216  31.935  1.00  0.00     0.001 A 
HETATM    4  C   LIG     1      19.809  22.585  32.262  1.00  0.00     0.015 A 
HETATM    5  C   LIG     1      20.174  23.013  33.539  1.00  0.00     0.015 A 
HETATM    6  C   LIG     1      20.551  22.086  34.529  1.00  0.00     0.001 A 
HETATM    7  C   LIG     1      20.554  20.706  34.210  1.00  0.00     0.096 A 
HETATM    8  N   LIG     1      20.914  19.792  35.152  1.00  0.00    -0.258 NA
HETATM    9  C   LIG     1      21.278  20.156  36.406  1.00  0.00     0.118 A 
HETATM   10  C   LIG     1      21.291  21.502  36.770  1.00  0.00     0.027 A 
HETATM   11  C   LIG     1      20.927  22.484  35.836  1.00  0.00    -0.048 A 
HETATM   12  C   LIG     1      20.950  23.933  36.255  1.00  0.00     0.049 C 
HETATM   13  C   LIG     1      20.187  20.275  32.924  1.00  0.00     0.096 A 
HETATM   14  N   LIG     1      20.194  18.946  32.628  1.00  0.00    -0.258 NA
HETATM   15  C   LIG     1      19.848  18.479  31.403  1.00  0.00     0.118 A 
HETATM   16  C   LIG     1      19.469  19.364  30.396  1.00  0.00     0.027 A 
ENDROOT
TORSDOF 0
ENDMDL
MODEL 20
REMARK VINA RESULT:      -4.4     20.912     22.588
REMARK  0 active torsions:
REMARK  status: ('A' for Active; 'I' for Inactive)
ROOT
HETATM    1  C   LIG     1      20.634  23.844  36.245  1.00  0.00     0.049 C 
HETATM    2  C   LIG     1      20.747  22.404  35.814  1.00  0.00    -0.048 A 
HETATM    3  C   LIG     1      20.437  21.990  34.494  1.00  0.00     0.001 A 
HETATM    4  C   LIG     1      20.006  22.893  33.504  1.00  0.00     0.015 A 
HETATM    5  C   LIG     1      19.709  22.449  32.214  1.00  0.00     0.015 A 
HETATM    6  C   LIG     1      19.834  21.090  31.874  1.00  0.00     0.001 A 
HETATM    7  C   LIG     1      20.268  20.173  32.863  1.00  0.00     0.096 A 
HETATM    8  N   LIG     1      20.397  18.853  32.555  1.00  0.00    -0.258 NA
HETATM    9  C   LIG     1      20.121  18.372  31.318  1.00  0.00     0.118 A 
HETATM   10  C   LIG     1      19.691  19.234  30.310  1.00  0.00     0.027 A 
HETATM   11  C   LIG     1      19.543  20.604  30.575  1.00  0.00    -0.048 A 
HETATM   12  C   LIG     1      19.077  21.515  29.467  1.00  0.00     0.049 C 
HETATM   13  C   LIG     1      20.566  20.619  34.161  1.00  0.00     0.096 A 
HETATM   14  N   LIG     1      20.982  19.729  35.104  1.00  0.00    -0.258 NA
HETATM   15  C   LIG     1      21.282  20.109  36.371  1.00  0.00     0.118 A 
HETATM   16  C   LIG     1      21.171  21.446  36.748  1.00  0.00     0.027 A 
ENDROOT
TORSDOF 0
ENDMDL
