REMARK  0 active torsions:
REMARK  status: ('A' for Active; 'I' for Inactive)
ROOT
HETATM    1  C   LIG     1      -3.511   1.626   0.717  1.00  0.00     0.049 C 
HETATM    2  C   LIG     1      -2.803   0.448   0.099  1.00  0.00    -0.048 A 
HETATM    3  C   LIG     1      -1.390   0.332   0.110  1.00  0.00     0.001 A 
HETATM    4  C   LIG     1      -0.560   1.306   0.697  1.00  0.00     0.015 A 
HETATM    5  C   LIG     1       0.828   1.159   0.689  1.00  0.00     0.015 A 
HETATM    6  C   LIG     1       1.430   0.034   0.095  1.00  0.00     0.001 A 
HETATM    7  C   LIG     1       0.603  -0.952  -0.497  1.00  0.00     0.096 A 
HETATM    8  N   LIG     1       1.164  -2.049  -1.077  1.00  0.00    -0.258 NA
HETATM    9  C   LIG     1       2.506  -2.238  -1.111  1.00  0.00     0.118 A 
HETATM   10  C   LIG     1       3.362  -1.297  -0.542  1.00  0.00     0.027 A 
HETATM   11  C   LIG     1       2.835  -0.149   0.069  1.00  0.00    -0.048 A 
HETATM   12  C   LIG     1       3.782   0.854   0.678  1.00  0.00     0.049 C 
HETATM   13  C   LIG     1      -0.794  -0.804  -0.490  1.00  0.00     0.096 A 
HETATM   14  N   LIG     1      -1.579  -1.758  -1.063  1.00  0.00    -0.258 NA
HETATM   15  C   LIG     1      -2.931  -1.662  -1.082  1.00  0.00     0.118 A 
HETATM   16  C   LIG     1      -3.565  -0.564  -0.505  1.00  0.00     0.027 A 
ENDROOT
TORSDOF 0
