MODEL 1
REMARK VINA RESULT:      -7.3      0.000      0.000
REMARK  1 active torsions:
REMARK  status: ('A' for Active; 'I' for Inactive)
REMARK    1  A    between atoms: C_8  and  C_9 
ROOT
HETATM    1 CL   LIG     1      16.402  38.734  22.363  1.00  0.00    -0.083 Cl
HETATM    2  C   LIG     1      16.903  37.563  23.579  1.00  0.00     0.045 A 
HETATM    3  C   LIG     1      17.268  38.039  24.844  1.00  0.00     0.026 A 
HETATM    4  C   LIG     1      17.726  37.157  25.826  1.00  0.00     0.025 A 
HETATM    5  C   LIG     1      17.829  35.794  25.548  1.00  0.00     0.035 A 
HETATM    6 CL   LIG     1      18.411  34.688  26.781  1.00  0.00    -0.084 Cl
HETATM    7  C   LIG     1      17.469  35.307  24.288  1.00  0.00     0.037 A 
HETATM    8  C   LIG     1      16.994  36.182  23.294  1.00  0.00    -0.003 A 
ENDROOT
BRANCH   8   9
HETATM    9  C   LIG     1      16.607  35.632  21.976  1.00  0.00    -0.022 A 
HETATM   10  C   LIG     1      16.959  36.301  20.792  1.00  0.00     0.014 A 
HETATM   11  C   LIG     1      16.576  35.786  19.551  1.00  0.00     0.026 A 
HETATM   12  C   LIG     1      15.831  34.603  19.476  1.00  0.00     0.055 A 
HETATM   13  C   LIG     1      15.465  33.935  20.656  1.00  0.00     0.056 A 
HETATM   14 CL   LIG     1      15.368  33.987  17.896  1.00  0.00    -0.083 Cl
HETATM   15 CL   LIG     1      14.524  32.450  20.607  1.00  0.00    -0.083 Cl
HETATM   16  C   LIG     1      15.849  34.452  21.898  1.00  0.00     0.038 A 
ENDBRANCH   8   9
TORSDOF 1
ENDMDL
MODEL 2
REMARK VINA RESULT:      -6.8      1.973      3.060
REMARK  1 active torsions:
REMARK  status: ('A' for Active; 'I' for Inactive)
REMARK    1  A    between atoms: C_8  and  C_9 
ROOT
HETATM    1 CL   LIG     1      18.509  37.078  18.951  1.00  0.00    -0.083 Cl
HETATM    2  C   LIG     1      18.026  37.427  20.608  1.00  0.00     0.045 A 
HETATM    3  C   LIG     1      18.606  38.530  21.247  1.00  0.00     0.026 A 
HETATM    4  C   LIG     1      18.299  38.817  22.579  1.00  0.00     0.025 A 
HETATM    5  C   LIG     1      17.416  38.000  23.285  1.00  0.00     0.035 A 
HETATM    6 CL   LIG     1      17.036  38.359  24.961  1.00  0.00    -0.084 Cl
HETATM    7  C   LIG     1      16.831  36.896  22.658  1.00  0.00     0.037 A 
HETATM    8  C   LIG     1      17.122  36.602  21.314  1.00  0.00    -0.003 A 
ENDROOT
BRANCH   8   9
HETATM    9  C   LIG     1      16.474  35.434  20.676  1.00  0.00    -0.022 A 
HETATM   10  C   LIG     1      16.249  34.256  21.406  1.00  0.00     0.014 A 
HETATM   11  C   LIG     1      15.653  33.151  20.794  1.00  0.00     0.026 A 
HETATM   12  C   LIG     1      15.282  33.204  19.446  1.00  0.00     0.055 A 
HETATM   13  C   LIG     1      15.515  34.374  18.705  1.00  0.00     0.056 A 
HETATM   14 CL   LIG     1      14.534  31.792  18.712  1.00  0.00    -0.083 Cl
HETATM   15 CL   LIG     1      15.070  34.481  17.007  1.00  0.00    -0.083 Cl
HETATM   16  C   LIG     1      16.112  35.481  19.319  1.00  0.00     0.038 A 
ENDBRANCH   8   9
TORSDOF 1
ENDMDL
MODEL 3
REMARK VINA RESULT:      -6.4      4.616      8.810
REMARK  1 active torsions:
REMARK  status: ('A' for Active; 'I' for Inactive)
REMARK    1  A    between atoms: C_8  and  C_9 
ROOT
HETATM    1 CL   LIG     1      17.203  33.533  14.963  1.00  0.00    -0.083 Cl
HETATM    2  C   LIG     1      16.061  32.205  14.790  1.00  0.00     0.045 A 
HETATM    3  C   LIG     1      16.035  31.509  13.575  1.00  0.00     0.026 A 
HETATM    4  C   LIG     1      15.110  30.484  13.368  1.00  0.00     0.025 A 
HETATM    5  C   LIG     1      14.198  30.150  14.370  1.00  0.00     0.035 A 
HETATM    6 CL   LIG     1      13.032  28.865  14.105  1.00  0.00    -0.084 Cl
HETATM    7  C   LIG     1      14.215  30.838  15.587  1.00  0.00     0.037 A 
HETATM    8  C   LIG     1      15.149  31.864  15.814  1.00  0.00    -0.003 A 
ENDROOT
BRANCH   8   9
HETATM    9  C   LIG     1      15.149  32.562  17.120  1.00  0.00    -0.022 A 
HETATM   10  C   LIG     1      15.433  33.935  17.195  1.00  0.00     0.014 A 
HETATM   11  C   LIG     1      15.448  34.585  18.431  1.00  0.00     0.026 A 
HETATM   12  C   LIG     1      15.188  33.873  19.607  1.00  0.00     0.055 A 
HETATM   13  C   LIG     1      14.914  32.497  19.542  1.00  0.00     0.056 A 
HETATM   14 CL   LIG     1      15.216  34.727  21.144  1.00  0.00    -0.083 Cl
HETATM   15 CL   LIG     1      14.588  31.563  20.996  1.00  0.00    -0.083 Cl
HETATM   16  C   LIG     1      14.900  31.847  18.303  1.00  0.00     0.038 A 
ENDBRANCH   8   9
TORSDOF 1
ENDMDL
MODEL 4
REMARK VINA RESULT:      -6.2      4.615      8.696
REMARK  1 active torsions:
REMARK  status: ('A' for Active; 'I' for Inactive)
REMARK    1  A    between atoms: C_8  and  C_9 
ROOT
HETATM    1 CL   LIG     1      13.654  30.525  16.089  1.00  0.00    -0.083 Cl
HETATM    2  C   LIG     1      14.876  31.395  15.169  1.00  0.00     0.045 A 
HETATM    3  C   LIG     1      15.095  31.020  13.838  1.00  0.00     0.026 A 
HETATM    4  C   LIG     1      16.091  31.641  13.082  1.00  0.00     0.025 A 
HETATM    5  C   LIG     1      16.883  32.639  13.653  1.00  0.00     0.035 A 
HETATM    6 CL   LIG     1      18.139  33.415  12.704  1.00  0.00    -0.084 Cl
HETATM    7  C   LIG     1      16.674  33.022  14.982  1.00  0.00     0.037 A 
HETATM    8  C   LIG     1      15.666  32.413  15.750  1.00  0.00    -0.003 A 
ENDROOT
BRANCH   8   9
HETATM    9  C   LIG     1      15.462  32.853  17.149  1.00  0.00    -0.022 A 
HETATM   10  C   LIG     1      15.534  34.214  17.486  1.00  0.00     0.014 A 
HETATM   11  C   LIG     1      15.358  34.622  18.810  1.00  0.00     0.026 A 
HETATM   12  C   LIG     1      15.117  33.677  19.815  1.00  0.00     0.055 A 
HETATM   13  C   LIG     1      15.057  32.313  19.488  1.00  0.00     0.056 A 
HETATM   14 CL   LIG     1      14.902  34.231  21.470  1.00  0.00    -0.083 Cl
HETATM   15 CL   LIG     1      14.764  31.093  20.720  1.00  0.00    -0.083 Cl
HETATM   16  C   LIG     1      15.234  31.906  18.160  1.00  0.00     0.038 A 
ENDBRANCH   8   9
TORSDOF 1
ENDMDL
MODEL 5
REMARK VINA RESULT:      -6.2      7.699      9.674
REMARK  1 active torsions:
REMARK  status: ('A' for Active; 'I' for Inactive)
REMARK    1  A    between atoms: C_8  and  C_9 
ROOT
HETATM    1 CL   LIG     1      15.258  33.863  17.061  1.00  0.00    -0.083 Cl
HETATM    2  C   LIG     1      14.653  32.450  16.202  1.00  0.00     0.045 A 
HETATM    3  C   LIG     1      13.489  31.835  16.677  1.00  0.00     0.026 A 
HETATM    4  C   LIG     1      12.999  30.679  16.065  1.00  0.00     0.025 A 
HETATM    5  C   LIG     1      13.674  30.125  14.977  1.00  0.00     0.035 A 
HETATM    6 CL   LIG     1      13.062  28.668  14.213  1.00  0.00    -0.084 Cl
HETATM    7  C   LIG     1      14.839  30.729  14.494  1.00  0.00     0.037 A 
HETATM    8  C   LIG     1      15.336  31.901  15.093  1.00  0.00    -0.003 A 
ENDROOT
BRANCH   8   9
HETATM    9  C   LIG     1      16.563  32.524  14.547  1.00  0.00    -0.022 A 
HETATM   10  C   LIG     1      17.796  32.359  15.198  1.00  0.00     0.014 A 
HETATM   11  C   LIG     1      18.948  32.963  14.688  1.00  0.00     0.026 A 
HETATM   12  C   LIG     1      18.882  33.745  13.529  1.00  0.00     0.055 A 
HETATM   13  C   LIG     1      17.649  33.924  12.879  1.00  0.00     0.056 A 
HETATM   14 CL   LIG     1      20.353  34.489  12.918  1.00  0.00    -0.083 Cl
HETATM   15 CL   LIG     1      17.521  34.904  11.425  1.00  0.00    -0.083 Cl
HETATM   16  C   LIG     1      16.496  33.319  13.392  1.00  0.00     0.038 A 
ENDBRANCH   8   9
TORSDOF 1
ENDMDL
MODEL 6
REMARK VINA RESULT:      -6.0      6.589      9.615
REMARK  1 active torsions:
REMARK  status: ('A' for Active; 'I' for Inactive)
REMARK    1  A    between atoms: C_8  and  C_9 
ROOT
HETATM    1 CL   LIG     1      16.138  32.093  13.128  1.00  0.00    -0.083 Cl
HETATM    2  C   LIG     1      15.713  32.271  14.827  1.00  0.00     0.045 A 
HETATM    3  C   LIG     1      16.210  33.381  15.520  1.00  0.00     0.026 A 
HETATM    4  C   LIG     1      15.948  33.539  16.883  1.00  0.00     0.025 A 
HETATM    5  C   LIG     1      15.192  32.584  17.565  1.00  0.00     0.035 A 
HETATM    6 CL   LIG     1      14.869  32.781  19.279  1.00  0.00    -0.084 Cl
HETATM    7  C   LIG     1      14.692  31.471  16.883  1.00  0.00     0.037 A 
HETATM    8  C   LIG     1      14.938  31.306  15.509  1.00  0.00    -0.003 A 
ENDROOT
BRANCH   8   9
HETATM    9  C   LIG     1      14.380  30.124  14.815  1.00  0.00    -0.022 A 
HETATM   10  C   LIG     1      12.995  29.892  14.800  1.00  0.00     0.014 A 
HETATM   11  C   LIG     1      12.475  28.766  14.158  1.00  0.00     0.026 A 
HETATM   12  C   LIG     1      13.331  27.852  13.531  1.00  0.00     0.055 A 
HETATM   13  C   LIG     1      14.718  28.070  13.552  1.00  0.00     0.056 A 
HETATM   14 CL   LIG     1      12.638  26.446  12.734  1.00  0.00    -0.083 Cl
HETATM   15 CL   LIG     1      15.828  26.944  12.782  1.00  0.00    -0.083 Cl
HETATM   16  C   LIG     1      15.237  29.199  14.195  1.00  0.00     0.038 A 
ENDBRANCH   8   9
TORSDOF 1
ENDMDL
MODEL 7
REMARK VINA RESULT:      -6.0      7.747     10.270
REMARK  1 active torsions:
REMARK  status: ('A' for Active; 'I' for Inactive)
REMARK    1  A    between atoms: C_8  and  C_9 
ROOT
HETATM    1 CL   LIG     1      17.291  35.098  15.736  1.00  0.00    -0.083 Cl
HETATM    2  C   LIG     1      16.561  33.600  15.167  1.00  0.00     0.045 A 
HETATM    3  C   LIG     1      15.601  32.983  15.978  1.00  0.00     0.026 A 
HETATM    4  C   LIG     1      15.032  31.765  15.599  1.00  0.00     0.025 A 
HETATM    5  C   LIG     1      15.424  31.150  14.409  1.00  0.00     0.035 A 
HETATM    6 CL   LIG     1      14.714  29.617  13.937  1.00  0.00    -0.084 Cl
HETATM    7  C   LIG     1      16.383  31.757  13.591  1.00  0.00     0.037 A 
HETATM    8  C   LIG     1      16.954  32.990  13.955  1.00  0.00    -0.003 A 
ENDROOT
BRANCH   8   9
HETATM    9  C   LIG     1      17.955  33.611  13.059  1.00  0.00    -0.022 A 
HETATM   10  C   LIG     1      17.553  34.253  11.876  1.00  0.00     0.014 A 
HETATM   11  C   LIG     1      18.503  34.823  11.026  1.00  0.00     0.026 A 
HETATM   12  C   LIG     1      19.865  34.753  11.340  1.00  0.00     0.055 A 
HETATM   13  C   LIG     1      20.276  34.102  12.515  1.00  0.00     0.056 A 
HETATM   14 CL   LIG     1      21.030  35.482  10.244  1.00  0.00    -0.083 Cl
HETATM   15 CL   LIG     1      21.978  33.985  12.943  1.00  0.00    -0.083 Cl
HETATM   16  C   LIG     1      19.323  33.531  13.366  1.00  0.00     0.038 A 
ENDBRANCH   8   9
TORSDOF 1
ENDMDL
MODEL 8
REMARK VINA RESULT:      -5.9      7.782     11.168
REMARK  1 active torsions:
REMARK  status: ('A' for Active; 'I' for Inactive)
REMARK    1  A    between atoms: C_8  and  C_9 
ROOT
HETATM    1 CL   LIG     1      12.681  30.504  15.479  1.00  0.00    -0.083 Cl
HETATM    2  C   LIG     1      13.653  29.443  14.465  1.00  0.00     0.045 A 
HETATM    3  C   LIG     1      13.122  28.196  14.112  1.00  0.00     0.026 A 
HETATM    4  C   LIG     1      13.876  27.295  13.357  1.00  0.00     0.025 A 
HETATM    5  C   LIG     1      15.169  27.629  12.955  1.00  0.00     0.035 A 
HETATM    6 CL   LIG     1      16.117  26.493  12.011  1.00  0.00    -0.084 Cl
HETATM    7  C   LIG     1      15.711  28.871  13.302  1.00  0.00     0.037 A 
HETATM    8  C   LIG     1      14.958  29.793  14.052  1.00  0.00    -0.003 A 
ENDROOT
BRANCH   8   9
HETATM    9  C   LIG     1      15.557  31.104  14.390  1.00  0.00    -0.022 A 
HETATM   10  C   LIG     1      15.311  31.700  15.637  1.00  0.00     0.014 A 
HETATM   11  C   LIG     1      15.864  32.945  15.944  1.00  0.00     0.026 A 
HETATM   12  C   LIG     1      16.661  33.615  15.008  1.00  0.00     0.055 A 
HETATM   13  C   LIG     1      16.901  33.031  13.754  1.00  0.00     0.056 A 
HETATM   14 CL   LIG     1      17.339  35.181  15.433  1.00  0.00    -0.083 Cl
HETATM   15 CL   LIG     1      17.891  33.841  12.547  1.00  0.00    -0.083 Cl
HETATM   16  C   LIG     1      16.346  31.783  13.447  1.00  0.00     0.038 A 
ENDBRANCH   8   9
TORSDOF 1
ENDMDL
MODEL 9
REMARK VINA RESULT:      -5.3     14.981     15.988
REMARK  1 active torsions:
REMARK  status: ('A' for Active; 'I' for Inactive)
REMARK    1  A    between atoms: C_8  and  C_9 
ROOT
HETATM    1 CL   LIG     1      28.317  23.246  22.149  1.00  0.00    -0.083 Cl
HETATM    2  C   LIG     1      26.573  23.208  21.912  1.00  0.00     0.045 A 
HETATM    3  C   LIG     1      25.773  22.743  22.962  1.00  0.00     0.026 A 
HETATM    4  C   LIG     1      24.389  22.641  22.805  1.00  0.00     0.025 A 
HETATM    5  C   LIG     1      23.795  22.997  21.593  1.00  0.00     0.035 A 
HETATM    6 CL   LIG     1      22.056  22.862  21.395  1.00  0.00    -0.084 Cl
HETATM    7  C   LIG     1      24.584  23.462  20.537  1.00  0.00     0.037 A 
HETATM    8  C   LIG     1      25.977  23.581  20.686  1.00  0.00    -0.003 A 
ENDROOT
BRANCH   8   9
HETATM    9  C   LIG     1      26.781  24.091  19.553  1.00  0.00    -0.022 A 
HETATM   10  C   LIG     1      27.197  23.227  18.527  1.00  0.00     0.014 A 
HETATM   11  C   LIG     1      27.970  23.710  17.469  1.00  0.00     0.026 A 
HETATM   12  C   LIG     1      28.345  25.058  17.425  1.00  0.00     0.055 A 
HETATM   13  C   LIG     1      27.943  25.927  18.453  1.00  0.00     0.056 A 
HETATM   14 CL   LIG     1      29.319  25.628  16.076  1.00  0.00    -0.083 Cl
HETATM   15 CL   LIG     1      28.397  27.625  18.440  1.00  0.00    -0.083 Cl
HETATM   16  C   LIG     1      27.169  25.441  19.513  1.00  0.00     0.038 A 
ENDBRANCH   8   9
TORSDOF 1
ENDMDL
MODEL 10
REMARK VINA RESULT:      -5.2     15.062     16.113
REMARK  1 active torsions:
REMARK  status: ('A' for Active; 'I' for Inactive)
REMARK    1  A    between atoms: C_8  and  C_9 
ROOT
HETATM    1 CL   LIG     1      23.395  22.089  18.393  1.00  0.00    -0.083 Cl
HETATM    2  C   LIG     1      23.827  22.182  20.098  1.00  0.00     0.045 A 
HETATM    3  C   LIG     1      22.957  21.608  21.033  1.00  0.00     0.026 A 
HETATM    4  C   LIG     1      23.226  21.703  22.400  1.00  0.00     0.025 A 
HETATM    5  C   LIG     1      24.363  22.380  22.844  1.00  0.00     0.035 A 
HETATM    6 CL   LIG     1      24.696  22.504  24.562  1.00  0.00    -0.084 Cl
HETATM    7  C   LIG     1      25.238  22.958  21.919  1.00  0.00     0.037 A 
HETATM    8  C   LIG     1      24.986  22.859  20.539  1.00  0.00    -0.003 A 
ENDROOT
BRANCH   8   9
HETATM    9  C   LIG     1      25.941  23.469  19.588  1.00  0.00    -0.022 A 
HETATM   10  C   LIG     1      26.053  24.866  19.486  1.00  0.00     0.014 A 
HETATM   11  C   LIG     1      26.944  25.437  18.574  1.00  0.00     0.026 A 
HETATM   12  C   LIG     1      27.727  24.623  17.747  1.00  0.00     0.055 A 
HETATM   13  C   LIG     1      27.612  23.226  17.834  1.00  0.00     0.056 A 
HETATM   14 CL   LIG     1      28.836  25.380  16.612  1.00  0.00    -0.083 Cl
HETATM   15 CL   LIG     1      28.572  22.168  16.809  1.00  0.00    -0.083 Cl
HETATM   16  C   LIG     1      26.719  22.655  18.748  1.00  0.00     0.038 A 
ENDBRANCH   8   9
TORSDOF 1
ENDMDL
MODEL 11
REMARK VINA RESULT:      -5.2     15.414     16.530
REMARK  1 active torsions:
REMARK  status: ('A' for Active; 'I' for Inactive)
REMARK    1  A    between atoms: C_8  and  C_9 
ROOT
HETATM    1 CL   LIG     1      27.980  21.724  17.373  1.00  0.00    -0.083 Cl
HETATM    2  C   LIG     1      28.152  23.466  17.557  1.00  0.00     0.045 A 
HETATM    3  C   LIG     1      29.183  24.106  16.860  1.00  0.00     0.026 A 
HETATM    4  C   LIG     1      29.397  25.478  17.015  1.00  0.00     0.025 A 
HETATM    5  C   LIG     1      28.584  26.219  17.873  1.00  0.00     0.035 A 
HETATM    6 CL   LIG     1      28.858  27.942  18.072  1.00  0.00    -0.084 Cl
HETATM    7  C   LIG     1      27.551  25.591  18.575  1.00  0.00     0.037 A 
HETATM    8  C   LIG     1      27.318  24.213  18.419  1.00  0.00    -0.003 A 
ENDROOT
BRANCH   8   9
HETATM    9  C   LIG     1      26.206  23.582  19.166  1.00  0.00    -0.022 A 
HETATM   10  C   LIG     1      26.187  23.604  20.570  1.00  0.00     0.014 A 
HETATM   11  C   LIG     1      25.145  22.992  21.270  1.00  0.00     0.026 A 
HETATM   12  C   LIG     1      24.114  22.345  20.579  1.00  0.00     0.055 A 
HETATM   13  C   LIG     1      24.132  22.308  19.175  1.00  0.00     0.056 A 
HETATM   14 CL   LIG     1      22.819  21.586  21.497  1.00  0.00    -0.083 Cl
HETATM   15 CL   LIG     1      22.861  21.499  18.269  1.00  0.00    -0.083 Cl
HETATM   16  C   LIG     1      25.178  22.921  18.475  1.00  0.00     0.038 A 
ENDBRANCH   8   9
TORSDOF 1
ENDMDL
MODEL 12
REMARK VINA RESULT:      -5.2     15.072     16.993
REMARK  1 active torsions:
REMARK  status: ('A' for Active; 'I' for Inactive)
REMARK    1  A    between atoms: C_8  and  C_9 
ROOT
HETATM    1 CL   LIG     1      21.767  23.106  21.314  1.00  0.00    -0.083 Cl
HETATM    2  C   LIG     1      22.918  22.007  20.560  1.00  0.00     0.045 A 
HETATM    3  C   LIG     1      22.863  21.842  19.171  1.00  0.00     0.026 A 
HETATM    4  C   LIG     1      23.717  20.941  18.531  1.00  0.00     0.025 A 
HETATM    5  C   LIG     1      24.629  20.192  19.277  1.00  0.00     0.035 A 
HETATM    6 CL   LIG     1      25.697  19.056  18.472  1.00  0.00    -0.084 Cl
HETATM    7  C   LIG     1      24.693  20.348  20.665  1.00  0.00     0.037 A 
HETATM    8  C   LIG     1      23.847  21.261  21.320  1.00  0.00    -0.003 A 
ENDROOT
BRANCH   8   9
HETATM    9  C   LIG     1      23.952  21.412  22.788  1.00  0.00    -0.022 A 
HETATM   10  C   LIG     1      23.222  20.573  23.646  1.00  0.00     0.014 A 
HETATM   11  C   LIG     1      23.311  20.731  25.031  1.00  0.00     0.026 A 
HETATM   12  C   LIG     1      24.122  21.733  25.577  1.00  0.00     0.055 A 
HETATM   13  C   LIG     1      24.845  22.584  24.726  1.00  0.00     0.056 A 
HETATM   14 CL   LIG     1      24.207  21.900  27.325  1.00  0.00    -0.083 Cl
HETATM   15 CL   LIG     1      25.869  23.860  25.371  1.00  0.00    -0.083 Cl
HETATM   16  C   LIG     1      24.754  22.425  23.339  1.00  0.00     0.038 A 
ENDBRANCH   8   9
TORSDOF 1
ENDMDL
MODEL 13
REMARK VINA RESULT:      -5.0     15.101     16.922
REMARK  1 active torsions:
REMARK  status: ('A' for Active; 'I' for Inactive)
REMARK    1  A    between atoms: C_8  and  C_9 
ROOT
HETATM    1 CL   LIG     1      21.871  23.320  21.408  1.00  0.00    -0.083 Cl
HETATM    2  C   LIG     1      22.922  22.107  20.684  1.00  0.00     0.045 A 
HETATM    3  C   LIG     1      22.782  21.842  19.316  1.00  0.00     0.026 A 
HETATM    4  C   LIG     1      23.553  20.851  18.706  1.00  0.00     0.025 A 
HETATM    5  C   LIG     1      24.466  20.111  19.459  1.00  0.00     0.035 A 
HETATM    6 CL   LIG     1      25.429  18.861  18.692  1.00  0.00    -0.084 Cl
HETATM    7  C   LIG     1      24.613  20.366  20.826  1.00  0.00     0.037 A 
HETATM    8  C   LIG     1      23.852  21.370  21.451  1.00  0.00    -0.003 A 
ENDROOT
BRANCH   8   9
HETATM    9  C   LIG     1      24.044  21.624  22.897  1.00  0.00    -0.022 A 
HETATM   10  C   LIG     1      24.932  22.619  23.334  1.00  0.00     0.014 A 
HETATM   11  C   LIG     1      25.122  22.843  24.700  1.00  0.00     0.026 A 
HETATM   12  C   LIG     1      24.436  22.072  25.645  1.00  0.00     0.055 A 
HETATM   13  C   LIG     1      23.555  21.066  25.215  1.00  0.00     0.056 A 
HETATM   14 CL   LIG     1      24.702  22.384  27.355  1.00  0.00    -0.083 Cl
HETATM   15 CL   LIG     1      22.678  20.070  26.369  1.00  0.00    -0.083 Cl
HETATM   16  C   LIG     1      23.366  20.842  23.847  1.00  0.00     0.038 A 
ENDBRANCH   8   9
TORSDOF 1
ENDMDL
MODEL 14
REMARK VINA RESULT:      -5.0     15.127     16.480
REMARK  1 active torsions:
REMARK  status: ('A' for Active; 'I' for Inactive)
REMARK    1  A    between atoms: C_8  and  C_9 
ROOT
HETATM    1 CL   LIG     1      26.184  23.193  21.997  1.00  0.00    -0.083 Cl
HETATM    2  C   LIG     1      25.126  22.524  20.759  1.00  0.00     0.045 A 
HETATM    3  C   LIG     1      24.176  21.571  21.144  1.00  0.00     0.026 A 
HETATM    4  C   LIG     1      23.350  20.970  20.192  1.00  0.00     0.025 A 
HETATM    5  C   LIG     1      23.473  21.311  18.845  1.00  0.00     0.035 A 
HETATM    6 CL   LIG     1      22.439  20.550  17.648  1.00  0.00    -0.084 Cl
HETATM    7  C   LIG     1      24.419  22.261  18.447  1.00  0.00     0.037 A 
HETATM    8  C   LIG     1      25.248  22.884  19.398  1.00  0.00    -0.003 A 
ENDROOT
BRANCH   8   9
HETATM    9  C   LIG     1      26.228  23.896  18.944  1.00  0.00    -0.022 A 
HETATM   10  C   LIG     1      26.186  25.206  19.448  1.00  0.00     0.014 A 
HETATM   11  C   LIG     1      27.103  26.162  19.005  1.00  0.00     0.026 A 
HETATM   12  C   LIG     1      28.067  25.825  18.047  1.00  0.00     0.055 A 
HETATM   13  C   LIG     1      28.108  24.520  17.529  1.00  0.00     0.056 A 
HETATM   14 CL   LIG     1      29.203  27.057  17.513  1.00  0.00    -0.083 Cl
HETATM   15 CL   LIG     1      29.298  24.058  16.320  1.00  0.00    -0.083 Cl
HETATM   16  C   LIG     1      27.188  23.564  17.974  1.00  0.00     0.038 A 
ENDBRANCH   8   9
TORSDOF 1
ENDMDL
MODEL 15
REMARK VINA RESULT:      -5.0     15.179     16.147
REMARK  1 active torsions:
REMARK  status: ('A' for Active; 'I' for Inactive)
REMARK    1  A    between atoms: C_8  and  C_9 
ROOT
HETATM    1 CL   LIG     1      28.534  22.713  21.651  1.00  0.00    -0.083 Cl
HETATM    2  C   LIG     1      28.572  24.126  20.601  1.00  0.00     0.045 A 
HETATM    3  C   LIG     1      29.657  25.004  20.712  1.00  0.00     0.026 A 
HETATM    4  C   LIG     1      29.707  26.168  19.942  1.00  0.00     0.025 A 
HETATM    5  C   LIG     1      28.669  26.467  19.058  1.00  0.00     0.035 A 
HETATM    6 CL   LIG     1      28.731  27.933  18.095  1.00  0.00    -0.084 Cl
HETATM    7  C   LIG     1      27.580  25.598  18.939  1.00  0.00     0.037 A 
HETATM    8  C   LIG     1      27.523  24.417  19.699  1.00  0.00    -0.003 A 
ENDROOT
BRANCH   8   9
HETATM    9  C   LIG     1      26.363  23.512  19.537  1.00  0.00    -0.022 A 
HETATM   10  C   LIG     1      26.272  22.661  18.424  1.00  0.00     0.014 A 
HETATM   11  C   LIG     1      25.167  21.821  18.267  1.00  0.00     0.026 A 
HETATM   12  C   LIG     1      24.135  21.826  19.214  1.00  0.00     0.055 A 
HETATM   13  C   LIG     1      24.213  22.683  20.324  1.00  0.00     0.056 A 
HETATM   14 CL   LIG     1      22.760  20.755  18.981  1.00  0.00    -0.083 Cl
HETATM   15 CL   LIG     1      22.937  22.725  21.532  1.00  0.00    -0.083 Cl
HETATM   16  C   LIG     1      25.321  23.524  20.479  1.00  0.00     0.038 A 
ENDBRANCH   8   9
TORSDOF 1
ENDMDL
MODEL 16
REMARK VINA RESULT:      -4.8      2.618      6.630
REMARK  1 active torsions:
REMARK  status: ('A' for Active; 'I' for Inactive)
REMARK    1  A    between atoms: C_8  and  C_9 
ROOT
HETATM    1 CL   LIG     1      14.493  32.622  21.574  1.00  0.00    -0.083 Cl
HETATM    2  C   LIG     1      14.817  32.849  19.859  1.00  0.00     0.045 A 
HETATM    3  C   LIG     1      14.474  31.815  18.979  1.00  0.00     0.026 A 
HETATM    4  C   LIG     1      14.760  31.922  17.616  1.00  0.00     0.025 A 
HETATM    5  C   LIG     1      15.399  33.061  17.123  1.00  0.00     0.035 A 
HETATM    6 CL   LIG     1      15.765  33.191  15.411  1.00  0.00    -0.084 Cl
HETATM    7  C   LIG     1      15.748  34.099  17.992  1.00  0.00     0.037 A 
HETATM    8  C   LIG     1      15.454  34.009  19.365  1.00  0.00    -0.003 A 
ENDROOT
BRANCH   8   9
HETATM    9  C   LIG     1      15.823  35.133  20.254  1.00  0.00    -0.022 A 
HETATM   10  C   LIG     1      14.962  35.538  21.288  1.00  0.00     0.014 A 
HETATM   11  C   LIG     1      15.308  36.610  22.114  1.00  0.00     0.026 A 
HETATM   12  C   LIG     1      16.512  37.296  21.914  1.00  0.00     0.055 A 
HETATM   13  C   LIG     1      17.372  36.906  20.875  1.00  0.00     0.056 A 
HETATM   14 CL   LIG     1      16.911  38.641  22.975  1.00  0.00    -0.083 Cl
HETATM   15 CL   LIG     1      18.890  37.745  20.586  1.00  0.00    -0.083 Cl
HETATM   16  C   LIG     1      17.024  35.832  20.048  1.00  0.00     0.038 A 
ENDBRANCH   8   9
TORSDOF 1
ENDMDL
MODEL 17
REMARK VINA RESULT:      -4.8     15.160     16.581
REMARK  1 active torsions:
REMARK  status: ('A' for Active; 'I' for Inactive)
REMARK    1  A    between atoms: C_8  and  C_9 
ROOT
HETATM    1 CL   LIG     1      26.992  21.398  18.005  1.00  0.00    -0.083 Cl
HETATM    2  C   LIG     1      25.605  21.801  19.013  1.00  0.00     0.045 A 
HETATM    3  C   LIG     1      24.451  21.018  18.894  1.00  0.00     0.026 A 
HETATM    4  C   LIG     1      23.306  21.330  19.630  1.00  0.00     0.025 A 
HETATM    5  C   LIG     1      23.302  22.432  20.485  1.00  0.00     0.035 A 
HETATM    6 CL   LIG     1      21.860  22.827  21.404  1.00  0.00    -0.084 Cl
HETATM    7  C   LIG     1      24.449  23.223  20.611  1.00  0.00     0.037 A 
HETATM    8  C   LIG     1      25.613  22.912  19.885  1.00  0.00    -0.003 A 
ENDROOT
BRANCH   8   9
HETATM    9  C   LIG     1      26.814  23.761  20.054  1.00  0.00    -0.022 A 
HETATM   10  C   LIG     1      27.838  23.382  20.936  1.00  0.00     0.014 A 
HETATM   11  C   LIG     1      28.961  24.195  21.104  1.00  0.00     0.026 A 
HETATM   12  C   LIG     1      29.072  25.400  20.402  1.00  0.00     0.055 A 
HETATM   13  C   LIG     1      28.046  25.793  19.526  1.00  0.00     0.056 A 
HETATM   14 CL   LIG     1      30.501  26.397  20.641  1.00  0.00    -0.083 Cl
HETATM   15 CL   LIG     1      28.143  27.303  18.630  1.00  0.00    -0.083 Cl
HETATM   16  C   LIG     1      26.921  24.978  19.360  1.00  0.00     0.038 A 
ENDBRANCH   8   9
TORSDOF 1
ENDMDL
MODEL 18
REMARK VINA RESULT:      -4.7     15.395     16.379
REMARK  1 active torsions:
REMARK  status: ('A' for Active; 'I' for Inactive)
REMARK    1  A    between atoms: C_8  and  C_9 
ROOT
HETATM    1 CL   LIG     1      27.824  22.562  21.952  1.00  0.00    -0.083 Cl
HETATM    2  C   LIG     1      27.990  23.934  20.861  1.00  0.00     0.045 A 
HETATM    3  C   LIG     1      28.999  24.868  21.121  1.00  0.00     0.026 A 
HETATM    4  C   LIG     1      29.138  26.002  20.319  1.00  0.00     0.025 A 
HETATM    5  C   LIG     1      28.263  26.216  19.253  1.00  0.00     0.035 A 
HETATM    6 CL   LIG     1      28.434  27.645  18.249  1.00  0.00    -0.084 Cl
HETATM    7  C   LIG     1      27.250  25.290  18.983  1.00  0.00     0.037 A 
HETATM    8  C   LIG     1      27.108  24.137  19.776  1.00  0.00    -0.003 A 
ENDROOT
BRANCH   8   9
HETATM    9  C   LIG     1      26.034  23.171  19.454  1.00  0.00    -0.022 A 
HETATM   10  C   LIG     1      24.848  23.145  20.205  1.00  0.00     0.014 A 
HETATM   11  C   LIG     1      23.845  22.219  19.907  1.00  0.00     0.026 A 
HETATM   12  C   LIG     1      24.017  21.303  18.863  1.00  0.00     0.055 A 
HETATM   13  C   LIG     1      25.205  21.314  18.115  1.00  0.00     0.056 A 
HETATM   14 CL   LIG     1      22.731  20.153  18.520  1.00  0.00    -0.083 Cl
HETATM   15 CL   LIG     1      25.464  20.175  16.800  1.00  0.00    -0.083 Cl
HETATM   16  C   LIG     1      26.209  22.241  18.415  1.00  0.00     0.038 A 
ENDBRANCH   8   9
TORSDOF 1
ENDMDL
MODEL 19
REMARK VINA RESULT:      -4.6     14.820     16.816
REMARK  1 active torsions:
REMARK  status: ('A' for Active; 'I' for Inactive)
REMARK    1  A    between atoms: C_8  and  C_9 
ROOT
HETATM    1 CL   LIG     1      28.059  23.147  22.938  1.00  0.00    -0.083 Cl
HETATM    2  C   LIG     1      26.359  23.007  22.502  1.00  0.00     0.045 A 
HETATM    3  C   LIG     1      26.006  23.160  21.156  1.00  0.00     0.026 A 
HETATM    4  C   LIG     1      24.666  23.114  20.766  1.00  0.00     0.025 A 
HETATM    5  C   LIG     1      23.666  22.922  21.721  1.00  0.00     0.035 A 
HETATM    6 CL   LIG     1      21.982  22.871  21.230  1.00  0.00    -0.084 Cl
HETATM    7  C   LIG     1      24.006  22.770  23.068  1.00  0.00     0.037 A 
HETATM    8  C   LIG     1      25.353  22.801  23.473  1.00  0.00    -0.003 A 
ENDROOT
BRANCH   8   9
HETATM    9  C   LIG     1      25.678  22.622  24.905  1.00  0.00    -0.022 A 
HETATM   10  C   LIG     1      25.754  21.335  25.464  1.00  0.00     0.014 A 
HETATM   11  C   LIG     1      26.045  21.172  26.820  1.00  0.00     0.026 A 
HETATM   12  C   LIG     1      26.255  22.289  27.637  1.00  0.00     0.055 A 
HETATM   13  C   LIG     1      26.169  23.579  27.089  1.00  0.00     0.056 A 
HETATM   14 CL   LIG     1      26.619  22.042  29.340  1.00  0.00    -0.083 Cl
HETATM   15 CL   LIG     1      26.419  25.009  28.082  1.00  0.00    -0.083 Cl
HETATM   16  C   LIG     1      25.877  23.741  25.730  1.00  0.00     0.038 A 
ENDBRANCH   8   9
TORSDOF 1
ENDMDL
MODEL 20
REMARK VINA RESULT:      -4.6     16.764     18.546
REMARK  1 active torsions:
REMARK  status: ('A' for Active; 'I' for Inactive)
REMARK    1  A    between atoms: C_8  and  C_9 
ROOT
HETATM    1 CL   LIG     1      18.787  18.623  33.872  1.00  0.00    -0.083 Cl
HETATM    2  C   LIG     1      19.598  20.095  34.394  1.00  0.00     0.045 A 
HETATM    3  C   LIG     1      19.636  20.380  35.764  1.00  0.00     0.026 A 
HETATM    4  C   LIG     1      20.219  21.562  36.225  1.00  0.00     0.025 A 
HETATM    5  C   LIG     1      20.762  22.474  35.319  1.00  0.00     0.035 A 
HETATM    6 CL   LIG     1      21.488  23.962  35.900  1.00  0.00    -0.084 Cl
HETATM    7  C   LIG     1      20.730  22.201  33.948  1.00  0.00     0.037 A 
HETATM    8  C   LIG     1      20.157  21.008  33.472  1.00  0.00    -0.003 A 
ENDROOT
BRANCH   8   9
HETATM    9  C   LIG     1      20.153  20.744  32.015  1.00  0.00    -0.022 A 
HETATM   10  C   LIG     1      19.348  21.507  31.154  1.00  0.00     0.014 A 
HETATM   11  C   LIG     1      19.335  21.242  29.782  1.00  0.00     0.026 A 
HETATM   12  C   LIG     1      20.117  20.209  29.255  1.00  0.00     0.055 A 
HETATM   13  C   LIG     1      20.916  19.433  30.111  1.00  0.00     0.056 A 
HETATM   14 CL   LIG     1      20.073  19.906  27.523  1.00  0.00    -0.083 Cl
HETATM   15 CL   LIG     1      21.909  18.122  29.490  1.00  0.00    -0.083 Cl
HETATM   16  C   LIG     1      20.928  19.699  31.485  1.00  0.00     0.038 A 
ENDBRANCH   8   9
TORSDOF 1
ENDMDL
