REMARK  1 active torsions:
REMARK  status: ('A' for Active; 'I' for Inactive)
REMARK    1  A    between atoms: C_8  and  C_9 
ROOT
HETATM    1 CL   LIG     1       0.777  -2.490   1.322  1.00  0.00    -0.083 Cl
HETATM    2  C   LIG     1       1.530  -1.023   0.705  1.00  0.00     0.045 A 
HETATM    3  C   LIG     1       2.913  -0.873   0.862  1.00  0.00     0.026 A 
HETATM    4  C   LIG     1       3.550   0.296   0.440  1.00  0.00     0.025 A 
HETATM    5  C   LIG     1       2.808   1.328  -0.136  1.00  0.00     0.035 A 
HETATM    6 CL   LIG     1       3.609   2.799  -0.660  1.00  0.00    -0.084 Cl
HETATM    7  C   LIG     1       1.426   1.190  -0.297  1.00  0.00     0.037 A 
HETATM    8  C   LIG     1       0.774   0.013   0.112  1.00  0.00    -0.003 A 
ENDROOT
BRANCH   8   9
HETATM    9  C   LIG     1      -0.688  -0.106  -0.087  1.00  0.00    -0.022 A 
HETATM   10  C   LIG     1      -1.222  -1.165  -0.839  1.00  0.00     0.014 A 
HETATM   11  C   LIG     1      -2.601  -1.263  -1.038  1.00  0.00     0.026 A 
HETATM   12  C   LIG     1      -3.463  -0.302  -0.497  1.00  0.00     0.055 A 
HETATM   13  C   LIG     1      -2.936   0.767   0.246  1.00  0.00     0.056 A 
HETATM   14 CL   LIG     1      -5.193  -0.460  -0.770  1.00  0.00    -0.083 Cl
HETATM   15 CL   LIG     1      -3.983   1.999   0.937  1.00  0.00    -0.083 Cl
HETATM   16  C   LIG     1      -1.554   0.864   0.444  1.00  0.00     0.038 A 
ENDBRANCH   8   9
TORSDOF 1
