REMARK  1 active torsions:
REMARK  status: ('A' for Active; 'I' for Inactive)
REMARK    1  A    between atoms: C_5  and  C_6 
ROOT
HETATM    1 CL   LIG     1       5.325   0.231  -0.031  1.00  0.00    -0.084 Cl
HETATM    2  C   LIG     1       3.572   0.162  -0.033  1.00  0.00     0.035 A 
HETATM    3  C   LIG     1       2.922  -1.069  -0.148  1.00  0.00     0.025 A 
HETATM    4  C   LIG     1       1.526  -1.127  -0.151  1.00  0.00     0.015 A 
HETATM    5  C   LIG     1       0.763   0.047  -0.034  1.00  0.00    -0.004 A 
HETATM    6  C   LIG     1       1.425   1.292   0.070  1.00  0.00     0.046 A 
HETATM    7 CL   LIG     1       0.542   2.814   0.133  1.00  0.00    -0.083 Cl
HETATM    8  C   LIG     1       2.825   1.338   0.072  1.00  0.00     0.048 A 
ENDROOT
BRANCH   5   9
HETATM    9  C   LIG     1      -0.714  -0.052  -0.025  1.00  0.00    -0.023 A 
HETATM   10  C   LIG     1      -1.384  -0.689  -1.081  1.00  0.00     0.014 A 
HETATM   11  C   LIG     1      -2.777  -0.797  -1.069  1.00  0.00     0.026 A 
HETATM   12  C   LIG     1      -3.516  -0.280   0.000  1.00  0.00     0.055 A 
HETATM   13  C   LIG     1      -2.853   0.347   1.068  1.00  0.00     0.056 A 
HETATM   14 CL   LIG     1      -5.268  -0.436  -0.021  1.00  0.00    -0.083 Cl
HETATM   15 CL   LIG     1      -3.743   1.001   2.436  1.00  0.00    -0.083 Cl
HETATM   16  C   LIG     1      -1.457   0.455   1.054  1.00  0.00     0.038 A 
ENDBRANCH   5   9
TORSDOF 1
