MODEL 1
REMARK VINA RESULT:      -6.4      0.000      0.000
REMARK  1 active torsions:
REMARK  status: ('A' for Active; 'I' for Inactive)
REMARK    1  A    between atoms: C_5  and  C_6 
ROOT
HETATM    1 CL   LIG     1      18.584  39.145  22.475  1.00  0.00    -0.084 Cl
HETATM    2  C   LIG     1      17.793  37.830  21.625  1.00  0.00     0.035 A 
HETATM    3  C   LIG     1      18.407  37.247  20.514  1.00  0.00     0.025 A 
HETATM    4  C   LIG     1      17.779  36.200  19.834  1.00  0.00     0.015 A 
HETATM    5  C   LIG     1      16.530  35.720  20.262  1.00  0.00    -0.004 A 
HETATM    6  C   LIG     1      15.906  36.321  21.380  1.00  0.00     0.046 A 
HETATM    7 CL   LIG     1      14.304  35.836  21.925  1.00  0.00    -0.083 Cl
HETATM    8  C   LIG     1      16.545  37.370  22.053  1.00  0.00     0.048 A 
ENDROOT
BRANCH   5   9
HETATM    9  C   LIG     1      15.899  34.600  19.528  1.00  0.00    -0.023 A 
HETATM   10  C   LIG     1      15.532  34.756  18.183  1.00  0.00     0.014 A 
HETATM   11  C   LIG     1      14.950  33.696  17.483  1.00  0.00     0.026 A 
HETATM   12  C   LIG     1      14.736  32.466  18.114  1.00  0.00     0.055 A 
HETATM   13  C   LIG     1      15.114  32.296  19.457  1.00  0.00     0.056 A 
HETATM   14 CL   LIG     1      14.002  31.155  17.200  1.00  0.00    -0.083 Cl
HETATM   15 CL   LIG     1      14.873  30.763  20.284  1.00  0.00    -0.083 Cl
HETATM   16  C   LIG     1      15.696  33.360  20.156  1.00  0.00     0.038 A 
ENDBRANCH   5   9
TORSDOF 1
ENDMDL
MODEL 2
REMARK VINA RESULT:      -6.4      4.340      5.681
REMARK  1 active torsions:
REMARK  status: ('A' for Active; 'I' for Inactive)
REMARK    1  A    between atoms: C_5  and  C_6 
ROOT
HETATM    1 CL   LIG     1      19.290  39.553  17.018  1.00  0.00    -0.084 Cl
HETATM    2  C   LIG     1      18.846  38.772  18.524  1.00  0.00     0.035 A 
HETATM    3  C   LIG     1      18.632  37.392  18.558  1.00  0.00     0.025 A 
HETATM    4  C   LIG     1      18.276  36.767  19.757  1.00  0.00     0.015 A 
HETATM    5  C   LIG     1      18.136  37.516  20.937  1.00  0.00    -0.004 A 
HETATM    6  C   LIG     1      18.341  38.914  20.895  1.00  0.00     0.046 A 
HETATM    7 CL   LIG     1      18.100  39.934  22.310  1.00  0.00    -0.083 Cl
HETATM    8  C   LIG     1      18.697  39.530  19.689  1.00  0.00     0.048 A 
ENDROOT
BRANCH   5   9
HETATM    9  C   LIG     1      17.773  36.820  22.192  1.00  0.00    -0.023 A 
HETATM   10  C   LIG     1      17.398  35.468  22.165  1.00  0.00     0.014 A 
HETATM   11  C   LIG     1      17.069  34.804  23.350  1.00  0.00     0.026 A 
HETATM   12  C   LIG     1      17.121  35.477  24.575  1.00  0.00     0.055 A 
HETATM   13  C   LIG     1      17.509  36.827  24.613  1.00  0.00     0.056 A 
HETATM   14 CL   LIG     1      16.700  34.607  26.044  1.00  0.00    -0.083 Cl
HETATM   15 CL   LIG     1      17.597  37.707  26.132  1.00  0.00    -0.083 Cl
HETATM   16  C   LIG     1      17.837  37.491  23.425  1.00  0.00     0.038 A 
ENDBRANCH   5   9
TORSDOF 1
ENDMDL
MODEL 3
REMARK VINA RESULT:      -6.2      2.657      6.312
REMARK  1 active torsions:
REMARK  status: ('A' for Active; 'I' for Inactive)
REMARK    1  A    between atoms: C_5  and  C_6 
ROOT
HETATM    1 CL   LIG     1      14.902  32.928  17.649  1.00  0.00    -0.084 Cl
HETATM    2  C   LIG     1      15.390  33.771  19.108  1.00  0.00     0.035 A 
HETATM    3  C   LIG     1      14.895  33.362  20.349  1.00  0.00     0.025 A 
HETATM    4  C   LIG     1      15.281  34.032  21.513  1.00  0.00     0.015 A 
HETATM    5  C   LIG     1      16.171  35.117  21.449  1.00  0.00    -0.004 A 
HETATM    6  C   LIG     1      16.660  35.535  20.190  1.00  0.00     0.046 A 
HETATM    7 CL   LIG     1      17.710  36.938  20.018  1.00  0.00    -0.083 Cl
HETATM    8  C   LIG     1      16.267  34.856  19.030  1.00  0.00     0.048 A 
ENDROOT
BRANCH   5   9
HETATM    9  C   LIG     1      16.571  35.795  22.703  1.00  0.00    -0.023 A 
HETATM   10  C   LIG     1      16.369  37.175  22.854  1.00  0.00     0.014 A 
HETATM   11  C   LIG     1      16.732  37.816  24.041  1.00  0.00     0.026 A 
HETATM   12  C   LIG     1      17.291  37.085  25.095  1.00  0.00     0.055 A 
HETATM   13  C   LIG     1      17.484  35.701  24.958  1.00  0.00     0.056 A 
HETATM   14 CL   LIG     1      17.734  37.928  26.574  1.00  0.00    -0.083 Cl
HETATM   15 CL   LIG     1      18.174  34.744  26.262  1.00  0.00    -0.083 Cl
HETATM   16  C   LIG     1      17.120  35.061  23.767  1.00  0.00     0.038 A 
ENDBRANCH   5   9
TORSDOF 1
ENDMDL
MODEL 4
REMARK VINA RESULT:      -6.1      4.897      7.720
REMARK  1 active torsions:
REMARK  status: ('A' for Active; 'I' for Inactive)
REMARK    1  A    between atoms: C_5  and  C_6 
ROOT
HETATM    1 CL   LIG     1      15.315  34.431  17.980  1.00  0.00    -0.084 Cl
HETATM    2  C   LIG     1      14.957  33.035  16.980  1.00  0.00     0.035 A 
HETATM    3  C   LIG     1      14.069  32.058  17.436  1.00  0.00     0.025 A 
HETATM    4  C   LIG     1      13.783  30.945  16.642  1.00  0.00     0.015 A 
HETATM    5  C   LIG     1      14.379  30.798  15.379  1.00  0.00    -0.004 A 
HETATM    6  C   LIG     1      15.287  31.783  14.926  1.00  0.00     0.046 A 
HETATM    7 CL   LIG     1      16.141  31.628  13.394  1.00  0.00    -0.083 Cl
HETATM    8  C   LIG     1      15.566  32.895  15.730  1.00  0.00     0.048 A 
ENDROOT
BRANCH   5   9
HETATM    9  C   LIG     1      14.042  29.614  14.557  1.00  0.00    -0.023 A 
HETATM   10  C   LIG     1      15.044  28.700  14.193  1.00  0.00     0.014 A 
HETATM   11  C   LIG     1      14.727  27.574  13.429  1.00  0.00     0.026 A 
HETATM   12  C   LIG     1      13.407  27.341  13.029  1.00  0.00     0.055 A 
HETATM   13  C   LIG     1      12.396  28.242  13.400  1.00  0.00     0.056 A 
HETATM   14 CL   LIG     1      13.048  25.911  12.069  1.00  0.00    -0.083 Cl
HETATM   15 CL   LIG     1      10.723  27.981  12.927  1.00  0.00    -0.083 Cl
HETATM   16  C   LIG     1      12.715  29.371  14.165  1.00  0.00     0.038 A 
ENDBRANCH   5   9
TORSDOF 1
ENDMDL
MODEL 5
REMARK VINA RESULT:      -6.0      4.952      7.716
REMARK  1 active torsions:
REMARK  status: ('A' for Active; 'I' for Inactive)
REMARK    1  A    between atoms: C_5  and  C_6 
ROOT
HETATM    1 CL   LIG     1      15.313  34.439  17.955  1.00  0.00    -0.084 Cl
HETATM    2  C   LIG     1      14.974  33.030  16.965  1.00  0.00     0.035 A 
HETATM    3  C   LIG     1      14.102  32.043  17.431  1.00  0.00     0.025 A 
HETATM    4  C   LIG     1      13.831  30.920  16.645  1.00  0.00     0.015 A 
HETATM    5  C   LIG     1      14.427  30.773  15.381  1.00  0.00    -0.004 A 
HETATM    6  C   LIG     1      15.319  31.768  14.919  1.00  0.00     0.046 A 
HETATM    7 CL   LIG     1      16.172  31.616  13.387  1.00  0.00    -0.083 Cl
HETATM    8  C   LIG     1      15.583  32.890  15.715  1.00  0.00     0.048 A 
ENDROOT
BRANCH   5   9
HETATM    9  C   LIG     1      14.106  29.578  14.569  1.00  0.00    -0.023 A 
HETATM   10  C   LIG     1      12.770  29.190  14.383  1.00  0.00     0.014 A 
HETATM   11  C   LIG     1      12.463  28.071  13.605  1.00  0.00     0.026 A 
HETATM   12  C   LIG     1      13.483  27.332  12.996  1.00  0.00     0.055 A 
HETATM   13  C   LIG     1      14.822  27.721  13.165  1.00  0.00     0.056 A 
HETATM   14 CL   LIG     1      13.055  25.930  12.024  1.00  0.00    -0.083 Cl
HETATM   15 CL   LIG     1      16.133  26.827  12.409  1.00  0.00    -0.083 Cl
HETATM   16  C   LIG     1      15.128  28.843  13.946  1.00  0.00     0.038 A 
ENDBRANCH   5   9
TORSDOF 1
ENDMDL
MODEL 6
REMARK VINA RESULT:      -5.8      2.836      4.712
REMARK  1 active torsions:
REMARK  status: ('A' for Active; 'I' for Inactive)
REMARK    1  A    between atoms: C_5  and  C_6 
ROOT
HETATM    1 CL   LIG     1      16.307  35.245  21.684  1.00  0.00    -0.084 Cl
HETATM    2  C   LIG     1      15.753  34.245  20.353  1.00  0.00     0.035 A 
HETATM    3  C   LIG     1      15.321  32.938  20.595  1.00  0.00     0.025 A 
HETATM    4  C   LIG     1      14.881  32.139  19.538  1.00  0.00     0.015 A 
HETATM    5  C   LIG     1      14.863  32.638  18.225  1.00  0.00    -0.004 A 
HETATM    6  C   LIG     1      15.312  33.957  17.983  1.00  0.00     0.046 A 
HETATM    7 CL   LIG     1      15.403  34.626  16.357  1.00  0.00    -0.083 Cl
HETATM    8  C   LIG     1      15.752  34.750  19.051  1.00  0.00     0.048 A 
ENDROOT
BRANCH   5   9
HETATM    9  C   LIG     1      14.375  31.769  17.130  1.00  0.00    -0.023 A 
HETATM   10  C   LIG     1      13.113  31.163  17.221  1.00  0.00     0.014 A 
HETATM   11  C   LIG     1      12.643  30.354  16.183  1.00  0.00     0.026 A 
HETATM   12  C   LIG     1      13.423  30.148  15.040  1.00  0.00     0.055 A 
HETATM   13  C   LIG     1      14.682  30.762  14.935  1.00  0.00     0.056 A 
HETATM   14 CL   LIG     1      12.797  29.123  13.755  1.00  0.00    -0.083 Cl
HETATM   15 CL   LIG     1      15.689  30.538  13.511  1.00  0.00    -0.083 Cl
HETATM   16  C   LIG     1      15.151  31.572  15.976  1.00  0.00     0.038 A 
ENDBRANCH   5   9
TORSDOF 1
ENDMDL
MODEL 7
REMARK VINA RESULT:      -5.6      5.983      8.418
REMARK  1 active torsions:
REMARK  status: ('A' for Active; 'I' for Inactive)
REMARK    1  A    between atoms: C_5  and  C_6 
ROOT
HETATM    1 CL   LIG     1      13.758  30.986  16.654  1.00  0.00    -0.084 Cl
HETATM    2  C   LIG     1      14.963  31.737  15.625  1.00  0.00     0.035 A 
HETATM    3  C   LIG     1      15.355  31.113  14.438  1.00  0.00     0.025 A 
HETATM    4  C   LIG     1      16.316  31.708  13.617  1.00  0.00     0.015 A 
HETATM    5  C   LIG     1      16.893  32.939  13.971  1.00  0.00    -0.004 A 
HETATM    6  C   LIG     1      16.503  33.562  15.179  1.00  0.00     0.046 A 
HETATM    7 CL   LIG     1      17.241  35.060  15.735  1.00  0.00    -0.083 Cl
HETATM    8  C   LIG     1      15.538  32.956  15.994  1.00  0.00     0.048 A 
ENDROOT
BRANCH   5   9
HETATM    9  C   LIG     1      17.897  33.549  13.070  1.00  0.00    -0.023 A 
HETATM   10  C   LIG     1      17.483  34.264  11.935  1.00  0.00     0.014 A 
HETATM   11  C   LIG     1      18.427  34.853  11.090  1.00  0.00     0.026 A 
HETATM   12  C   LIG     1      19.792  34.746  11.373  1.00  0.00     0.055 A 
HETATM   13  C   LIG     1      20.215  34.044  12.514  1.00  0.00     0.056 A 
HETATM   14 CL   LIG     1      20.950  35.502  10.286  1.00  0.00    -0.083 Cl
HETATM   15 CL   LIG     1      21.921  33.894  12.912  1.00  0.00    -0.083 Cl
HETATM   16  C   LIG     1      19.268  33.454  13.360  1.00  0.00     0.038 A 
ENDBRANCH   5   9
TORSDOF 1
ENDMDL
MODEL 8
REMARK VINA RESULT:      -5.6      1.467      6.139
REMARK  1 active torsions:
REMARK  status: ('A' for Active; 'I' for Inactive)
REMARK    1  A    between atoms: C_5  and  C_6 
ROOT
HETATM    1 CL   LIG     1      14.089  31.009  15.414  1.00  0.00    -0.084 Cl
HETATM    2  C   LIG     1      14.561  32.123  16.685  1.00  0.00     0.035 A 
HETATM    3  C   LIG     1      15.028  33.398  16.357  1.00  0.00     0.025 A 
HETATM    4  C   LIG     1      15.406  34.287  17.367  1.00  0.00     0.015 A 
HETATM    5  C   LIG     1      15.315  33.912  18.718  1.00  0.00    -0.004 A 
HETATM    6  C   LIG     1      14.853  32.616  19.044  1.00  0.00     0.046 A 
HETATM    7 CL   LIG     1      14.792  32.040  20.707  1.00  0.00    -0.083 Cl
HETATM    8  C   LIG     1      14.477  31.733  18.024  1.00  0.00     0.048 A 
ENDROOT
BRANCH   5   9
HETATM    9  C   LIG     1      15.709  34.884  19.763  1.00  0.00    -0.023 A 
HETATM   10  C   LIG     1      14.911  35.052  20.905  1.00  0.00     0.014 A 
HETATM   11  C   LIG     1      15.286  35.958  21.900  1.00  0.00     0.026 A 
HETATM   12  C   LIG     1      16.466  36.699  21.772  1.00  0.00     0.055 A 
HETATM   13  C   LIG     1      17.278  36.526  20.639  1.00  0.00     0.056 A 
HETATM   14 CL   LIG     1      16.905  37.829  23.046  1.00  0.00    -0.083 Cl
HETATM   15 CL   LIG     1      18.774  37.429  20.444  1.00  0.00    -0.083 Cl
HETATM   16  C   LIG     1      16.900  35.618  19.642  1.00  0.00     0.038 A 
ENDBRANCH   5   9
TORSDOF 1
ENDMDL
MODEL 9
REMARK VINA RESULT:      -5.5      5.445      7.862
REMARK  1 active torsions:
REMARK  status: ('A' for Active; 'I' for Inactive)
REMARK    1  A    between atoms: C_5  and  C_6 
ROOT
HETATM    1 CL   LIG     1      17.206  34.466  15.706  1.00  0.00    -0.084 Cl
HETATM    2  C   LIG     1      16.295  33.042  15.238  1.00  0.00     0.035 A 
HETATM    3  C   LIG     1      16.459  32.496  13.962  1.00  0.00     0.025 A 
HETATM    4  C   LIG     1      15.733  31.362  13.587  1.00  0.00     0.015 A 
HETATM    5  C   LIG     1      14.838  30.758  14.485  1.00  0.00    -0.004 A 
HETATM    6  C   LIG     1      14.666  31.321  15.771  1.00  0.00     0.046 A 
HETATM    7 CL   LIG     1      13.501  30.675  16.922  1.00  0.00    -0.083 Cl
HETATM    8  C   LIG     1      15.399  32.457  16.136  1.00  0.00     0.048 A 
ENDROOT
BRANCH   5   9
HETATM    9  C   LIG     1      14.097  29.549  14.060  1.00  0.00    -0.023 A 
HETATM   10  C   LIG     1      14.768  28.324  13.923  1.00  0.00     0.014 A 
HETATM   11  C   LIG     1      14.069  27.177  13.535  1.00  0.00     0.026 A 
HETATM   12  C   LIG     1      12.694  27.238  13.290  1.00  0.00     0.055 A 
HETATM   13  C   LIG     1      12.012  28.457  13.438  1.00  0.00     0.056 A 
HETATM   14 CL   LIG     1      11.849  25.773  12.804  1.00  0.00    -0.083 Cl
HETATM   15 CL   LIG     1      10.281  28.575  13.149  1.00  0.00    -0.083 Cl
HETATM   16  C   LIG     1      12.713  29.605  13.825  1.00  0.00     0.038 A 
ENDBRANCH   5   9
TORSDOF 1
ENDMDL
MODEL 10
REMARK VINA RESULT:      -5.1     18.218     19.283
REMARK  1 active torsions:
REMARK  status: ('A' for Active; 'I' for Inactive)
REMARK    1  A    between atoms: C_5  and  C_6 
ROOT
HETATM    1 CL   LIG     1      27.185  32.653  38.129  1.00  0.00    -0.084 Cl
HETATM    2  C   LIG     1      27.223  31.453  36.850  1.00  0.00     0.035 A 
HETATM    3  C   LIG     1      26.115  31.285  36.017  1.00  0.00     0.025 A 
HETATM    4  C   LIG     1      26.142  30.329  34.998  1.00  0.00     0.015 A 
HETATM    5  C   LIG     1      27.282  29.532  34.798  1.00  0.00    -0.004 A 
HETATM    6  C   LIG     1      28.397  29.697  35.651  1.00  0.00     0.046 A 
HETATM    7 CL   LIG     1      29.828  28.680  35.521  1.00  0.00    -0.083 Cl
HETATM    8  C   LIG     1      28.358  30.659  36.669  1.00  0.00     0.048 A 
ENDROOT
BRANCH   5   9
HETATM    9  C   LIG     1      27.282  28.540  33.699  1.00  0.00    -0.023 A 
HETATM   10  C   LIG     1      26.516  27.369  33.807  1.00  0.00     0.014 A 
HETATM   11  C   LIG     1      26.503  26.437  32.766  1.00  0.00     0.026 A 
HETATM   12  C   LIG     1      27.246  26.667  31.603  1.00  0.00     0.055 A 
HETATM   13  C   LIG     1      28.004  27.843  31.481  1.00  0.00     0.056 A 
HETATM   14 CL   LIG     1      27.203  25.470  30.315  1.00  0.00    -0.083 Cl
HETATM   15 CL   LIG     1      28.943  28.176  30.032  1.00  0.00    -0.083 Cl
HETATM   16  C   LIG     1      28.017  28.776  32.525  1.00  0.00     0.038 A 
ENDBRANCH   5   9
TORSDOF 1
ENDMDL
MODEL 11
REMARK VINA RESULT:      -4.9     14.699     16.691
REMARK  1 active torsions:
REMARK  status: ('A' for Active; 'I' for Inactive)
REMARK    1  A    between atoms: C_5  and  C_6 
ROOT
HETATM    1 CL   LIG     1      22.273  18.486  19.113  1.00  0.00    -0.084 Cl
HETATM    2  C   LIG     1      23.322  19.890  19.031  1.00  0.00     0.035 A 
HETATM    3  C   LIG     1      22.945  21.001  18.273  1.00  0.00     0.025 A 
HETATM    4  C   LIG     1      23.779  22.119  18.205  1.00  0.00     0.015 A 
HETATM    5  C   LIG     1      25.000  22.142  18.900  1.00  0.00    -0.004 A 
HETATM    6  C   LIG     1      25.384  21.011  19.656  1.00  0.00     0.046 A 
HETATM    7 CL   LIG     1      26.936  20.926  20.484  1.00  0.00    -0.083 Cl
HETATM    8  C   LIG     1      24.540  19.895  19.717  1.00  0.00     0.048 A 
ENDROOT
BRANCH   5   9
HETATM    9  C   LIG     1      25.853  23.349  18.819  1.00  0.00    -0.023 A 
HETATM   10  C   LIG     1      25.755  24.348  19.800  1.00  0.00     0.014 A 
HETATM   11  C   LIG     1      26.568  25.483  19.734  1.00  0.00     0.026 A 
HETATM   12  C   LIG     1      27.494  25.629  18.696  1.00  0.00     0.055 A 
HETATM   13  C   LIG     1      27.609  24.627  17.718  1.00  0.00     0.056 A 
HETATM   14 CL   LIG     1      28.500  27.071  18.649  1.00  0.00    -0.083 Cl
HETATM   15 CL   LIG     1      28.767  24.766  16.402  1.00  0.00    -0.083 Cl
HETATM   16  C   LIG     1      26.793  23.492  17.784  1.00  0.00     0.038 A 
ENDBRANCH   5   9
TORSDOF 1
ENDMDL
MODEL 12
REMARK VINA RESULT:      -4.9     14.337     15.574
REMARK  1 active torsions:
REMARK  status: ('A' for Active; 'I' for Inactive)
REMARK    1  A    between atoms: C_5  and  C_6 
ROOT
HETATM    1 CL   LIG     1      29.340  26.807  16.723  1.00  0.00    -0.084 Cl
HETATM    2  C   LIG     1      28.387  25.868  17.858  1.00  0.00     0.035 A 
HETATM    3  C   LIG     1      28.005  26.427  19.080  1.00  0.00     0.025 A 
HETATM    4  C   LIG     1      27.247  25.681  19.985  1.00  0.00     0.015 A 
HETATM    5  C   LIG     1      26.857  24.367  19.677  1.00  0.00    -0.004 A 
HETATM    6  C   LIG     1      27.256  23.801  18.444  1.00  0.00     0.046 A 
HETATM    7 CL   LIG     1      26.881  22.133  18.021  1.00  0.00    -0.083 Cl
HETATM    8  C   LIG     1      28.016  24.558  17.544  1.00  0.00     0.048 A 
ENDROOT
BRANCH   5   9
HETATM    9  C   LIG     1      26.040  23.610  20.653  1.00  0.00    -0.023 A 
HETATM   10  C   LIG     1      26.656  22.969  21.739  1.00  0.00     0.014 A 
HETATM   11  C   LIG     1      25.887  22.266  22.670  1.00  0.00     0.026 A 
HETATM   12  C   LIG     1      24.496  22.202  22.534  1.00  0.00     0.055 A 
HETATM   13  C   LIG     1      23.871  22.853  21.457  1.00  0.00     0.056 A 
HETATM   14 CL   LIG     1      23.563  21.308  23.727  1.00  0.00    -0.083 Cl
HETATM   15 CL   LIG     1      22.125  22.808  21.255  1.00  0.00    -0.083 Cl
HETATM   16  C   LIG     1      24.643  23.557  20.525  1.00  0.00     0.038 A 
ENDBRANCH   5   9
TORSDOF 1
ENDMDL
MODEL 13
REMARK VINA RESULT:      -4.8     14.557     16.321
REMARK  1 active torsions:
REMARK  status: ('A' for Active; 'I' for Inactive)
REMARK    1  A    between atoms: C_5  and  C_6 
ROOT
HETATM    1 CL   LIG     1      22.061  19.451  17.599  1.00  0.00    -0.084 Cl
HETATM    2  C   LIG     1      23.199  20.575  18.320  1.00  0.00     0.035 A 
HETATM    3  C   LIG     1      24.498  20.673  17.817  1.00  0.00     0.025 A 
HETATM    4  C   LIG     1      25.407  21.566  18.390  1.00  0.00     0.015 A 
HETATM    5  C   LIG     1      25.024  22.376  19.472  1.00  0.00    -0.004 A 
HETATM    6  C   LIG     1      23.712  22.265  19.987  1.00  0.00     0.046 A 
HETATM    7 CL   LIG     1      23.183  23.182  21.394  1.00  0.00    -0.083 Cl
HETATM    8  C   LIG     1      22.809  21.366  19.404  1.00  0.00     0.048 A 
ENDROOT
BRANCH   5   9
HETATM    9  C   LIG     1      26.007  23.323  20.045  1.00  0.00    -0.023 A 
HETATM   10  C   LIG     1      26.636  23.033  21.266  1.00  0.00     0.014 A 
HETATM   11  C   LIG     1      27.575  23.917  21.804  1.00  0.00     0.026 A 
HETATM   12  C   LIG     1      27.905  25.095  21.125  1.00  0.00     0.055 A 
HETATM   13  C   LIG     1      27.291  25.387  19.895  1.00  0.00     0.056 A 
HETATM   14 CL   LIG     1      29.092  26.183  21.833  1.00  0.00    -0.083 Cl
HETATM   15 CL   LIG     1      27.685  26.850  19.004  1.00  0.00    -0.083 Cl
HETATM   16  C   LIG     1      26.350  24.500  19.359  1.00  0.00     0.038 A 
ENDBRANCH   5   9
TORSDOF 1
ENDMDL
MODEL 14
REMARK VINA RESULT:      -4.7     14.527     16.649
REMARK  1 active torsions:
REMARK  status: ('A' for Active; 'I' for Inactive)
REMARK    1  A    between atoms: C_5  and  C_6 
ROOT
HETATM    1 CL   LIG     1      22.603  20.161  17.511  1.00  0.00    -0.084 Cl
HETATM    2  C   LIG     1      22.946  20.549  19.187  1.00  0.00     0.035 A 
HETATM    3  C   LIG     1      23.492  19.578  20.030  1.00  0.00     0.025 A 
HETATM    4  C   LIG     1      23.765  19.884  21.366  1.00  0.00     0.015 A 
HETATM    5  C   LIG     1      23.500  21.167  21.873  1.00  0.00    -0.004 A 
HETATM    6  C   LIG     1      22.936  22.142  21.019  1.00  0.00     0.046 A 
HETATM    7 CL   LIG     1      22.494  23.745  21.600  1.00  0.00    -0.083 Cl
HETATM    8  C   LIG     1      22.666  21.825  19.682  1.00  0.00     0.048 A 
ENDROOT
BRANCH   5   9
HETATM    9  C   LIG     1      23.816  21.461  23.289  1.00  0.00    -0.023 A 
HETATM   10  C   LIG     1      23.222  20.709  24.314  1.00  0.00     0.014 A 
HETATM   11  C   LIG     1      23.529  20.974  25.652  1.00  0.00     0.026 A 
HETATM   12  C   LIG     1      24.438  21.986  25.980  1.00  0.00     0.055 A 
HETATM   13  C   LIG     1      25.047  22.735  24.960  1.00  0.00     0.056 A 
HETATM   14 CL   LIG     1      24.799  22.289  27.675  1.00  0.00    -0.083 Cl
HETATM   15 CL   LIG     1      26.202  24.007  25.328  1.00  0.00    -0.083 Cl
HETATM   16  C   LIG     1      24.738  22.468  23.620  1.00  0.00     0.038 A 
ENDBRANCH   5   9
TORSDOF 1
ENDMDL
MODEL 15
REMARK VINA RESULT:      -4.7     14.542     16.008
REMARK  1 active torsions:
REMARK  status: ('A' for Active; 'I' for Inactive)
REMARK    1  A    between atoms: C_5  and  C_6 
ROOT
HETATM    1 CL   LIG     1      22.522  20.560  22.767  1.00  0.00    -0.084 Cl
HETATM    2  C   LIG     1      23.600  21.551  21.800  1.00  0.00     0.035 A 
HETATM    3  C   LIG     1      24.616  22.285  22.417  1.00  0.00     0.025 A 
HETATM    4  C   LIG     1      25.475  23.076  21.650  1.00  0.00     0.015 A 
HETATM    5  C   LIG     1      25.330  23.138  20.254  1.00  0.00    -0.004 A 
HETATM    6  C   LIG     1      24.293  22.403  19.634  1.00  0.00     0.046 A 
HETATM    7 CL   LIG     1      23.992  22.496  17.902  1.00  0.00    -0.083 Cl
HETATM    8  C   LIG     1      23.438  21.613  20.414  1.00  0.00     0.048 A 
ENDROOT
BRANCH   5   9
HETATM    9  C   LIG     1      26.267  23.973  19.469  1.00  0.00    -0.023 A 
HETATM   10  C   LIG     1      26.375  25.348  19.732  1.00  0.00     0.014 A 
HETATM   11  C   LIG     1      27.269  26.137  19.004  1.00  0.00     0.026 A 
HETATM   12  C   LIG     1      28.071  25.563  18.012  1.00  0.00     0.055 A 
HETATM   13  C   LIG     1      27.980  24.185  17.752  1.00  0.00     0.056 A 
HETATM   14 CL   LIG     1      29.185  26.589  17.117  1.00  0.00    -0.083 Cl
HETATM   15 CL   LIG     1      28.978  23.422  16.522  1.00  0.00    -0.083 Cl
HETATM   16  C   LIG     1      27.084  23.396  18.482  1.00  0.00     0.038 A 
ENDBRANCH   5   9
TORSDOF 1
ENDMDL
MODEL 16
REMARK VINA RESULT:      -4.7      3.999      5.616
REMARK  1 active torsions:
REMARK  status: ('A' for Active; 'I' for Inactive)
REMARK    1  A    between atoms: C_5  and  C_6 
ROOT
HETATM    1 CL   LIG     1      17.322  35.874  27.251  1.00  0.00    -0.084 Cl
HETATM    2  C   LIG     1      17.558  36.446  25.609  1.00  0.00     0.035 A 
HETATM    3  C   LIG     1      18.153  37.689  25.382  1.00  0.00     0.025 A 
HETATM    4  C   LIG     1      18.341  38.148  24.075  1.00  0.00     0.015 A 
HETATM    5  C   LIG     1      17.940  37.365  22.980  1.00  0.00    -0.004 A 
HETATM    6  C   LIG     1      17.327  36.112  23.215  1.00  0.00     0.046 A 
HETATM    7 CL   LIG     1      16.720  35.112  21.900  1.00  0.00    -0.083 Cl
HETATM    8  C   LIG     1      17.144  35.663  24.529  1.00  0.00     0.048 A 
ENDROOT
BRANCH   5   9
HETATM    9  C   LIG     1      18.169  37.874  21.609  1.00  0.00    -0.023 A 
HETATM   10  C   LIG     1      18.507  39.221  21.405  1.00  0.00     0.014 A 
HETATM   11  C   LIG     1      18.738  39.702  20.113  1.00  0.00     0.026 A 
HETATM   12  C   LIG     1      18.643  38.844  19.013  1.00  0.00     0.055 A 
HETATM   13  C   LIG     1      18.318  37.491  19.209  1.00  0.00     0.056 A 
HETATM   14 CL   LIG     1      18.941  39.487  17.403  1.00  0.00    -0.083 Cl
HETATM   15 CL   LIG     1      18.200  36.377  17.854  1.00  0.00    -0.083 Cl
HETATM   16  C   LIG     1      18.087  37.011  20.504  1.00  0.00     0.038 A 
ENDBRANCH   5   9
TORSDOF 1
ENDMDL
MODEL 17
REMARK VINA RESULT:      -4.6      5.474      9.445
REMARK  1 active torsions:
REMARK  status: ('A' for Active; 'I' for Inactive)
REMARK    1  A    between atoms: C_5  and  C_6 
ROOT
HETATM    1 CL   LIG     1      12.525  25.918  13.010  1.00  0.00    -0.084 Cl
HETATM    2  C   LIG     1      13.327  27.421  13.432  1.00  0.00     0.035 A 
HETATM    3  C   LIG     1      14.660  27.627  13.068  1.00  0.00     0.025 A 
HETATM    4  C   LIG     1      15.301  28.822  13.404  1.00  0.00     0.015 A 
HETATM    5  C   LIG     1      14.614  29.828  14.103  1.00  0.00    -0.004 A 
HETATM    6  C   LIG     1      13.269  29.611  14.479  1.00  0.00     0.046 A 
HETATM    7 CL   LIG     1      12.366  30.785  15.431  1.00  0.00    -0.083 Cl
HETATM    8  C   LIG     1      12.636  28.409  14.138  1.00  0.00     0.048 A 
ENDROOT
BRANCH   5   9
HETATM    9  C   LIG     1      15.319  31.089  14.429  1.00  0.00    -0.023 A 
HETATM   10  C   LIG     1      15.179  31.666  15.700  1.00  0.00     0.014 A 
HETATM   11  C   LIG     1      15.854  32.848  16.016  1.00  0.00     0.026 A 
HETATM   12  C   LIG     1      16.683  33.461  15.071  1.00  0.00     0.055 A 
HETATM   13  C   LIG     1      16.840  32.883  13.800  1.00  0.00     0.056 A 
HETATM   14 CL   LIG     1      17.517  34.948  15.506  1.00  0.00    -0.083 Cl
HETATM   15 CL   LIG     1      17.881  33.616  12.587  1.00  0.00    -0.083 Cl
HETATM   16  C   LIG     1      16.162  31.699  13.485  1.00  0.00     0.038 A 
ENDBRANCH   5   9
TORSDOF 1
ENDMDL
MODEL 18
REMARK VINA RESULT:      -4.5     14.894     16.151
REMARK  1 active torsions:
REMARK  status: ('A' for Active; 'I' for Inactive)
REMARK    1  A    between atoms: C_5  and  C_6 
ROOT
HETATM    1 CL   LIG     1      25.252  22.382  28.123  1.00  0.00    -0.084 Cl
HETATM    2  C   LIG     1      24.824  22.148  26.438  1.00  0.00     0.035 A 
HETATM    3  C   LIG     1      25.355  22.992  25.459  1.00  0.00     0.025 A 
HETATM    4  C   LIG     1      25.016  22.808  24.116  1.00  0.00     0.015 A 
HETATM    5  C   LIG     1      24.143  21.775  23.736  1.00  0.00    -0.004 A 
HETATM    6  C   LIG     1      23.599  20.931  24.731  1.00  0.00     0.046 A 
HETATM    7 CL   LIG     1      22.433  19.669  24.346  1.00  0.00    -0.083 Cl
HETATM    8  C   LIG     1      23.946  21.124  26.074  1.00  0.00     0.048 A 
ENDROOT
BRANCH   5   9
HETATM    9  C   LIG     1      23.817  21.599  22.303  1.00  0.00    -0.023 A 
HETATM   10  C   LIG     1      22.835  22.400  21.700  1.00  0.00     0.014 A 
HETATM   11  C   LIG     1      22.534  22.247  20.344  1.00  0.00     0.026 A 
HETATM   12  C   LIG     1      23.216  21.300  19.572  1.00  0.00     0.055 A 
HETATM   13  C   LIG     1      24.210  20.504  20.164  1.00  0.00     0.056 A 
HETATM   14 CL   LIG     1      22.809  21.138  17.869  1.00  0.00    -0.083 Cl
HETATM   15 CL   LIG     1      25.098  19.310  19.227  1.00  0.00    -0.083 Cl
HETATM   16  C   LIG     1      24.510  20.658  21.523  1.00  0.00     0.038 A 
ENDBRANCH   5   9
TORSDOF 1
ENDMDL
MODEL 19
REMARK VINA RESULT:      -4.5      5.608      8.219
REMARK  1 active torsions:
REMARK  status: ('A' for Active; 'I' for Inactive)
REMARK    1  A    between atoms: C_5  and  C_6 
ROOT
HETATM    1 CL   LIG     1      12.324  30.727  17.157  1.00  0.00    -0.084 Cl
HETATM    2  C   LIG     1      13.725  31.362  16.313  1.00  0.00     0.035 A 
HETATM    3  C   LIG     1      14.371  32.503  16.794  1.00  0.00     0.025 A 
HETATM    4  C   LIG     1      15.486  33.012  16.123  1.00  0.00     0.015 A 
HETATM    5  C   LIG     1      15.971  32.381  14.965  1.00  0.00    -0.004 A 
HETATM    6  C   LIG     1      15.306  31.233  14.475  1.00  0.00     0.046 A 
HETATM    7 CL   LIG     1      15.799  30.437  12.984  1.00  0.00    -0.083 Cl
HETATM    8  C   LIG     1      14.189  30.732  15.156  1.00  0.00     0.048 A 
ENDROOT
BRANCH   5   9
HETATM    9  C   LIG     1      17.164  32.938  14.288  1.00  0.00    -0.023 A 
HETATM   10  C   LIG     1      18.445  32.708  14.815  1.00  0.00     0.014 A 
HETATM   11  C   LIG     1      19.574  33.220  14.171  1.00  0.00     0.026 A 
HETATM   12  C   LIG     1      19.440  33.957  12.990  1.00  0.00     0.055 A 
HETATM   13  C   LIG     1      18.164  34.179  12.447  1.00  0.00     0.056 A 
HETATM   14 CL   LIG     1      20.886  34.583  12.208  1.00  0.00    -0.083 Cl
HETATM   15 CL   LIG     1      17.952  35.091  10.959  1.00  0.00    -0.083 Cl
HETATM   16  C   LIG     1      17.033  33.667  13.094  1.00  0.00     0.038 A 
ENDBRANCH   5   9
TORSDOF 1
ENDMDL
MODEL 20
REMARK VINA RESULT:      -4.2     14.654     16.235
REMARK  1 active torsions:
REMARK  status: ('A' for Active; 'I' for Inactive)
REMARK    1  A    between atoms: C_5  and  C_6 
ROOT
HETATM    1 CL   LIG     1      22.088  18.571  23.721  1.00  0.00    -0.084 Cl
HETATM    2  C   LIG     1      23.004  19.768  22.823  1.00  0.00     0.035 A 
HETATM    3  C   LIG     1      24.291  19.468  22.372  1.00  0.00     0.025 A 
HETATM    4  C   LIG     1      25.023  20.420  21.657  1.00  0.00     0.015 A 
HETATM    5  C   LIG     1      24.473  21.683  21.382  1.00  0.00    -0.004 A 
HETATM    6  C   LIG     1      23.175  21.987  21.852  1.00  0.00     0.046 A 
HETATM    7 CL   LIG     1      22.450  23.576  21.623  1.00  0.00    -0.083 Cl
HETATM    8  C   LIG     1      22.450  21.025  22.567  1.00  0.00     0.048 A 
ENDROOT
BRANCH   5   9
HETATM    9  C   LIG     1      25.270  22.663  20.609  1.00  0.00    -0.023 A 
HETATM   10  C   LIG     1      25.071  22.800  19.227  1.00  0.00     0.014 A 
HETATM   11  C   LIG     1      25.811  23.733  18.497  1.00  0.00     0.026 A 
HETATM   12  C   LIG     1      26.751  24.546  19.138  1.00  0.00     0.055 A 
HETATM   13  C   LIG     1      26.948  24.426  20.524  1.00  0.00     0.056 A 
HETATM   14 CL   LIG     1      27.663  25.709  18.184  1.00  0.00    -0.083 Cl
HETATM   15 CL   LIG     1      28.111  25.436  21.370  1.00  0.00    -0.083 Cl
HETATM   16  C   LIG     1      26.206  23.489  21.254  1.00  0.00     0.038 A 
ENDBRANCH   5   9
TORSDOF 1
ENDMDL
