REMARK  0 active torsions:
REMARK  status: ('A' for Active; 'I' for Inactive)
ROOT
HETATM    1  F   LIG     1      -2.700   0.553  -0.018  1.00  0.00    -0.203 F 
HETATM    2  C   LIG     1      -1.371   0.280  -0.009  1.00  0.00     0.158 A 
HETATM    3  C   LIG     1      -0.928  -1.048   0.017  1.00  0.00     0.158 A 
HETATM    4  F   LIG     1      -1.825  -2.065   0.033  1.00  0.00    -0.203 F 
HETATM    5  C   LIG     1       0.443  -1.327   0.026  1.00  0.00     0.090 A 
HETATM    6  C   LIG     1       1.371  -0.280   0.009  1.00  0.00     0.158 A 
HETATM    7  F   LIG     1       2.700  -0.553   0.018  1.00  0.00    -0.203 F 
HETATM    8  C   LIG     1       0.928   1.048  -0.017  1.00  0.00     0.158 A 
HETATM    9  F   LIG     1       1.825   2.065  -0.033  1.00  0.00    -0.203 F 
HETATM   10  C   LIG     1      -0.443   1.327  -0.026  1.00  0.00     0.090 A 
ENDROOT
TORSDOF 0
