MODEL 1
REMARK VINA RESULT:      -6.5      0.000      0.000
REMARK  0 active torsions:
REMARK  status: ('A' for Active; 'I' for Inactive)
ROOT
HETATM    1  F   LIG     1      18.186  34.308  26.451  1.00  0.00    -0.203 F 
HETATM    2  C   LIG     1      17.877  35.331  25.615  1.00  0.00     0.158 A 
HETATM    3  C   LIG     1      18.226  36.644  25.955  1.00  0.00     0.158 A 
HETATM    4  F   LIG     1      18.874  36.898  27.119  1.00  0.00    -0.203 F 
HETATM    5  C   LIG     1      17.906  37.698  25.091  1.00  0.00     0.090 A 
HETATM    6  C   LIG     1      17.238  37.440  23.889  1.00  0.00     0.158 A 
HETATM    7  F   LIG     1      16.928  38.463  23.053  1.00  0.00    -0.203 F 
HETATM    8  C   LIG     1      16.889  36.127  23.550  1.00  0.00     0.158 A 
HETATM    9  F   LIG     1      16.241  35.874  22.386  1.00  0.00    -0.203 F 
HETATM   10  C   LIG     1      17.209  35.073  24.413  1.00  0.00     0.090 A 
ENDROOT
TORSDOF 0
ENDMDL
MODEL 2
REMARK VINA RESULT:      -6.5      0.060      2.324
REMARK  0 active torsions:
REMARK  status: ('A' for Active; 'I' for Inactive)
ROOT
HETATM    1  F   LIG     1      18.815  36.867  27.150  1.00  0.00    -0.203 F 
HETATM    2  C   LIG     1      18.190  36.639  25.967  1.00  0.00     0.158 A 
HETATM    3  C   LIG     1      17.833  35.336  25.603  1.00  0.00     0.158 A 
HETATM    4  F   LIG     1      18.110  34.297  26.429  1.00  0.00    -0.203 F 
HETATM    5  C   LIG     1      17.188  35.103  24.383  1.00  0.00     0.090 A 
HETATM    6  C   LIG     1      16.900  36.173  23.528  1.00  0.00     0.158 A 
HETATM    7  F   LIG     1      16.275  35.945  22.345  1.00  0.00    -0.203 F 
HETATM    8  C   LIG     1      17.257  37.477  23.893  1.00  0.00     0.158 A 
HETATM    9  F   LIG     1      16.980  38.515  23.066  1.00  0.00    -0.203 F 
HETATM   10  C   LIG     1      17.902  37.709  25.112  1.00  0.00     0.090 A 
ENDROOT
TORSDOF 0
ENDMDL
MODEL 3
REMARK VINA RESULT:      -6.5      0.109      3.385
REMARK  0 active torsions:
REMARK  status: ('A' for Active; 'I' for Inactive)
ROOT
HETATM    1  F   LIG     1      16.270  36.015  22.316  1.00  0.00    -0.203 F 
HETATM    2  C   LIG     1      16.902  36.228  23.498  1.00  0.00     0.158 A 
HETATM    3  C   LIG     1      17.294  37.522  23.861  1.00  0.00     0.158 A 
HETATM    4  F   LIG     1      17.044  38.567  23.033  1.00  0.00    -0.203 F 
HETATM    5  C   LIG     1      17.945  37.739  25.080  1.00  0.00     0.090 A 
HETATM    6  C   LIG     1      18.204  36.663  25.936  1.00  0.00     0.158 A 
HETATM    7  F   LIG     1      18.835  36.876  27.118  1.00  0.00    -0.203 F 
HETATM    8  C   LIG     1      17.812  35.369  25.574  1.00  0.00     0.158 A 
HETATM    9  F   LIG     1      18.062  34.324  26.401  1.00  0.00    -0.203 F 
HETATM   10  C   LIG     1      17.161  35.152  24.354  1.00  0.00     0.090 A 
ENDROOT
TORSDOF 0
ENDMDL
MODEL 4
REMARK VINA RESULT:      -6.5      0.116      4.105
REMARK  0 active torsions:
REMARK  status: ('A' for Active; 'I' for Inactive)
ROOT
HETATM    1  F   LIG     1      16.885  38.592  23.183  1.00  0.00    -0.203 F 
HETATM    2  C   LIG     1      17.206  37.532  23.966  1.00  0.00     0.158 A 
HETATM    3  C   LIG     1      16.893  36.232  23.549  1.00  0.00     0.158 A 
HETATM    4  F   LIG     1      16.269  36.029  22.362  1.00  0.00    -0.203 F 
HETATM    5  C   LIG     1      17.226  35.140  24.358  1.00  0.00     0.090 A 
HETATM    6  C   LIG     1      17.870  35.346  25.583  1.00  0.00     0.158 A 
HETATM    7  F   LIG     1      18.191  34.286  26.366  1.00  0.00    -0.203 F 
HETATM    8  C   LIG     1      18.183  36.646  26.000  1.00  0.00     0.158 A 
HETATM    9  F   LIG     1      18.806  36.849  27.187  1.00  0.00    -0.203 F 
HETATM   10  C   LIG     1      17.850  37.738  25.191  1.00  0.00     0.090 A 
ENDROOT
TORSDOF 0
ENDMDL
MODEL 5
REMARK VINA RESULT:      -6.2      1.383      2.898
REMARK  0 active torsions:
REMARK  status: ('A' for Active; 'I' for Inactive)
ROOT
HETATM    1  F   LIG     1      17.522  34.441  25.177  1.00  0.00    -0.203 F 
HETATM    2  C   LIG     1      17.344  35.676  24.645  1.00  0.00     0.158 A 
HETATM    3  C   LIG     1      17.100  35.820  23.274  1.00  0.00     0.158 A 
HETATM    4  F   LIG     1      17.041  34.727  22.474  1.00  0.00    -0.203 F 
HETATM    5  C   LIG     1      16.916  37.095  22.727  1.00  0.00     0.090 A 
HETATM    6  C   LIG     1      16.976  38.225  23.550  1.00  0.00     0.158 A 
HETATM    7  F   LIG     1      16.798  39.461  23.017  1.00  0.00    -0.203 F 
HETATM    8  C   LIG     1      17.219  38.081  24.921  1.00  0.00     0.158 A 
HETATM    9  F   LIG     1      17.278  39.175  25.721  1.00  0.00    -0.203 F 
HETATM   10  C   LIG     1      17.403  36.806  25.468  1.00  0.00     0.090 A 
ENDROOT
TORSDOF 0
ENDMDL
MODEL 6
REMARK VINA RESULT:      -6.2      1.374      2.692
REMARK  0 active torsions:
REMARK  status: ('A' for Active; 'I' for Inactive)
ROOT
HETATM    1  F   LIG     1      17.108  34.715  22.521  1.00  0.00    -0.203 F 
HETATM    2  C   LIG     1      17.151  35.817  23.311  1.00  0.00     0.158 A 
HETATM    3  C   LIG     1      17.401  35.687  24.682  1.00  0.00     0.158 A 
HETATM    4  F   LIG     1      17.600  34.460  25.225  1.00  0.00    -0.203 F 
HETATM    5  C   LIG     1      17.445  36.825  25.495  1.00  0.00     0.090 A 
HETATM    6  C   LIG     1      17.240  38.092  24.938  1.00  0.00     0.158 A 
HETATM    7  F   LIG     1      17.284  39.194  25.728  1.00  0.00    -0.203 F 
HETATM    8  C   LIG     1      16.990  38.222  23.567  1.00  0.00     0.158 A 
HETATM    9  F   LIG     1      16.791  39.448  23.024  1.00  0.00    -0.203 F 
HETATM   10  C   LIG     1      16.946  37.084  22.754  1.00  0.00     0.090 A 
ENDROOT
TORSDOF 0
ENDMDL
MODEL 7
REMARK VINA RESULT:      -6.0      3.497      5.041
REMARK  0 active torsions:
REMARK  status: ('A' for Active; 'I' for Inactive)
ROOT
HETATM    1  F   LIG     1      16.871  39.347  23.136  1.00  0.00    -0.203 F 
HETATM    2  C   LIG     1      17.493  38.667  22.140  1.00  0.00     0.158 A 
HETATM    3  C   LIG     1      17.090  37.365  21.822  1.00  0.00     0.158 A 
HETATM    4  F   LIG     1      16.077  36.779  22.508  1.00  0.00    -0.203 F 
HETATM    5  C   LIG     1      17.732  36.666  20.794  1.00  0.00     0.090 A 
HETATM    6  C   LIG     1      18.776  37.267  20.084  1.00  0.00     0.158 A 
HETATM    7  F   LIG     1      19.398  36.588  19.088  1.00  0.00    -0.203 F 
HETATM    8  C   LIG     1      19.179  38.570  20.402  1.00  0.00     0.158 A 
HETATM    9  F   LIG     1      20.192  39.156  19.715  1.00  0.00    -0.203 F 
HETATM   10  C   LIG     1      18.537  39.269  21.430  1.00  0.00     0.090 A 
ENDROOT
TORSDOF 0
ENDMDL
MODEL 8
REMARK VINA RESULT:      -5.9      3.028      4.528
REMARK  0 active torsions:
REMARK  status: ('A' for Active; 'I' for Inactive)
ROOT
HETATM    1  F   LIG     1      19.153  37.380  19.221  1.00  0.00    -0.203 F 
HETATM    2  C   LIG     1      18.387  37.439  20.338  1.00  0.00     0.158 A 
HETATM    3  C   LIG     1      18.268  38.642  21.045  1.00  0.00     0.158 A 
HETATM    4  F   LIG     1      18.919  39.752  20.614  1.00  0.00    -0.203 F 
HETATM    5  C   LIG     1      17.477  38.701  22.197  1.00  0.00     0.090 A 
HETATM    6  C   LIG     1      16.804  37.558  22.644  1.00  0.00     0.158 A 
HETATM    7  F   LIG     1      16.038  37.618  23.762  1.00  0.00    -0.203 F 
HETATM    8  C   LIG     1      16.923  36.355  21.937  1.00  0.00     0.158 A 
HETATM    9  F   LIG     1      16.272  35.246  22.368  1.00  0.00    -0.203 F 
HETATM   10  C   LIG     1      17.714  36.297  20.785  1.00  0.00     0.090 A 
ENDROOT
TORSDOF 0
ENDMDL
MODEL 9
REMARK VINA RESULT:      -5.9      3.112      3.965
REMARK  0 active torsions:
REMARK  status: ('A' for Active; 'I' for Inactive)
ROOT
HETATM    1  F   LIG     1      16.285  35.310  22.314  1.00  0.00    -0.203 F 
HETATM    2  C   LIG     1      16.929  36.432  21.905  1.00  0.00     0.158 A 
HETATM    3  C   LIG     1      16.728  37.642  22.581  1.00  0.00     0.158 A 
HETATM    4  F   LIG     1      15.891  37.696  23.646  1.00  0.00    -0.203 F 
HETATM    5  C   LIG     1      17.394  38.797  22.157  1.00  0.00     0.090 A 
HETATM    6  C   LIG     1      18.259  38.744  21.058  1.00  0.00     0.158 A 
HETATM    7  F   LIG     1      18.902  39.866  20.649  1.00  0.00    -0.203 F 
HETATM    8  C   LIG     1      18.459  37.534  20.382  1.00  0.00     0.158 A 
HETATM    9  F   LIG     1      19.296  37.480  19.317  1.00  0.00    -0.203 F 
HETATM   10  C   LIG     1      17.794  36.379  20.806  1.00  0.00     0.090 A 
ENDROOT
TORSDOF 0
ENDMDL
MODEL 10
REMARK VINA RESULT:      -5.4      3.266      4.579
REMARK  0 active torsions:
REMARK  status: ('A' for Active; 'I' for Inactive)
ROOT
HETATM    1  F   LIG     1      17.089  35.008  21.130  1.00  0.00    -0.203 F 
HETATM    2  C   LIG     1      17.460  36.306  21.263  1.00  0.00     0.158 A 
HETATM    3  C   LIG     1      18.337  36.884  20.337  1.00  0.00     0.158 A 
HETATM    4  F   LIG     1      18.819  36.149  19.305  1.00  0.00    -0.203 F 
HETATM    5  C   LIG     1      18.717  38.223  20.477  1.00  0.00     0.090 A 
HETATM    6  C   LIG     1      18.221  38.985  21.541  1.00  0.00     0.158 A 
HETATM    7  F   LIG     1      18.591  40.283  21.675  1.00  0.00    -0.203 F 
HETATM    8  C   LIG     1      17.344  38.407  22.467  1.00  0.00     0.158 A 
HETATM    9  F   LIG     1      16.862  39.142  23.499  1.00  0.00    -0.203 F 
HETATM   10  C   LIG     1      16.964  37.068  22.327  1.00  0.00     0.090 A 
ENDROOT
TORSDOF 0
ENDMDL
MODEL 11
REMARK VINA RESULT:      -5.4      2.270      3.266
REMARK  0 active torsions:
REMARK  status: ('A' for Active; 'I' for Inactive)
ROOT
HETATM    1  F   LIG     1      16.631  37.009  24.853  1.00  0.00    -0.203 F 
HETATM    2  C   LIG     1      16.921  36.852  23.537  1.00  0.00     0.158 A 
HETATM    3  C   LIG     1      17.393  37.938  22.789  1.00  0.00     0.158 A 
HETATM    4  F   LIG     1      17.561  39.148  23.376  1.00  0.00    -0.203 F 
HETATM    5  C   LIG     1      17.691  37.773  21.432  1.00  0.00     0.090 A 
HETATM    6  C   LIG     1      17.519  36.526  20.823  1.00  0.00     0.158 A 
HETATM    7  F   LIG     1      17.809  36.369  19.507  1.00  0.00    -0.203 F 
HETATM    8  C   LIG     1      17.048  35.440  21.571  1.00  0.00     0.158 A 
HETATM    9  F   LIG     1      16.879  34.230  20.984  1.00  0.00    -0.203 F 
HETATM   10  C   LIG     1      16.749  35.604  22.928  1.00  0.00     0.090 A 
ENDROOT
TORSDOF 0
ENDMDL
MODEL 12
REMARK VINA RESULT:      -5.3      9.986     11.858
REMARK  0 active torsions:
REMARK  status: ('A' for Active; 'I' for Inactive)
ROOT
HETATM    1  F   LIG     1      15.525  29.747  13.023  1.00  0.00    -0.203 F 
HETATM    2  C   LIG     1      15.015  30.354  14.124  1.00  0.00     0.158 A 
HETATM    3  C   LIG     1      13.803  29.912  14.670  1.00  0.00     0.158 A 
HETATM    4  F   LIG     1      13.137  28.877  14.101  1.00  0.00    -0.203 F 
HETATM    5  C   LIG     1      13.279  30.539  15.805  1.00  0.00     0.090 A 
HETATM    6  C   LIG     1      13.964  31.607  16.395  1.00  0.00     0.158 A 
HETATM    7  F   LIG     1      13.453  32.214  17.496  1.00  0.00    -0.203 F 
HETATM    8  C   LIG     1      15.175  32.049  15.849  1.00  0.00     0.158 A 
HETATM    9  F   LIG     1      15.841  33.085  16.417  1.00  0.00    -0.203 F 
HETATM   10  C   LIG     1      15.700  31.422  14.713  1.00  0.00     0.090 A 
ENDROOT
TORSDOF 0
ENDMDL
MODEL 13
REMARK VINA RESULT:      -5.2      9.838     11.629
REMARK  0 active torsions:
REMARK  status: ('A' for Active; 'I' for Inactive)
ROOT
HETATM    1  F   LIG     1      13.103  29.008  14.252  1.00  0.00    -0.203 F 
HETATM    2  C   LIG     1      13.803  30.035  14.797  1.00  0.00     0.158 A 
HETATM    3  C   LIG     1      14.969  30.498  14.176  1.00  0.00     0.158 A 
HETATM    4  F   LIG     1      15.403  29.922  13.027  1.00  0.00    -0.203 F 
HETATM    5  C   LIG     1      15.688  31.557  14.740  1.00  0.00     0.090 A 
HETATM    6  C   LIG     1      15.243  32.153  15.925  1.00  0.00     0.158 A 
HETATM    7  F   LIG     1      15.942  33.180  16.470  1.00  0.00    -0.203 F 
HETATM    8  C   LIG     1      14.077  31.690  16.546  1.00  0.00     0.158 A 
HETATM    9  F   LIG     1      13.643  32.266  17.695  1.00  0.00    -0.203 F 
HETATM   10  C   LIG     1      13.357  30.631  15.982  1.00  0.00     0.090 A 
ENDROOT
TORSDOF 0
ENDMDL
MODEL 14
REMARK VINA RESULT:      -5.2      9.725     11.298
REMARK  0 active torsions:
REMARK  status: ('A' for Active; 'I' for Inactive)
ROOT
HETATM    1  F   LIG     1      13.757  32.256  17.816  1.00  0.00    -0.203 F 
HETATM    2  C   LIG     1      14.166  31.735  16.632  1.00  0.00     0.158 A 
HETATM    3  C   LIG     1      15.267  32.287  15.966  1.00  0.00     0.158 A 
HETATM    4  F   LIG     1      15.928  33.343  16.502  1.00  0.00    -0.203 F 
HETATM    5  C   LIG     1      15.687  31.748  14.745  1.00  0.00     0.090 A 
HETATM    6  C   LIG     1      15.008  30.658  14.190  1.00  0.00     0.158 A 
HETATM    7  F   LIG     1      15.417  30.137  13.006  1.00  0.00    -0.203 F 
HETATM    8  C   LIG     1      13.907  30.106  14.856  1.00  0.00     0.158 A 
HETATM    9  F   LIG     1      13.246  29.050  14.320  1.00  0.00    -0.203 F 
HETATM   10  C   LIG     1      13.487  30.645  16.077  1.00  0.00     0.090 A 
ENDROOT
TORSDOF 0
ENDMDL
MODEL 15
REMARK VINA RESULT:      -5.1      9.630     11.564
REMARK  0 active torsions:
REMARK  status: ('A' for Active; 'I' for Inactive)
ROOT
HETATM    1  F   LIG     1      17.005  32.539  14.072  1.00  0.00    -0.203 F 
HETATM    2  C   LIG     1      15.947  31.975  14.707  1.00  0.00     0.158 A 
HETATM    3  C   LIG     1      15.293  30.875  14.138  1.00  0.00     0.158 A 
HETATM    4  F   LIG     1      15.715  30.371  12.952  1.00  0.00    -0.203 F 
HETATM    5  C   LIG     1      14.202  30.295  14.795  1.00  0.00     0.090 A 
HETATM    6  C   LIG     1      13.766  30.814  16.019  1.00  0.00     0.158 A 
HETATM    7  F   LIG     1      12.708  30.250  16.654  1.00  0.00    -0.203 F 
HETATM    8  C   LIG     1      14.420  31.913  16.587  1.00  0.00     0.158 A 
HETATM    9  F   LIG     1      13.998  32.418  17.773  1.00  0.00    -0.203 F 
HETATM   10  C   LIG     1      15.510  32.493  15.931  1.00  0.00     0.090 A 
ENDROOT
TORSDOF 0
ENDMDL
MODEL 16
REMARK VINA RESULT:      -5.1      9.548     11.064
REMARK  0 active torsions:
REMARK  status: ('A' for Active; 'I' for Inactive)
ROOT
HETATM    1  F   LIG     1      12.736  30.302  16.744  1.00  0.00    -0.203 F 
HETATM    2  C   LIG     1      13.780  30.866  16.086  1.00  0.00     0.158 A 
HETATM    3  C   LIG     1      14.456  31.956  16.647  1.00  0.00     0.158 A 
HETATM    4  F   LIG     1      14.070  32.452  17.849  1.00  0.00    -0.203 F 
HETATM    5  C   LIG     1      15.532  32.536  15.967  1.00  0.00     0.090 A 
HETATM    6  C   LIG     1      15.933  32.027  14.727  1.00  0.00     0.158 A 
HETATM    7  F   LIG     1      16.977  32.590  14.069  1.00  0.00    -0.203 F 
HETATM    8  C   LIG     1      15.258  30.936  14.166  1.00  0.00     0.158 A 
HETATM    9  F   LIG     1      15.644  30.440  12.964  1.00  0.00    -0.203 F 
HETATM   10  C   LIG     1      14.181  30.356  14.847  1.00  0.00     0.090 A 
ENDROOT
TORSDOF 0
ENDMDL
MODEL 17
REMARK VINA RESULT:      -4.5     11.673     13.351
REMARK  0 active torsions:
REMARK  status: ('A' for Active; 'I' for Inactive)
ROOT
HETATM    1  F   LIG     1      12.634  31.120  15.645  1.00  0.00    -0.203 F 
HETATM    2  C   LIG     1      13.378  30.181  15.008  1.00  0.00     0.158 A 
HETATM    3  C   LIG     1      14.759  30.360  14.863  1.00  0.00     0.158 A 
HETATM    4  F   LIG     1      15.358  31.472  15.358  1.00  0.00    -0.203 F 
HETATM    5  C   LIG     1      15.524  29.390  14.206  1.00  0.00     0.090 A 
HETATM    6  C   LIG     1      14.910  28.242  13.694  1.00  0.00     0.158 A 
HETATM    7  F   LIG     1      15.654  27.303  13.057  1.00  0.00    -0.203 F 
HETATM    8  C   LIG     1      13.529  28.063  13.839  1.00  0.00     0.158 A 
HETATM    9  F   LIG     1      12.931  26.951  13.344  1.00  0.00    -0.203 F 
HETATM   10  C   LIG     1      12.764  29.033  14.496  1.00  0.00     0.090 A 
ENDROOT
TORSDOF 0
ENDMDL
MODEL 18
REMARK VINA RESULT:      -4.4      6.215      8.659
REMARK  0 active torsions:
REMARK  status: ('A' for Active; 'I' for Inactive)
ROOT
HETATM    1  F   LIG     1      15.065  34.627  16.453  1.00  0.00    -0.203 F 
HETATM    2  C   LIG     1      15.003  33.733  17.472  1.00  0.00     0.158 A 
HETATM    3  C   LIG     1      14.506  32.444  17.245  1.00  0.00     0.158 A 
HETATM    4  F   LIG     1      14.087  32.084  16.007  1.00  0.00    -0.203 F 
HETATM    5  C   LIG     1      14.443  31.524  18.298  1.00  0.00     0.090 A 
HETATM    6  C   LIG     1      14.876  31.892  19.576  1.00  0.00     0.158 A 
HETATM    7  F   LIG     1      14.814  30.999  20.595  1.00  0.00    -0.203 F 
HETATM    8  C   LIG     1      15.373  33.181  19.803  1.00  0.00     0.158 A 
HETATM    9  F   LIG     1      15.793  33.541  21.042  1.00  0.00    -0.203 F 
HETATM   10  C   LIG     1      15.436  34.101  18.751  1.00  0.00     0.090 A 
ENDROOT
TORSDOF 0
ENDMDL
MODEL 19
REMARK VINA RESULT:      -4.4     17.166     17.543
REMARK  0 active torsions:
REMARK  status: ('A' for Active; 'I' for Inactive)
ROOT
HETATM    1  F   LIG     1       4.444  43.485  36.211  1.00  0.00    -0.203 F 
HETATM    2  C   LIG     1       4.225  42.673  35.147  1.00  0.00     0.158 A 
HETATM    3  C   LIG     1       3.924  43.224  33.895  1.00  0.00     0.158 A 
HETATM    4  F   LIG     1       3.851  44.569  33.743  1.00  0.00    -0.203 F 
HETATM    5  C   LIG     1       3.699  42.384  32.798  1.00  0.00     0.090 A 
HETATM    6  C   LIG     1       3.775  40.996  32.952  1.00  0.00     0.158 A 
HETATM    7  F   LIG     1       3.556  40.184  31.887  1.00  0.00    -0.203 F 
HETATM    8  C   LIG     1       4.076  40.445  34.203  1.00  0.00     0.158 A 
HETATM    9  F   LIG     1       4.149  39.099  34.356  1.00  0.00    -0.203 F 
HETATM   10  C   LIG     1       4.301  41.284  35.300  1.00  0.00     0.090 A 
ENDROOT
TORSDOF 0
ENDMDL
MODEL 20
REMARK VINA RESULT:      -3.7     17.051     17.759
REMARK  0 active torsions:
REMARK  status: ('A' for Active; 'I' for Inactive)
ROOT
HETATM    1  F   LIG     1      20.156  21.458  32.834  1.00  0.00    -0.203 F 
HETATM    2  C   LIG     1      20.629  22.093  33.936  1.00  0.00     0.158 A 
HETATM    3  C   LIG     1      21.975  21.962  34.298  1.00  0.00     0.158 A 
HETATM    4  F   LIG     1      22.811  21.202  33.548  1.00  0.00    -0.203 F 
HETATM    5  C   LIG     1      22.460  22.618  35.435  1.00  0.00     0.090 A 
HETATM    6  C   LIG     1      21.600  23.403  36.210  1.00  0.00     0.158 A 
HETATM    7  F   LIG     1      22.072  24.038  37.313  1.00  0.00    -0.203 F 
HETATM    8  C   LIG     1      20.254  23.534  35.849  1.00  0.00     0.158 A 
HETATM    9  F   LIG     1      19.418  24.294  36.599  1.00  0.00    -0.203 F 
HETATM   10  C   LIG     1      19.769  22.878  34.712  1.00  0.00     0.090 A 
ENDROOT
TORSDOF 0
ENDMDL
