REMARK  2 active torsions:
REMARK  status: ('A' for Active; 'I' for Inactive)
REMARK       I    between atoms: C_2  and  N_3 
REMARK       I    between atoms: C_2  and  N_12 
REMARK    1  A    between atoms: N_3  and  C_4 
REMARK    2  A    between atoms: N_12  and  O_14 
ROOT
HETATM    1  C   LIG     1      -0.868  -0.051   1.186  1.00  0.00     0.038 A 
HETATM    2  C   LIG     1      -1.490   1.026   1.833  1.00  0.00     0.055 A 
HETATM    3  C   LIG     1      -2.713   1.526   1.369  1.00  0.00     0.058 A 
HETATM    4 CL   LIG     1      -3.447   2.889   2.203  1.00  0.00    -0.082 Cl
HETATM    5  C   LIG     1      -3.332   0.934   0.255  1.00  0.00     0.055 A 
HETATM    6 CL   LIG     1      -4.868   1.531  -0.359  1.00  0.00    -0.083 Cl
HETATM    7  C   LIG     1      -2.725  -0.154  -0.380  1.00  0.00     0.028 A 
HETATM    8  C   LIG     1      -1.504  -0.650   0.085  1.00  0.00     0.031 A 
ENDROOT
BRANCH   1   9
HETATM    9  N   LIG     1       0.378  -0.556   1.695  1.00  0.00    -0.307 N 
HETATM   10  C   LIG     1       1.356  -1.238   0.897  1.00  0.00     0.346 C 
HETATM   11  O   LIG     1       2.033  -2.164   1.421  1.00  0.00    -0.245 OA
HETATM   12  N   LIG     1       1.619  -0.841  -0.462  1.00  0.00    -0.213 N 
HETATM   13  C   LIG     1       2.358  -1.728  -1.358  1.00  0.00     0.190 C 
HETATM   14  H   LIG     1       0.567  -0.464   2.719  1.00  0.00     0.170 HD
BRANCH  12  15
HETATM   15  O   LIG     1       1.125   0.333  -0.946  1.00  0.00    -0.279 OA
HETATM   16  C   LIG     1       2.097   1.320  -0.701  1.00  0.00     0.238 C 
ENDBRANCH  12  15
ENDBRANCH   1   9
TORSDOF 2
