MODEL 1
REMARK VINA RESULT:      -6.0      0.000      0.000
REMARK  2 active torsions:
REMARK  status: ('A' for Active; 'I' for Inactive)
REMARK       I    between atoms: C_2  and  N_3 
REMARK       I    between atoms: C_2  and  N_12 
REMARK    1  A    between atoms: N_3  and  C_4 
REMARK    2  A    between atoms: N_12  and  O_14 
ROOT
HETATM    1  C   LIG     1      14.927  32.591  16.494  1.00  0.00     0.038 A 
HETATM    2  C   LIG     1      15.499  31.900  15.417  1.00  0.00     0.055 A 
HETATM    3  C   LIG     1      14.818  30.837  14.810  1.00  0.00     0.058 A 
HETATM    4 CL   LIG     1      15.582  29.988  13.473  1.00  0.00    -0.082 Cl
HETATM    5  C   LIG     1      13.543  30.469  15.273  1.00  0.00     0.055 A 
HETATM    6 CL   LIG     1      12.654  29.141  14.539  1.00  0.00    -0.083 Cl
HETATM    7  C   LIG     1      12.960  31.170  16.333  1.00  0.00     0.028 A 
HETATM    8  C   LIG     1      13.643  32.230  16.937  1.00  0.00     0.031 A 
ENDROOT
BRANCH   1   9
HETATM    9  N   LIG     1      15.640  33.690  17.085  1.00  0.00    -0.307 N 
HETATM   10  C   LIG     1      15.538  34.066  18.466  1.00  0.00     0.346 C 
HETATM   11  O   LIG     1      15.614  35.286  18.774  1.00  0.00    -0.245 OA
HETATM   12  N   LIG     1      15.416  33.073  19.503  1.00  0.00    -0.213 N 
HETATM   13  C   LIG     1      14.986  33.460  20.845  1.00  0.00     0.190 C 
HETATM   14  H   LIG     1      16.235  34.284  16.465  1.00  0.00     0.170 HD
BRANCH  12  15
HETATM   15  O   LIG     1      15.634  31.757  19.227  1.00  0.00    -0.279 OA
HETATM   16  C   LIG     1      14.888  31.013  20.159  1.00  0.00     0.238 C 
ENDBRANCH  12  15
ENDBRANCH   1   9
TORSDOF 2
ENDMDL
MODEL 2
REMARK VINA RESULT:      -6.0      7.584      9.432
REMARK  2 active torsions:
REMARK  status: ('A' for Active; 'I' for Inactive)
REMARK       I    between atoms: C_2  and  N_3 
REMARK       I    between atoms: C_2  and  N_12 
REMARK    1  A    between atoms: N_3  and  C_4 
REMARK    2  A    between atoms: N_12  and  O_14 
ROOT
HETATM    1  C   LIG     1      17.339  37.937  22.750  1.00  0.00     0.038 A 
HETATM    2  C   LIG     1      17.971  38.094  23.991  1.00  0.00     0.055 A 
HETATM    3  C   LIG     1      17.947  37.063  24.939  1.00  0.00     0.058 A 
HETATM    4 CL   LIG     1      18.740  37.312  26.488  1.00  0.00    -0.082 Cl
HETATM    5  C   LIG     1      17.297  35.854  24.639  1.00  0.00     0.055 A 
HETATM    6 CL   LIG     1      17.243  34.534  25.800  1.00  0.00    -0.083 Cl
HETATM    7  C   LIG     1      16.683  35.686  23.393  1.00  0.00     0.028 A 
HETATM    8  C   LIG     1      16.709  36.717  22.450  1.00  0.00     0.031 A 
ENDROOT
BRANCH   1   9
HETATM    9  N   LIG     1      17.396  39.004  21.789  1.00  0.00    -0.307 N 
HETATM   10  C   LIG     1      18.485  39.210  20.878  1.00  0.00     0.346 C 
HETATM   11  O   LIG     1      18.804  40.388  20.564  1.00  0.00    -0.245 OA
HETATM   12  N   LIG     1      19.169  38.098  20.270  1.00  0.00    -0.213 N 
HETATM   13  C   LIG     1      20.462  38.296  19.618  1.00  0.00     0.190 C 
HETATM   14  H   LIG     1      16.619  39.705  21.782  1.00  0.00     0.170 HD
BRANCH  12  15
HETATM   15  O   LIG     1      18.653  36.839  20.356  1.00  0.00    -0.279 OA
HETATM   16  C   LIG     1      18.190  36.497  19.072  1.00  0.00     0.238 C 
ENDBRANCH  12  15
ENDBRANCH   1   9
TORSDOF 2
ENDMDL
MODEL 3
REMARK VINA RESULT:      -5.5      6.367      8.476
REMARK  2 active torsions:
REMARK  status: ('A' for Active; 'I' for Inactive)
REMARK       I    between atoms: C_2  and  N_3 
REMARK       I    between atoms: C_2  and  N_12 
REMARK    1  A    between atoms: N_3  and  C_4 
REMARK    2  A    between atoms: N_12  and  O_14 
ROOT
HETATM    1  C   LIG     1      16.694  36.220  22.408  1.00  0.00     0.038 A 
HETATM    2  C   LIG     1      16.762  37.349  23.236  1.00  0.00     0.055 A 
HETATM    3  C   LIG     1      17.138  37.226  24.579  1.00  0.00     0.058 A 
HETATM    4 CL   LIG     1      17.194  38.669  25.583  1.00  0.00    -0.082 Cl
HETATM    5  C   LIG     1      17.467  35.963  25.099  1.00  0.00     0.055 A 
HETATM    6 CL   LIG     1      17.945  35.766  26.780  1.00  0.00    -0.083 Cl
HETATM    7  C   LIG     1      17.420  34.837  24.271  1.00  0.00     0.028 A 
HETATM    8  C   LIG     1      17.043  34.963  22.931  1.00  0.00     0.031 A 
ENDROOT
BRANCH   1   9
HETATM    9  N   LIG     1      16.322  36.377  21.028  1.00  0.00    -0.307 N 
HETATM   10  C   LIG     1      16.049  35.285  20.138  1.00  0.00     0.346 C 
HETATM   11  O   LIG     1      16.365  35.395  18.922  1.00  0.00    -0.245 OA
HETATM   12  N   LIG     1      15.367  34.103  20.596  1.00  0.00    -0.213 N 
HETATM   13  C   LIG     1      15.386  32.884  19.790  1.00  0.00     0.190 C 
HETATM   14  H   LIG     1      16.294  37.344  20.631  1.00  0.00     0.170 HD
BRANCH  12  15
HETATM   15  O   LIG     1      14.755  34.086  21.813  1.00  0.00    -0.279 OA
HETATM   16  C   LIG     1      13.922  32.952  21.839  1.00  0.00     0.238 C 
ENDBRANCH  12  15
ENDBRANCH   1   9
TORSDOF 2
ENDMDL
MODEL 4
REMARK VINA RESULT:      -5.3      7.614      8.917
REMARK  2 active torsions:
REMARK  status: ('A' for Active; 'I' for Inactive)
REMARK       I    between atoms: C_2  and  N_3 
REMARK       I    between atoms: C_2  and  N_12 
REMARK    1  A    between atoms: N_3  and  C_4 
REMARK    2  A    between atoms: N_12  and  O_14 
ROOT
HETATM    1  C   LIG     1      17.103  37.040  22.365  1.00  0.00     0.038 A 
HETATM    2  C   LIG     1      17.939  36.430  21.419  1.00  0.00     0.055 A 
HETATM    3  C   LIG     1      18.652  37.203  20.494  1.00  0.00     0.058 A 
HETATM    4 CL   LIG     1      19.675  36.392  19.316  1.00  0.00    -0.082 Cl
HETATM    5  C   LIG     1      18.543  38.603  20.523  1.00  0.00     0.055 A 
HETATM    6 CL   LIG     1      19.422  39.610  19.381  1.00  0.00    -0.083 Cl
HETATM    7  C   LIG     1      17.726  39.217  21.479  1.00  0.00     0.028 A 
HETATM    8  C   LIG     1      17.015  38.442  22.400  1.00  0.00     0.031 A 
ENDROOT
BRANCH   1   9
HETATM    9  N   LIG     1      16.397  36.223  23.314  1.00  0.00    -0.307 N 
HETATM   10  C   LIG     1      16.974  35.718  24.527  1.00  0.00     0.346 C 
HETATM   11  O   LIG     1      16.615  34.584  24.947  1.00  0.00    -0.245 OA
HETATM   12  N   LIG     1      17.899  36.507  25.299  1.00  0.00    -0.213 N 
HETATM   13  C   LIG     1      18.721  35.877  26.330  1.00  0.00     0.190 C 
HETATM   14  H   LIG     1      15.417  35.939  23.089  1.00  0.00     0.170 HD
BRANCH  12  15
HETATM   15  O   LIG     1      18.066  37.832  25.031  1.00  0.00    -0.279 OA
HETATM   16  C   LIG     1      17.249  38.540  25.932  1.00  0.00     0.238 C 
ENDBRANCH  12  15
ENDBRANCH   1   9
TORSDOF 2
ENDMDL
MODEL 5
REMARK VINA RESULT:      -4.9      4.243      5.792
REMARK  2 active torsions:
REMARK  status: ('A' for Active; 'I' for Inactive)
REMARK       I    between atoms: C_2  and  N_3 
REMARK       I    between atoms: C_2  and  N_12 
REMARK    1  A    between atoms: N_3  and  C_4 
REMARK    2  A    between atoms: N_12  and  O_14 
ROOT
HETATM    1  C   LIG     1      17.850  33.686  14.215  1.00  0.00     0.038 A 
HETATM    2  C   LIG     1      19.116  33.340  13.725  1.00  0.00     0.055 A 
HETATM    3  C   LIG     1      19.509  33.718  12.435  1.00  0.00     0.058 A 
HETATM    4 CL   LIG     1      21.101  33.246  11.856  1.00  0.00    -0.082 Cl
HETATM    5  C   LIG     1      18.633  34.466  11.629  1.00  0.00     0.055 A 
HETATM    6 CL   LIG     1      19.087  34.962  10.005  1.00  0.00    -0.083 Cl
HETATM    7  C   LIG     1      17.377  34.832  12.124  1.00  0.00     0.028 A 
HETATM    8  C   LIG     1      16.988  34.452  13.411  1.00  0.00     0.031 A 
ENDROOT
BRANCH   1   9
HETATM    9  N   LIG     1      17.480  33.301  15.550  1.00  0.00    -0.307 N 
HETATM   10  C   LIG     1      16.252  32.640  15.886  1.00  0.00     0.346 C 
HETATM   11  O   LIG     1      15.702  32.899  16.990  1.00  0.00    -0.245 OA
HETATM   12  N   LIG     1      15.678  31.646  15.017  1.00  0.00    -0.213 N 
HETATM   13  C   LIG     1      14.289  31.226  15.195  1.00  0.00     0.190 C 
HETATM   14  H   LIG     1      18.122  33.558  16.334  1.00  0.00     0.170 HD
BRANCH  12  15
HETATM   15  O   LIG     1      16.399  31.136  13.979  1.00  0.00    -0.279 OA
HETATM   16  C   LIG     1      15.553  30.251  13.286  1.00  0.00     0.238 C 
ENDBRANCH  12  15
ENDBRANCH   1   9
TORSDOF 2
ENDMDL
MODEL 6
REMARK VINA RESULT:      -4.9      4.593      6.617
REMARK  2 active torsions:
REMARK  status: ('A' for Active; 'I' for Inactive)
REMARK       I    between atoms: C_2  and  N_3 
REMARK       I    between atoms: C_2  and  N_12 
REMARK    1  A    between atoms: N_3  and  C_4 
REMARK    2  A    between atoms: N_12  and  O_14 
ROOT
HETATM    1  C   LIG     1      15.805  34.130  20.701  1.00  0.00     0.038 A 
HETATM    2  C   LIG     1      16.942  34.937  20.552  1.00  0.00     0.055 A 
HETATM    3  C   LIG     1      16.949  36.253  21.032  1.00  0.00     0.058 A 
HETATM    4 CL   LIG     1      18.393  37.232  20.808  1.00  0.00    -0.082 Cl
HETATM    5  C   LIG     1      15.814  36.766  21.681  1.00  0.00     0.055 A 
HETATM    6 CL   LIG     1      15.782  38.413  22.298  1.00  0.00    -0.083 Cl
HETATM    7  C   LIG     1      14.686  35.957  21.850  1.00  0.00     0.028 A 
HETATM    8  C   LIG     1      14.681  34.645  21.370  1.00  0.00     0.031 A 
ENDROOT
BRANCH   1   9
HETATM    9  N   LIG     1      15.832  32.777  20.216  1.00  0.00    -0.307 N 
HETATM   10  C   LIG     1      15.040  32.300  19.118  1.00  0.00     0.346 C 
HETATM   11  O   LIG     1      14.609  31.115  19.147  1.00  0.00    -0.245 OA
HETATM   12  N   LIG     1      14.788  33.125  17.966  1.00  0.00    -0.213 N 
HETATM   13  C   LIG     1      13.731  32.768  17.022  1.00  0.00     0.190 C 
HETATM   14  H   LIG     1      16.429  32.083  20.721  1.00  0.00     0.170 HD
BRANCH  12  15
HETATM   15  O   LIG     1      15.485  34.281  17.778  1.00  0.00    -0.279 OA
HETATM   16  C   LIG     1      15.861  34.319  16.423  1.00  0.00     0.238 C 
ENDBRANCH  12  15
ENDBRANCH   1   9
TORSDOF 2
ENDMDL
MODEL 7
REMARK VINA RESULT:      -4.7      6.849      8.851
REMARK  2 active torsions:
REMARK  status: ('A' for Active; 'I' for Inactive)
REMARK       I    between atoms: C_2  and  N_3 
REMARK       I    between atoms: C_2  and  N_12 
REMARK    1  A    between atoms: N_3  and  C_4 
REMARK    2  A    between atoms: N_12  and  O_14 
ROOT
HETATM    1  C   LIG     1      16.737  35.897  22.210  1.00  0.00     0.038 A 
HETATM    2  C   LIG     1      17.139  35.230  23.376  1.00  0.00     0.055 A 
HETATM    3  C   LIG     1      17.309  35.932  24.575  1.00  0.00     0.058 A 
HETATM    4 CL   LIG     1      17.831  35.057  26.008  1.00  0.00    -0.082 Cl
HETATM    5  C   LIG     1      17.060  37.315  24.617  1.00  0.00     0.055 A 
HETATM    6 CL   LIG     1      17.261  38.234  26.103  1.00  0.00    -0.083 Cl
HETATM    7  C   LIG     1      16.638  37.979  23.461  1.00  0.00     0.028 A 
HETATM    8  C   LIG     1      16.470  37.275  22.265  1.00  0.00     0.031 A 
ENDROOT
BRANCH   1   9
HETATM    9  N   LIG     1      16.552  35.148  20.997  1.00  0.00    -0.307 N 
HETATM   10  C   LIG     1      16.870  35.643  19.689  1.00  0.00     0.346 C 
HETATM   11  O   LIG     1      16.151  35.295  18.713  1.00  0.00    -0.245 OA
HETATM   12  N   LIG     1      18.025  36.474  19.465  1.00  0.00    -0.213 N 
HETATM   13  C   LIG     1      18.156  37.233  18.224  1.00  0.00     0.190 C 
HETATM   14  H   LIG     1      16.116  34.200  21.063  1.00  0.00     0.170 HD
BRANCH  12  15
HETATM   15  O   LIG     1      18.973  36.613  20.434  1.00  0.00    -0.279 OA
HETATM   16  C   LIG     1      19.542  37.889  20.272  1.00  0.00     0.238 C 
ENDBRANCH  12  15
ENDBRANCH   1   9
TORSDOF 2
ENDMDL
MODEL 8
REMARK VINA RESULT:      -4.6      7.252      8.900
REMARK  2 active torsions:
REMARK  status: ('A' for Active; 'I' for Inactive)
REMARK       I    between atoms: C_2  and  N_3 
REMARK       I    between atoms: C_2  and  N_12 
REMARK    1  A    between atoms: N_3  and  C_4 
REMARK    2  A    between atoms: N_12  and  O_14 
ROOT
HETATM    1  C   LIG     1      16.993  36.010  22.845  1.00  0.00     0.038 A 
HETATM    2  C   LIG     1      17.318  37.373  22.790  1.00  0.00     0.055 A 
HETATM    3  C   LIG     1      17.868  37.928  21.628  1.00  0.00     0.058 A 
HETATM    4 CL   LIG     1      18.275  39.638  21.611  1.00  0.00    -0.082 Cl
HETATM    5  C   LIG     1      18.082  37.116  20.500  1.00  0.00     0.055 A 
HETATM    6 CL   LIG     1      18.770  37.774  19.021  1.00  0.00    -0.083 Cl
HETATM    7  C   LIG     1      17.739  35.761  20.545  1.00  0.00     0.028 A 
HETATM    8  C   LIG     1      17.191  35.211  21.706  1.00  0.00     0.031 A 
ENDROOT
BRANCH   1   9
HETATM    9  N   LIG     1      16.413  35.471  24.045  1.00  0.00    -0.307 N 
HETATM   10  C   LIG     1      17.106  35.364  25.297  1.00  0.00     0.346 C 
HETATM   11  O   LIG     1      16.856  34.385  26.051  1.00  0.00    -0.245 OA
HETATM   12  N   LIG     1      18.027  36.383  25.729  1.00  0.00    -0.213 N 
HETATM   13  C   LIG     1      18.960  36.116  26.822  1.00  0.00     0.190 C 
HETATM   14  H   LIG     1      15.441  35.090  23.995  1.00  0.00     0.170 HD
BRANCH  12  15
HETATM   15  O   LIG     1      18.085  37.581  25.083  1.00  0.00    -0.279 OA
HETATM   16  C   LIG     1      17.318  38.491  25.834  1.00  0.00     0.238 C 
ENDBRANCH  12  15
ENDBRANCH   1   9
TORSDOF 2
ENDMDL
MODEL 9
REMARK VINA RESULT:      -4.6      4.489      6.122
REMARK  2 active torsions:
REMARK  status: ('A' for Active; 'I' for Inactive)
REMARK       I    between atoms: C_2  and  N_3 
REMARK       I    between atoms: C_2  and  N_12 
REMARK    1  A    between atoms: N_3  and  C_4 
REMARK    2  A    between atoms: N_12  and  O_14 
ROOT
HETATM    1  C   LIG     1      17.502  32.841  14.369  1.00  0.00     0.038 A 
HETATM    2  C   LIG     1      16.862  32.993  15.607  1.00  0.00     0.055 A 
HETATM    3  C   LIG     1      15.633  32.369  15.856  1.00  0.00     0.058 A 
HETATM    4 CL   LIG     1      14.861  32.604  17.419  1.00  0.00    -0.082 Cl
HETATM    5  C   LIG     1      15.043  31.569  14.864  1.00  0.00     0.055 A 
HETATM    6 CL   LIG     1      13.502  30.767  15.137  1.00  0.00    -0.083 Cl
HETATM    7  C   LIG     1      15.688  31.397  13.635  1.00  0.00     0.028 A 
HETATM    8  C   LIG     1      16.913  32.022  13.389  1.00  0.00     0.031 A 
ENDROOT
BRANCH   1   9
HETATM    9  N   LIG     1      18.771  33.478  14.147  1.00  0.00    -0.307 N 
HETATM   10  C   LIG     1      19.203  33.989  12.878  1.00  0.00     0.346 C 
HETATM   11  O   LIG     1      20.427  33.924  12.579  1.00  0.00    -0.245 OA
HETATM   12  N   LIG     1      18.280  34.629  11.977  1.00  0.00    -0.213 N 
HETATM   13  C   LIG     1      18.646  34.845  10.579  1.00  0.00     0.190 C 
HETATM   14  H   LIG     1      19.443  33.532  14.946  1.00  0.00     0.170 HD
BRANCH  12  15
HETATM   15  O   LIG     1      17.033  34.979  12.401  1.00  0.00    -0.279 OA
HETATM   16  C   LIG     1      16.436  35.714  11.360  1.00  0.00     0.238 C 
ENDBRANCH  12  15
ENDBRANCH   1   9
TORSDOF 2
ENDMDL
MODEL 10
REMARK VINA RESULT:      -4.5     21.169     22.807
REMARK  2 active torsions:
REMARK  status: ('A' for Active; 'I' for Inactive)
REMARK       I    between atoms: C_2  and  N_3 
REMARK       I    between atoms: C_2  and  N_12 
REMARK    1  A    between atoms: N_3  and  C_4 
REMARK    2  A    between atoms: N_12  and  O_14 
ROOT
HETATM    1  C   LIG     1      26.829  29.748  34.710  1.00  0.00     0.038 A 
HETATM    2  C   LIG     1      26.199  30.309  35.830  1.00  0.00     0.055 A 
HETATM    3  C   LIG     1      26.920  31.103  36.730  1.00  0.00     0.058 A 
HETATM    4 CL   LIG     1      26.091  31.771  38.129  1.00  0.00    -0.082 Cl
HETATM    5  C   LIG     1      28.284  31.356  36.501  1.00  0.00     0.055 A 
HETATM    6 CL   LIG     1      29.225  32.349  37.606  1.00  0.00    -0.083 Cl
HETATM    7  C   LIG     1      28.910  30.816  35.374  1.00  0.00     0.028 A 
HETATM    8  C   LIG     1      28.188  30.022  34.478  1.00  0.00     0.031 A 
ENDROOT
BRANCH   1   9
HETATM    9  N   LIG     1      26.061  28.951  33.793  1.00  0.00    -0.307 N 
HETATM   10  C   LIG     1      26.423  27.626  33.379  1.00  0.00     0.346 C 
HETATM   11  O   LIG     1      26.154  27.259  32.203  1.00  0.00    -0.245 OA
HETATM   12  N   LIG     1      27.024  26.695  34.299  1.00  0.00    -0.213 N 
HETATM   13  C   LIG     1      27.682  25.489  33.801  1.00  0.00     0.190 C 
HETATM   14  H   LIG     1      25.209  29.377  33.362  1.00  0.00     0.170 HD
BRANCH  12  15
HETATM   15  O   LIG     1      27.046  26.962  35.635  1.00  0.00    -0.279 OA
HETATM   16  C   LIG     1      28.329  26.619  36.101  1.00  0.00     0.238 C 
ENDBRANCH  12  15
ENDBRANCH   1   9
TORSDOF 2
ENDMDL
MODEL 11
REMARK VINA RESULT:      -4.5      5.442      6.959
REMARK  2 active torsions:
REMARK  status: ('A' for Active; 'I' for Inactive)
REMARK       I    between atoms: C_2  and  N_3 
REMARK       I    between atoms: C_2  and  N_12 
REMARK    1  A    between atoms: N_3  and  C_4 
REMARK    2  A    between atoms: N_12  and  O_14 
ROOT
HETATM    1  C   LIG     1      17.313  33.963  12.816  1.00  0.00     0.038 A 
HETATM    2  C   LIG     1      16.510  32.814  12.785  1.00  0.00     0.055 A 
HETATM    3  C   LIG     1      16.130  32.178  13.973  1.00  0.00     0.058 A 
HETATM    4 CL   LIG     1      15.137  30.730  13.884  1.00  0.00    -0.082 Cl
HETATM    5  C   LIG     1      16.543  32.704  15.209  1.00  0.00     0.055 A 
HETATM    6 CL   LIG     1      16.087  31.936  16.725  1.00  0.00    -0.083 Cl
HETATM    7  C   LIG     1      17.326  33.862  15.245  1.00  0.00     0.028 A 
HETATM    8  C   LIG     1      17.704  34.493  14.057  1.00  0.00     0.031 A 
ENDROOT
BRANCH   1   9
HETATM    9  N   LIG     1      17.673  34.606  11.581  1.00  0.00    -0.307 N 
HETATM   10  C   LIG     1      19.022  34.765  11.120  1.00  0.00     0.346 C 
HETATM   11  O   LIG     1      19.326  35.803  10.471  1.00  0.00    -0.245 OA
HETATM   12  N   LIG     1      20.008  33.737  11.329  1.00  0.00    -0.213 N 
HETATM   13  C   LIG     1      21.429  34.035  11.159  1.00  0.00     0.190 C 
HETATM   14  H   LIG     1      16.910  35.026  11.003  1.00  0.00     0.170 HD
BRANCH  12  15
HETATM   15  O   LIG     1      19.634  32.497  11.753  1.00  0.00    -0.279 OA
HETATM   16  C   LIG     1      19.729  31.638  10.643  1.00  0.00     0.238 C 
ENDBRANCH  12  15
ENDBRANCH   1   9
TORSDOF 2
ENDMDL
MODEL 12
REMARK VINA RESULT:      -4.3      2.660      4.191
REMARK  2 active torsions:
REMARK  status: ('A' for Active; 'I' for Inactive)
REMARK       I    between atoms: C_2  and  N_3 
REMARK       I    between atoms: C_2  and  N_12 
REMARK    1  A    between atoms: N_3  and  C_4 
REMARK    2  A    between atoms: N_12  and  O_14 
ROOT
HETATM    1  C   LIG     1      14.417  30.518  15.221  1.00  0.00     0.038 A 
HETATM    2  C   LIG     1      13.212  29.968  14.762  1.00  0.00     0.055 A 
HETATM    3  C   LIG     1      13.214  28.836  13.937  1.00  0.00     0.058 A 
HETATM    4 CL   LIG     1      11.678  28.192  13.373  1.00  0.00    -0.082 Cl
HETATM    5  C   LIG     1      14.432  28.236  13.577  1.00  0.00     0.055 A 
HETATM    6 CL   LIG     1      14.478  26.814  12.543  1.00  0.00    -0.083 Cl
HETATM    7  C   LIG     1      15.635  28.770  14.049  1.00  0.00     0.028 A 
HETATM    8  C   LIG     1      15.630  29.899  14.872  1.00  0.00     0.031 A 
ENDROOT
BRANCH   1   9
HETATM    9  N   LIG     1      14.386  31.668  16.082  1.00  0.00    -0.307 N 
HETATM   10  C   LIG     1      15.454  32.619  16.194  1.00  0.00     0.346 C 
HETATM   11  O   LIG     1      15.675  33.160  17.312  1.00  0.00    -0.245 OA
HETATM   12  N   LIG     1      16.228  33.011  15.045  1.00  0.00    -0.213 N 
HETATM   13  C   LIG     1      17.500  33.710  15.217  1.00  0.00     0.190 C 
HETATM   14  H   LIG     1      13.554  31.798  16.702  1.00  0.00     0.170 HD
BRANCH  12  15
HETATM   15  O   LIG     1      15.819  32.675  13.789  1.00  0.00    -0.279 OA
HETATM   16  C   LIG     1      16.942  32.777  12.949  1.00  0.00     0.238 C 
ENDBRANCH  12  15
ENDBRANCH   1   9
TORSDOF 2
ENDMDL
MODEL 13
REMARK VINA RESULT:      -4.2      3.575      5.093
REMARK  2 active torsions:
REMARK  status: ('A' for Active; 'I' for Inactive)
REMARK       I    between atoms: C_2  and  N_3 
REMARK       I    between atoms: C_2  and  N_12 
REMARK    1  A    between atoms: N_3  and  C_4 
REMARK    2  A    between atoms: N_12  and  O_14 
ROOT
HETATM    1  C   LIG     1      15.628  32.943  16.679  1.00  0.00     0.038 A 
HETATM    2  C   LIG     1      15.525  31.925  17.637  1.00  0.00     0.055 A 
HETATM    3  C   LIG     1      15.294  32.233  18.983  1.00  0.00     0.058 A 
HETATM    4 CL   LIG     1      15.187  30.923  20.151  1.00  0.00    -0.082 Cl
HETATM    5  C   LIG     1      15.148  33.574  19.377  1.00  0.00     0.055 A 
HETATM    6 CL   LIG     1      14.856  34.004  21.057  1.00  0.00    -0.083 Cl
HETATM    7  C   LIG     1      15.230  34.592  18.421  1.00  0.00     0.028 A 
HETATM    8  C   LIG     1      15.461  34.280  17.079  1.00  0.00     0.031 A 
ENDROOT
BRANCH   1   9
HETATM    9  N   LIG     1      15.847  32.597  15.301  1.00  0.00    -0.307 N 
HETATM   10  C   LIG     1      15.365  31.393  14.687  1.00  0.00     0.346 C 
HETATM   11  O   LIG     1      16.061  30.844  13.791  1.00  0.00    -0.245 OA
HETATM   12  N   LIG     1      14.078  30.845  15.031  1.00  0.00    -0.213 N 
HETATM   13  C   LIG     1      13.741  29.472  14.660  1.00  0.00     0.190 C 
HETATM   14  H   LIG     1      16.434  33.236  14.718  1.00  0.00     0.170 HD
BRANCH  12  15
HETATM   15  O   LIG     1      13.190  31.574  15.762  1.00  0.00    -0.279 OA
HETATM   16  C   LIG     1      12.516  30.673  16.607  1.00  0.00     0.238 C 
ENDBRANCH  12  15
ENDBRANCH   1   9
TORSDOF 2
ENDMDL
MODEL 14
REMARK VINA RESULT:      -4.0     14.008     15.082
REMARK  2 active torsions:
REMARK  status: ('A' for Active; 'I' for Inactive)
REMARK       I    between atoms: C_2  and  N_3 
REMARK       I    between atoms: C_2  and  N_12 
REMARK    1  A    between atoms: N_3  and  C_4 
REMARK    2  A    between atoms: N_12  and  O_14 
ROOT
HETATM    1  C   LIG     1      26.204  22.811  21.168  1.00  0.00     0.038 A 
HETATM    2  C   LIG     1      24.870  22.990  21.560  1.00  0.00     0.055 A 
HETATM    3  C   LIG     1      23.821  22.614  20.712  1.00  0.00     0.058 A 
HETATM    4 CL   LIG     1      22.164  22.873  21.241  1.00  0.00    -0.082 Cl
HETATM    5  C   LIG     1      24.106  22.036  19.464  1.00  0.00     0.055 A 
HETATM    6 CL   LIG     1      22.818  21.549  18.369  1.00  0.00    -0.083 Cl
HETATM    7  C   LIG     1      25.435  21.836  19.078  1.00  0.00     0.028 A 
HETATM    8  C   LIG     1      26.479  22.214  19.926  1.00  0.00     0.031 A 
ENDROOT
BRANCH   1   9
HETATM    9  N   LIG     1      27.261  23.189  22.066  1.00  0.00    -0.307 N 
HETATM   10  C   LIG     1      28.378  24.008  21.694  1.00  0.00     0.346 C 
HETATM   11  O   LIG     1      29.501  23.786  22.224  1.00  0.00    -0.245 OA
HETATM   12  N   LIG     1      28.224  25.112  20.782  1.00  0.00    -0.213 N 
HETATM   13  C   LIG     1      29.397  25.723  20.161  1.00  0.00     0.190 C 
HETATM   14  H   LIG     1      27.242  22.808  23.039  1.00  0.00     0.170 HD
BRANCH  12  15
HETATM   15  O   LIG     1      26.982  25.554  20.438  1.00  0.00    -0.279 OA
HETATM   16  C   LIG     1      27.006  25.810  19.055  1.00  0.00     0.238 C 
ENDBRANCH  12  15
ENDBRANCH   1   9
TORSDOF 2
ENDMDL
MODEL 15
REMARK VINA RESULT:      -4.0     20.277     21.702
REMARK  2 active torsions:
REMARK  status: ('A' for Active; 'I' for Inactive)
REMARK       I    between atoms: C_2  and  N_3 
REMARK       I    between atoms: C_2  and  N_12 
REMARK    1  A    between atoms: N_3  and  C_4 
REMARK    2  A    between atoms: N_12  and  O_14 
ROOT
HETATM    1  C   LIG     1      20.641  22.597  34.101  1.00  0.00     0.038 A 
HETATM    2  C   LIG     1      22.013  22.363  34.269  1.00  0.00     0.055 A 
HETATM    3  C   LIG     1      22.662  22.750  35.449  1.00  0.00     0.058 A 
HETATM    4 CL   LIG     1      24.387  22.451  35.608  1.00  0.00    -0.082 Cl
HETATM    5  C   LIG     1      21.930  23.362  36.480  1.00  0.00     0.055 A 
HETATM    6 CL   LIG     1      22.706  23.862  37.977  1.00  0.00    -0.083 Cl
HETATM    7  C   LIG     1      20.557  23.578  36.324  1.00  0.00     0.028 A 
HETATM    8  C   LIG     1      19.912  23.192  35.145  1.00  0.00     0.031 A 
ENDROOT
BRANCH   1   9
HETATM    9  N   LIG     1      19.996  22.173  32.887  1.00  0.00    -0.307 N 
HETATM   10  C   LIG     1      20.020  20.827  32.392  1.00  0.00     0.346 C 
HETATM   11  O   LIG     1      20.043  20.636  31.145  1.00  0.00    -0.245 OA
HETATM   12  N   LIG     1      19.951  19.701  33.287  1.00  0.00    -0.213 N 
HETATM   13  C   LIG     1      20.303  18.363  32.815  1.00  0.00     0.190 C 
HETATM   14  H   LIG     1      19.519  22.897  32.303  1.00  0.00     0.170 HD
BRANCH  12  15
HETATM   15  O   LIG     1      19.624  19.879  34.597  1.00  0.00    -0.279 OA
HETATM   16  C   LIG     1      18.693  18.878  34.929  1.00  0.00     0.238 C 
ENDBRANCH  12  15
ENDBRANCH   1   9
TORSDOF 2
ENDMDL
MODEL 16
REMARK VINA RESULT:      -4.0     14.068     15.169
REMARK  2 active torsions:
REMARK  status: ('A' for Active; 'I' for Inactive)
REMARK       I    between atoms: C_2  and  N_3 
REMARK       I    between atoms: C_2  and  N_12 
REMARK    1  A    between atoms: N_3  and  C_4 
REMARK    2  A    between atoms: N_12  and  O_14 
ROOT
HETATM    1  C   LIG     1      26.225  22.222  20.640  1.00  0.00     0.038 A 
HETATM    2  C   LIG     1      25.325  21.987  19.591  1.00  0.00     0.055 A 
HETATM    3  C   LIG     1      23.950  22.178  19.776  1.00  0.00     0.058 A 
HETATM    4 CL   LIG     1      22.859  21.854  18.436  1.00  0.00    -0.082 Cl
HETATM    5  C   LIG     1      23.468  22.624  21.017  1.00  0.00     0.055 A 
HETATM    6 CL   LIG     1      21.749  22.876  21.290  1.00  0.00    -0.083 Cl
HETATM    7  C   LIG     1      24.364  22.880  22.060  1.00  0.00     0.028 A 
HETATM    8  C   LIG     1      25.736  22.688  21.872  1.00  0.00     0.031 A 
ENDROOT
BRANCH   1   9
HETATM    9  N   LIG     1      27.633  22.037  20.417  1.00  0.00    -0.307 N 
HETATM   10  C   LIG     1      28.395  22.758  19.438  1.00  0.00     0.346 C 
HETATM   11  O   LIG     1      29.346  22.172  18.852  1.00  0.00    -0.245 OA
HETATM   12  N   LIG     1      28.134  24.147  19.165  1.00  0.00    -0.213 N 
HETATM   13  C   LIG     1      28.675  24.775  17.961  1.00  0.00     0.190 C 
HETATM   14  H   LIG     1      28.128  21.298  20.968  1.00  0.00     0.170 HD
BRANCH  12  15
HETATM   15  O   LIG     1      27.327  24.873  19.989  1.00  0.00    -0.279 OA
HETATM   16  C   LIG     1      26.418  25.565  19.168  1.00  0.00     0.238 C 
ENDBRANCH  12  15
ENDBRANCH   1   9
TORSDOF 2
ENDMDL
MODEL 17
REMARK VINA RESULT:      -3.9     14.896     16.075
REMARK  2 active torsions:
REMARK  status: ('A' for Active; 'I' for Inactive)
REMARK       I    between atoms: C_2  and  N_3 
REMARK       I    between atoms: C_2  and  N_12 
REMARK    1  A    between atoms: N_3  and  C_4 
REMARK    2  A    between atoms: N_12  and  O_14 
ROOT
HETATM    1  C   LIG     1      22.931  19.643  18.180  1.00  0.00     0.038 A 
HETATM    2  C   LIG     1      23.081  19.168  19.490  1.00  0.00     0.055 A 
HETATM    3  C   LIG     1      23.207  20.060  20.562  1.00  0.00     0.058 A 
HETATM    4 CL   LIG     1      23.409  19.417  22.186  1.00  0.00    -0.082 Cl
HETATM    5  C   LIG     1      23.167  21.445  20.326  1.00  0.00     0.055 A 
HETATM    6 CL   LIG     1      23.322  22.599  21.644  1.00  0.00    -0.083 Cl
HETATM    7  C   LIG     1      22.997  21.923  19.023  1.00  0.00     0.028 A 
HETATM    8  C   LIG     1      22.872  21.029  17.956  1.00  0.00     0.031 A 
ENDROOT
BRANCH   1   9
HETATM    9  N   LIG     1      22.785  18.705  17.101  1.00  0.00    -0.307 N 
HETATM   10  C   LIG     1      23.612  18.690  15.929  1.00  0.00     0.346 C 
HETATM   11  O   LIG     1      23.101  18.358  14.825  1.00  0.00    -0.245 OA
HETATM   12  N   LIG     1      25.020  18.984  16.006  1.00  0.00    -0.213 N 
HETATM   13  C   LIG     1      25.775  19.289  14.792  1.00  0.00     0.190 C 
HETATM   14  H   LIG     1      21.999  18.017  17.147  1.00  0.00     0.170 HD
BRANCH  12  15
HETATM   15  O   LIG     1      25.647  19.048  17.214  1.00  0.00    -0.279 OA
HETATM   16  C   LIG     1      26.483  20.179  17.184  1.00  0.00     0.238 C 
ENDBRANCH  12  15
ENDBRANCH   1   9
TORSDOF 2
ENDMDL
MODEL 18
REMARK VINA RESULT:      -3.8     13.938     15.159
REMARK  2 active torsions:
REMARK  status: ('A' for Active; 'I' for Inactive)
REMARK       I    between atoms: C_2  and  N_3 
REMARK       I    between atoms: C_2  and  N_12 
REMARK    1  A    between atoms: N_3  and  C_4 
REMARK    2  A    between atoms: N_12  and  O_14 
ROOT
HETATM    1  C   LIG     1      26.033  22.644  19.753  1.00  0.00     0.038 A 
HETATM    2  C   LIG     1      26.938  23.235  20.646  1.00  0.00     0.055 A 
HETATM    3  C   LIG     1      27.443  24.518  20.404  1.00  0.00     0.058 A 
HETATM    4 CL   LIG     1      28.588  25.212  21.545  1.00  0.00    -0.082 Cl
HETATM    5  C   LIG     1      27.029  25.229  19.265  1.00  0.00     0.055 A 
HETATM    6 CL   LIG     1      27.639  26.843  18.924  1.00  0.00    -0.083 Cl
HETATM    7  C   LIG     1      26.111  24.651  18.382  1.00  0.00     0.028 A 
HETATM    8  C   LIG     1      25.609  23.370  18.626  1.00  0.00     0.031 A 
ENDROOT
BRANCH   1   9
HETATM    9  N   LIG     1      25.516  21.333  20.035  1.00  0.00    -0.307 N 
HETATM   10  C   LIG     1      24.960  20.943  21.299  1.00  0.00     0.346 C 
HETATM   11  O   LIG     1      25.128  19.760  21.701  1.00  0.00    -0.245 OA
HETATM   12  N   LIG     1      24.163  21.856  22.077  1.00  0.00    -0.213 N 
HETATM   13  C   LIG     1      23.883  21.573  23.484  1.00  0.00     0.190 C 
HETATM   14  H   LIG     1      25.591  20.602  19.292  1.00  0.00     0.170 HD
BRANCH  12  15
HETATM   15  O   LIG     1      23.719  23.023  21.532  1.00  0.00    -0.279 OA
HETATM   16  C   LIG     1      22.342  22.865  21.289  1.00  0.00     0.238 C 
ENDBRANCH  12  15
ENDBRANCH   1   9
TORSDOF 2
ENDMDL
MODEL 19
REMARK VINA RESULT:      -3.8     14.246     15.103
REMARK  2 active torsions:
REMARK  status: ('A' for Active; 'I' for Inactive)
REMARK       I    between atoms: C_2  and  N_3 
REMARK       I    between atoms: C_2  and  N_12 
REMARK    1  A    between atoms: N_3  and  C_4 
REMARK    2  A    between atoms: N_12  and  O_14 
ROOT
HETATM    1  C   LIG     1      25.630  23.725  18.808  1.00  0.00     0.038 A 
HETATM    2  C   LIG     1      24.747  22.783  18.263  1.00  0.00     0.055 A 
HETATM    3  C   LIG     1      23.930  22.007  19.095  1.00  0.00     0.058 A 
HETATM    4 CL   LIG     1      22.850  20.827  18.366  1.00  0.00    -0.082 Cl
HETATM    5  C   LIG     1      23.984  22.184  20.488  1.00  0.00     0.055 A 
HETATM    6 CL   LIG     1      22.975  21.231  21.567  1.00  0.00    -0.083 Cl
HETATM    7  C   LIG     1      24.849  23.138  21.034  1.00  0.00     0.028 A 
HETATM    8  C   LIG     1      25.663  23.910  20.201  1.00  0.00     0.031 A 
ENDROOT
BRANCH   1   9
HETATM    9  N   LIG     1      26.443  24.522  17.929  1.00  0.00    -0.307 N 
HETATM   10  C   LIG     1      27.875  24.583  17.993  1.00  0.00     0.346 C 
HETATM   11  O   LIG     1      28.452  25.670  17.716  1.00  0.00    -0.245 OA
HETATM   12  N   LIG     1      28.659  23.416  18.304  1.00  0.00    -0.213 N 
HETATM   13  C   LIG     1      30.063  23.553  18.688  1.00  0.00     0.190 C 
HETATM   14  H   LIG     1      25.963  25.131  17.229  1.00  0.00     0.170 HD
BRANCH  12  15
HETATM   15  O   LIG     1      28.085  22.180  18.309  1.00  0.00    -0.279 OA
HETATM   16  C   LIG     1      28.377  21.587  17.067  1.00  0.00     0.238 C 
ENDBRANCH  12  15
ENDBRANCH   1   9
TORSDOF 2
ENDMDL
MODEL 20
REMARK VINA RESULT:      -3.7     13.972     14.886
REMARK  2 active torsions:
REMARK  status: ('A' for Active; 'I' for Inactive)
REMARK       I    between atoms: C_2  and  N_3 
REMARK       I    between atoms: C_2  and  N_12 
REMARK    1  A    between atoms: N_3  and  C_4 
REMARK    2  A    between atoms: N_12  and  O_14 
ROOT
HETATM    1  C   LIG     1      23.980  21.334  18.635  1.00  0.00     0.038 A 
HETATM    2  C   LIG     1      22.801  20.652  18.304  1.00  0.00     0.055 A 
HETATM    3  C   LIG     1      22.819  19.613  17.365  1.00  0.00     0.058 A 
HETATM    4 CL   LIG     1      21.312  18.798  16.969  1.00  0.00    -0.082 Cl
HETATM    5  C   LIG     1      24.031  19.239  16.761  1.00  0.00     0.055 A 
HETATM    6 CL   LIG     1      24.096  17.939  15.577  1.00  0.00    -0.083 Cl
HETATM    7  C   LIG     1      25.213  19.903  17.105  1.00  0.00     0.028 A 
HETATM    8  C   LIG     1      25.191  20.939  18.041  1.00  0.00     0.031 A 
ENDROOT
BRANCH   1   9
HETATM    9  N   LIG     1      23.936  22.384  19.616  1.00  0.00    -0.307 N 
HETATM   10  C   LIG     1      23.445  22.216  20.954  1.00  0.00     0.346 C 
HETATM   11  O   LIG     1      22.844  23.176  21.508  1.00  0.00    -0.245 OA
HETATM   12  N   LIG     1      23.684  21.001  21.689  1.00  0.00    -0.213 N 
HETATM   13  C   LIG     1      22.915  20.709  22.898  1.00  0.00     0.190 C 
HETATM   14  H   LIG     1      24.237  23.343  19.328  1.00  0.00     0.170 HD
BRANCH  12  15
HETATM   15  O   LIG     1      24.578  20.081  21.231  1.00  0.00    -0.279 OA
HETATM   16  C   LIG     1      23.977  18.817  21.373  1.00  0.00     0.238 C 
ENDBRANCH  12  15
ENDBRANCH   1   9
TORSDOF 2
ENDMDL
