MODEL 1
REMARK VINA RESULT:      -6.1      0.000      0.000
REMARK  1 active torsions:
REMARK  status: ('A' for Active; 'I' for Inactive)
REMARK    1  A    between atoms: C_8  and  C_9 
ROOT
HETATM    1 CL   LIG     1      17.452  32.565  15.287  1.00  0.00    -0.083 Cl
HETATM    2  C   LIG     1      15.943  31.673  15.115  1.00  0.00     0.046 A 
HETATM    3  C   LIG     1      15.770  30.871  13.983  1.00  0.00     0.025 A 
HETATM    4  C   LIG     1      14.603  30.124  13.818  1.00  0.00     0.003 A 
HETATM    5  C   LIG     1      13.598  30.174  14.786  1.00  0.00     0.025 A 
HETATM    6  C   LIG     1      13.755  30.971  15.926  1.00  0.00     0.046 A 
HETATM    7 CL   LIG     1      12.439  31.024  17.096  1.00  0.00    -0.083 Cl
HETATM    8  C   LIG     1      14.932  31.731  16.100  1.00  0.00     0.018 A 
ENDROOT
BRANCH   8   9
HETATM    9  C   LIG     1      15.106  32.576  17.302  1.00  0.00    -0.023 A 
HETATM   10  C   LIG     1      15.277  31.985  18.564  1.00  0.00     0.012 A 
HETATM   11  C   LIG     1      15.440  32.787  19.697  1.00  0.00     0.001 A 
HETATM   12  C   LIG     1      15.434  34.179  19.578  1.00  0.00     0.000 A 
HETATM   13  C   LIG     1      15.264  34.774  18.325  1.00  0.00     0.001 A 
HETATM   14  C   LIG     1      15.100  33.975  17.187  1.00  0.00     0.012 A 
ENDBRANCH   8   9
TORSDOF 1
ENDMDL
MODEL 2
REMARK VINA RESULT:      -6.1      2.378      4.060
REMARK  1 active torsions:
REMARK  status: ('A' for Active; 'I' for Inactive)
REMARK    1  A    between atoms: C_8  and  C_9 
ROOT
HETATM    1 CL   LIG     1      15.099  34.069  16.948  1.00  0.00    -0.083 Cl
HETATM    2  C   LIG     1      14.526  32.521  16.332  1.00  0.00     0.046 A 
HETATM    3  C   LIG     1      13.388  31.954  16.913  1.00  0.00     0.025 A 
HETATM    4  C   LIG     1      12.881  30.744  16.440  1.00  0.00     0.003 A 
HETATM    5  C   LIG     1      13.510  30.090  15.379  1.00  0.00     0.025 A 
HETATM    6  C   LIG     1      14.650  30.643  14.784  1.00  0.00     0.046 A 
HETATM    7 CL   LIG     1      15.423  29.755  13.474  1.00  0.00    -0.083 Cl
HETATM    8  C   LIG     1      15.170  31.867  15.258  1.00  0.00     0.018 A 
ENDROOT
BRANCH   8   9
HETATM    9  C   LIG     1      16.374  32.459  14.635  1.00  0.00    -0.023 A 
HETATM   10  C   LIG     1      17.574  32.546  15.358  1.00  0.00     0.012 A 
HETATM   11  C   LIG     1      18.711  33.105  14.766  1.00  0.00     0.001 A 
HETATM   12  C   LIG     1      18.656  33.580  13.453  1.00  0.00     0.000 A 
HETATM   13  C   LIG     1      17.463  33.496  12.727  1.00  0.00     0.001 A 
HETATM   14  C   LIG     1      16.324  32.937  13.316  1.00  0.00     0.012 A 
ENDBRANCH   8   9
TORSDOF 1
ENDMDL
MODEL 3
REMARK VINA RESULT:      -6.0      6.022      9.401
REMARK  1 active torsions:
REMARK  status: ('A' for Active; 'I' for Inactive)
REMARK    1  A    between atoms: C_8  and  C_9 
ROOT
HETATM    1 CL   LIG     1      16.509  39.550  22.392  1.00  0.00    -0.083 Cl
HETATM    2  C   LIG     1      16.973  38.490  23.721  1.00  0.00     0.046 A 
HETATM    3  C   LIG     1      17.353  39.073  24.934  1.00  0.00     0.025 A 
HETATM    4  C   LIG     1      17.701  38.273  26.023  1.00  0.00     0.003 A 
HETATM    5  C   LIG     1      17.672  36.882  25.907  1.00  0.00     0.025 A 
HETATM    6  C   LIG     1      17.293  36.282  24.701  1.00  0.00     0.046 A 
HETATM    7 CL   LIG     1      17.309  34.523  24.601  1.00  0.00    -0.083 Cl
HETATM    8  C   LIG     1      16.939  37.084  23.593  1.00  0.00     0.018 A 
ENDROOT
BRANCH   8   9
HETATM    9  C   LIG     1      16.538  36.458  22.315  1.00  0.00    -0.023 A 
HETATM   10  C   LIG     1      15.212  36.040  22.117  1.00  0.00     0.012 A 
HETATM   11  C   LIG     1      14.836  35.449  20.907  1.00  0.00     0.001 A 
HETATM   12  C   LIG     1      15.779  35.271  19.891  1.00  0.00     0.000 A 
HETATM   13  C   LIG     1      17.100  35.685  20.081  1.00  0.00     0.001 A 
HETATM   14  C   LIG     1      17.481  36.278  21.290  1.00  0.00     0.012 A 
ENDBRANCH   8   9
TORSDOF 1
ENDMDL
MODEL 4
REMARK VINA RESULT:      -6.0      6.038      9.499
REMARK  1 active torsions:
REMARK  status: ('A' for Active; 'I' for Inactive)
REMARK    1  A    between atoms: C_8  and  C_9 
ROOT
HETATM    1 CL   LIG     1      17.329  34.497  24.625  1.00  0.00    -0.083 Cl
HETATM    2  C   LIG     1      17.305  36.256  24.734  1.00  0.00     0.046 A 
HETATM    3  C   LIG     1      17.679  36.852  25.942  1.00  0.00     0.025 A 
HETATM    4  C   LIG     1      17.702  38.241  26.066  1.00  0.00     0.003 A 
HETATM    5  C   LIG     1      17.350  39.046  24.982  1.00  0.00     0.025 A 
HETATM    6  C   LIG     1      16.973  38.467  23.765  1.00  0.00     0.046 A 
HETATM    7 CL   LIG     1      16.504  39.531  22.442  1.00  0.00    -0.083 Cl
HETATM    8  C   LIG     1      16.946  37.061  23.631  1.00  0.00     0.018 A 
ENDROOT
BRANCH   8   9
HETATM    9  C   LIG     1      16.549  36.441  22.348  1.00  0.00    -0.023 A 
HETATM   10  C   LIG     1      15.223  36.032  22.140  1.00  0.00     0.012 A 
HETATM   11  C   LIG     1      14.850  35.446  20.927  1.00  0.00     0.001 A 
HETATM   12  C   LIG     1      15.799  35.264  19.916  1.00  0.00     0.000 A 
HETATM   13  C   LIG     1      17.121  35.669  20.117  1.00  0.00     0.001 A 
HETATM   14  C   LIG     1      17.498  36.256  21.329  1.00  0.00     0.012 A 
ENDBRANCH   8   9
TORSDOF 1
ENDMDL
MODEL 5
REMARK VINA RESULT:      -5.7      7.144      9.371
REMARK  1 active torsions:
REMARK  status: ('A' for Active; 'I' for Inactive)
REMARK    1  A    between atoms: C_8  and  C_9 
ROOT
HETATM    1 CL   LIG     1      20.103  39.255  23.228  1.00  0.00    -0.083 Cl
HETATM    2  C   LIG     1      18.623  38.360  23.562  1.00  0.00     0.046 A 
HETATM    3  C   LIG     1      18.238  38.184  24.894  1.00  0.00     0.025 A 
HETATM    4  C   LIG     1      17.059  37.507  25.205  1.00  0.00     0.003 A 
HETATM    5  C   LIG     1      16.254  36.999  24.184  1.00  0.00     0.025 A 
HETATM    6  C   LIG     1      16.623  37.167  22.845  1.00  0.00     0.046 A 
HETATM    7 CL   LIG     1      15.587  36.474  21.599  1.00  0.00    -0.083 Cl
HETATM    8  C   LIG     1      17.815  37.851  22.521  1.00  0.00     0.018 A 
ENDROOT
BRANCH   8   9
HETATM    9  C   LIG     1      18.213  38.032  21.108  1.00  0.00    -0.023 A 
HETATM   10  C   LIG     1      18.433  36.916  20.286  1.00  0.00     0.012 A 
HETATM   11  C   LIG     1      18.809  37.091  18.951  1.00  0.00     0.001 A 
HETATM   12  C   LIG     1      18.966  38.378  18.429  1.00  0.00     0.000 A 
HETATM   13  C   LIG     1      18.748  39.494  19.243  1.00  0.00     0.001 A 
HETATM   14  C   LIG     1      18.372  39.323  20.579  1.00  0.00     0.012 A 
ENDBRANCH   8   9
TORSDOF 1
ENDMDL
MODEL 6
REMARK VINA RESULT:      -5.7      7.116      9.599
REMARK  1 active torsions:
REMARK  status: ('A' for Active; 'I' for Inactive)
REMARK    1  A    between atoms: C_8  and  C_9 
ROOT
HETATM    1 CL   LIG     1      15.587  36.434  21.591  1.00  0.00    -0.083 Cl
HETATM    2  C   LIG     1      16.616  37.136  22.837  1.00  0.00     0.046 A 
HETATM    3  C   LIG     1      16.247  36.970  24.176  1.00  0.00     0.025 A 
HETATM    4  C   LIG     1      17.046  37.484  25.197  1.00  0.00     0.003 A 
HETATM    5  C   LIG     1      18.222  38.168  24.888  1.00  0.00     0.025 A 
HETATM    6  C   LIG     1      18.608  38.343  23.554  1.00  0.00     0.046 A 
HETATM    7 CL   LIG     1      20.083  39.246  23.222  1.00  0.00    -0.083 Cl
HETATM    8  C   LIG     1      17.805  37.827  22.514  1.00  0.00     0.018 A 
ENDROOT
BRANCH   8   9
HETATM    9  C   LIG     1      18.205  38.007  21.101  1.00  0.00    -0.023 A 
HETATM   10  C   LIG     1      18.418  36.890  20.278  1.00  0.00     0.012 A 
HETATM   11  C   LIG     1      18.796  37.063  18.943  1.00  0.00     0.001 A 
HETATM   12  C   LIG     1      18.964  38.350  18.424  1.00  0.00     0.000 A 
HETATM   13  C   LIG     1      18.753  39.467  19.238  1.00  0.00     0.001 A 
HETATM   14  C   LIG     1      18.374  39.297  20.574  1.00  0.00     0.012 A 
ENDBRANCH   8   9
TORSDOF 1
ENDMDL
MODEL 7
REMARK VINA RESULT:      -4.8     18.769     20.548
REMARK  1 active torsions:
REMARK  status: ('A' for Active; 'I' for Inactive)
REMARK    1  A    between atoms: C_8  and  C_9 
ROOT
HETATM    1 CL   LIG     1      19.362  23.840  31.771  1.00  0.00    -0.083 Cl
HETATM    2  C   LIG     1      19.629  22.102  31.873  1.00  0.00     0.046 A 
HETATM    3  C   LIG     1      19.230  21.303  30.797  1.00  0.00     0.025 A 
HETATM    4  C   LIG     1      19.447  19.926  30.821  1.00  0.00     0.003 A 
HETATM    5  C   LIG     1      20.066  19.334  31.924  1.00  0.00     0.025 A 
HETATM    6  C   LIG     1      20.472  20.118  33.010  1.00  0.00     0.046 A 
HETATM    7 CL   LIG     1      21.214  19.314  34.390  1.00  0.00    -0.083 Cl
HETATM    8  C   LIG     1      20.256  21.514  32.994  1.00  0.00     0.018 A 
ENDROOT
BRANCH   8   9
HETATM    9  C   LIG     1      20.683  22.349  34.137  1.00  0.00    -0.023 A 
HETATM   10  C   LIG     1      19.760  22.716  35.129  1.00  0.00     0.012 A 
HETATM   11  C   LIG     1      20.166  23.505  36.209  1.00  0.00     0.001 A 
HETATM   12  C   LIG     1      21.493  23.934  36.304  1.00  0.00     0.000 A 
HETATM   13  C   LIG     1      22.418  23.572  35.319  1.00  0.00     0.001 A 
HETATM   14  C   LIG     1      22.015  22.781  34.238  1.00  0.00     0.012 A 
ENDBRANCH   8   9
TORSDOF 1
ENDMDL
MODEL 8
REMARK VINA RESULT:      -4.8      6.113      8.656
REMARK  1 active torsions:
REMARK  status: ('A' for Active; 'I' for Inactive)
REMARK    1  A    between atoms: C_8  and  C_9 
ROOT
HETATM    1 CL   LIG     1      16.006  34.810  21.945  1.00  0.00    -0.083 Cl
HETATM    2  C   LIG     1      17.043  36.000  21.161  1.00  0.00     0.046 A 
HETATM    3  C   LIG     1      17.182  35.947  19.771  1.00  0.00     0.025 A 
HETATM    4  C   LIG     1      17.970  36.885  19.104  1.00  0.00     0.003 A 
HETATM    5  C   LIG     1      18.627  37.885  19.824  1.00  0.00     0.025 A 
HETATM    6  C   LIG     1      18.499  37.953  21.216  1.00  0.00     0.046 A 
HETATM    7 CL   LIG     1      19.380  39.213  22.075  1.00  0.00    -0.083 Cl
HETATM    8  C   LIG     1      17.703  37.007  21.899  1.00  0.00     0.018 A 
ENDROOT
BRANCH   8   9
HETATM    9  C   LIG     1      17.563  37.072  23.369  1.00  0.00    -0.023 A 
HETATM   10  C   LIG     1      17.375  38.307  24.009  1.00  0.00     0.012 A 
HETATM   11  C   LIG     1      17.243  38.365  25.399  1.00  0.00     0.001 A 
HETATM   12  C   LIG     1      17.296  37.192  26.158  1.00  0.00     0.000 A 
HETATM   13  C   LIG     1      17.482  35.958  25.528  1.00  0.00     0.001 A 
HETATM   14  C   LIG     1      17.615  35.896  24.136  1.00  0.00     0.012 A 
ENDBRANCH   8   9
TORSDOF 1
ENDMDL
MODEL 9
REMARK VINA RESULT:      -4.8      6.082      8.260
REMARK  1 active torsions:
REMARK  status: ('A' for Active; 'I' for Inactive)
REMARK    1  A    between atoms: C_8  and  C_9 
ROOT
HETATM    1 CL   LIG     1      19.378  39.245  21.981  1.00  0.00    -0.083 Cl
HETATM    2  C   LIG     1      18.507  37.970  21.131  1.00  0.00     0.046 A 
HETATM    3  C   LIG     1      18.646  37.882  19.743  1.00  0.00     0.025 A 
HETATM    4  C   LIG     1      17.998  36.872  19.031  1.00  0.00     0.003 A 
HETATM    5  C   LIG     1      17.204  35.941  19.704  1.00  0.00     0.025 A 
HETATM    6  C   LIG     1      17.054  36.015  21.094  1.00  0.00     0.046 A 
HETATM    7 CL   LIG     1      16.011  34.836  21.885  1.00  0.00    -0.083 Cl
HETATM    8  C   LIG     1      17.706  37.034  21.822  1.00  0.00     0.018 A 
ENDROOT
BRANCH   8   9
HETATM    9  C   LIG     1      17.553  37.119  23.290  1.00  0.00    -0.023 A 
HETATM   10  C   LIG     1      17.592  35.955  24.074  1.00  0.00     0.012 A 
HETATM   11  C   LIG     1      17.447  36.038  25.462  1.00  0.00     0.001 A 
HETATM   12  C   LIG     1      17.263  37.281  26.074  1.00  0.00     0.000 A 
HETATM   13  C   LIG     1      17.223  38.444  25.300  1.00  0.00     0.001 A 
HETATM   14  C   LIG     1      17.368  38.365  23.910  1.00  0.00     0.012 A 
ENDBRANCH   8   9
TORSDOF 1
ENDMDL
MODEL 10
REMARK VINA RESULT:      -4.6      4.999      7.359
REMARK  1 active torsions:
REMARK  status: ('A' for Active; 'I' for Inactive)
REMARK    1  A    between atoms: C_8  and  C_9 
ROOT
HETATM    1 CL   LIG     1      16.941  35.614  18.129  1.00  0.00    -0.083 Cl
HETATM    2  C   LIG     1      16.510  35.416  19.826  1.00  0.00     0.046 A 
HETATM    3  C   LIG     1      15.553  34.454  20.162  1.00  0.00     0.025 A 
HETATM    4  C   LIG     1      15.201  34.243  21.495  1.00  0.00     0.003 A 
HETATM    5  C   LIG     1      15.804  34.994  22.505  1.00  0.00     0.025 A 
HETATM    6  C   LIG     1      16.764  35.961  22.188  1.00  0.00     0.046 A 
HETATM    7 CL   LIG     1      17.466  36.905  23.500  1.00  0.00    -0.083 Cl
HETATM    8  C   LIG     1      17.126  36.182  20.841  1.00  0.00     0.018 A 
ENDROOT
BRANCH   8   9
HETATM    9  C   LIG     1      18.141  37.202  20.497  1.00  0.00    -0.023 A 
HETATM   10  C   LIG     1      17.989  38.527  20.935  1.00  0.00     0.012 A 
HETATM   11  C   LIG     1      18.949  39.489  20.608  1.00  0.00     0.001 A 
HETATM   12  C   LIG     1      20.065  39.135  19.844  1.00  0.00     0.000 A 
HETATM   13  C   LIG     1      20.222  37.817  19.405  1.00  0.00     0.001 A 
HETATM   14  C   LIG     1      19.263  36.851  19.730  1.00  0.00     0.012 A 
ENDBRANCH   8   9
TORSDOF 1
ENDMDL
MODEL 11
REMARK VINA RESULT:      -4.6     13.736     14.625
REMARK  1 active torsions:
REMARK  status: ('A' for Active; 'I' for Inactive)
REMARK    1  A    between atoms: C_8  and  C_9 
ROOT
HETATM    1 CL   LIG     1      22.469  22.419  19.672  1.00  0.00    -0.083 Cl
HETATM    2  C   LIG     1      23.411  21.339  18.647  1.00  0.00     0.046 A 
HETATM    3  C   LIG     1      22.775  20.224  18.093  1.00  0.00     0.025 A 
HETATM    4  C   LIG     1      23.474  19.357  17.253  1.00  0.00     0.003 A 
HETATM    5  C   LIG     1      24.817  19.598  16.960  1.00  0.00     0.025 A 
HETATM    6  C   LIG     1      25.470  20.710  17.505  1.00  0.00     0.046 A 
HETATM    7 CL   LIG     1      27.176  20.944  17.131  1.00  0.00    -0.083 Cl
HETATM    8  C   LIG     1      24.770  21.592  18.357  1.00  0.00     0.018 A 
ENDROOT
BRANCH   8   9
HETATM    9  C   LIG     1      25.453  22.769  18.938  1.00  0.00    -0.023 A 
HETATM   10  C   LIG     1      25.585  23.950  18.191  1.00  0.00     0.012 A 
HETATM   11  C   LIG     1      26.231  25.061  18.742  1.00  0.00     0.001 A 
HETATM   12  C   LIG     1      26.747  24.999  20.040  1.00  0.00     0.000 A 
HETATM   13  C   LIG     1      26.618  23.826  20.789  1.00  0.00     0.001 A 
HETATM   14  C   LIG     1      25.973  22.712  20.241  1.00  0.00     0.012 A 
ENDBRANCH   8   9
TORSDOF 1
ENDMDL
MODEL 12
REMARK VINA RESULT:      -4.5     13.764     14.423
REMARK  1 active torsions:
REMARK  status: ('A' for Active; 'I' for Inactive)
REMARK    1  A    between atoms: C_8  and  C_9 
ROOT
HETATM    1 CL   LIG     1      27.255  20.964  17.182  1.00  0.00    -0.083 Cl
HETATM    2  C   LIG     1      25.545  20.712  17.524  1.00  0.00     0.046 A 
HETATM    3  C   LIG     1      24.913  19.596  16.966  1.00  0.00     0.025 A 
HETATM    4  C   LIG     1      23.568  19.341  17.232  1.00  0.00     0.003 A 
HETATM    5  C   LIG     1      22.843  20.201  18.059  1.00  0.00     0.025 A 
HETATM    6  C   LIG     1      23.459  21.322  18.626  1.00  0.00     0.046 A 
HETATM    7 CL   LIG     1      22.486  22.392  19.631  1.00  0.00    -0.083 Cl
HETATM    8  C   LIG     1      24.821  21.588  18.361  1.00  0.00     0.018 A 
ENDROOT
BRANCH   8   9
HETATM    9  C   LIG     1      25.480  22.771  18.957  1.00  0.00    -0.023 A 
HETATM   10  C   LIG     1      25.993  22.713  20.262  1.00  0.00     0.012 A 
HETATM   11  C   LIG     1      26.616  23.833  20.822  1.00  0.00     0.001 A 
HETATM   12  C   LIG     1      26.729  25.014  20.083  1.00  0.00     0.000 A 
HETATM   13  C   LIG     1      26.221  25.078  18.783  1.00  0.00     0.001 A 
HETATM   14  C   LIG     1      25.598  23.960  18.219  1.00  0.00     0.012 A 
ENDBRANCH   8   9
TORSDOF 1
ENDMDL
MODEL 13
REMARK VINA RESULT:      -4.5     13.818     14.991
REMARK  1 active torsions:
REMARK  status: ('A' for Active; 'I' for Inactive)
REMARK    1  A    between atoms: C_8  and  C_9 
ROOT
HETATM    1 CL   LIG     1      23.413  22.021  18.189  1.00  0.00    -0.083 Cl
HETATM    2  C   LIG     1      23.812  22.237  19.892  1.00  0.00     0.046 A 
HETATM    3  C   LIG     1      22.851  21.892  20.848  1.00  0.00     0.025 A 
HETATM    4  C   LIG     1      23.132  22.019  22.209  1.00  0.00     0.003 A 
HETATM    5  C   LIG     1      24.378  22.493  22.624  1.00  0.00     0.025 A 
HETATM    6  C   LIG     1      25.351  22.842  21.681  1.00  0.00     0.046 A 
HETATM    7 CL   LIG     1      26.891  23.469  22.262  1.00  0.00    -0.083 Cl
HETATM    8  C   LIG     1      25.075  22.717  20.302  1.00  0.00     0.018 A 
ENDROOT
BRANCH   8   9
HETATM    9  C   LIG     1      26.098  23.084  19.298  1.00  0.00    -0.023 A 
HETATM   10  C   LIG     1      26.166  24.396  18.804  1.00  0.00     0.012 A 
HETATM   11  C   LIG     1      27.134  24.740  17.856  1.00  0.00     0.001 A 
HETATM   12  C   LIG     1      28.038  23.777  17.396  1.00  0.00     0.000 A 
HETATM   13  C   LIG     1      27.975  22.469  17.884  1.00  0.00     0.001 A 
HETATM   14  C   LIG     1      27.008  22.121  18.834  1.00  0.00     0.012 A 
ENDBRANCH   8   9
TORSDOF 1
ENDMDL
MODEL 14
REMARK VINA RESULT:      -4.5     13.816     14.907
REMARK  1 active torsions:
REMARK  status: ('A' for Active; 'I' for Inactive)
REMARK    1  A    between atoms: C_8  and  C_9 
ROOT
HETATM    1 CL   LIG     1      26.881  23.452  22.275  1.00  0.00    -0.083 Cl
HETATM    2  C   LIG     1      25.339  22.831  21.691  1.00  0.00     0.046 A 
HETATM    3  C   LIG     1      24.365  22.479  22.630  1.00  0.00     0.025 A 
HETATM    4  C   LIG     1      23.120  22.008  22.214  1.00  0.00     0.003 A 
HETATM    5  C   LIG     1      22.838  21.886  20.852  1.00  0.00     0.025 A 
HETATM    6  C   LIG     1      23.800  22.234  19.898  1.00  0.00     0.046 A 
HETATM    7 CL   LIG     1      23.403  22.025  18.195  1.00  0.00    -0.083 Cl
HETATM    8  C   LIG     1      25.064  22.710  20.311  1.00  0.00     0.018 A 
ENDROOT
BRANCH   8   9
HETATM    9  C   LIG     1      26.087  23.081  19.309  1.00  0.00    -0.023 A 
HETATM   10  C   LIG     1      26.156  24.394  18.819  1.00  0.00     0.012 A 
HETATM   11  C   LIG     1      27.124  24.741  17.872  1.00  0.00     0.001 A 
HETATM   12  C   LIG     1      28.027  23.780  17.409  1.00  0.00     0.000 A 
HETATM   13  C   LIG     1      27.965  22.470  17.893  1.00  0.00     0.001 A 
HETATM   14  C   LIG     1      26.998  22.119  18.841  1.00  0.00     0.012 A 
ENDBRANCH   8   9
TORSDOF 1
ENDMDL
MODEL 15
REMARK VINA RESULT:      -4.5     14.157     15.229
REMARK  1 active torsions:
REMARK  status: ('A' for Active; 'I' for Inactive)
REMARK    1  A    between atoms: C_8  and  C_9 
ROOT
HETATM    1 CL   LIG     1      26.355  20.026  18.134  1.00  0.00    -0.083 Cl
HETATM    2  C   LIG     1      25.724  21.296  19.179  1.00  0.00     0.046 A 
HETATM    3  C   LIG     1      26.593  22.310  19.593  1.00  0.00     0.025 A 
HETATM    4  C   LIG     1      26.131  23.351  20.398  1.00  0.00     0.003 A 
HETATM    5  C   LIG     1      24.794  23.386  20.796  1.00  0.00     0.025 A 
HETATM    6  C   LIG     1      23.909  22.380  20.391  1.00  0.00     0.046 A 
HETATM    7 CL   LIG     1      22.242  22.456  20.955  1.00  0.00    -0.083 Cl
HETATM    8  C   LIG     1      24.369  21.322  19.577  1.00  0.00     0.018 A 
ENDROOT
BRANCH   8   9
HETATM    9  C   LIG     1      23.441  20.255  19.144  1.00  0.00    -0.023 A 
HETATM   10  C   LIG     1      23.162  19.172  19.993  1.00  0.00     0.012 A 
HETATM   11  C   LIG     1      22.284  18.165  19.582  1.00  0.00     0.001 A 
HETATM   12  C   LIG     1      21.681  18.232  18.322  1.00  0.00     0.000 A 
HETATM   13  C   LIG     1      21.955  19.307  17.472  1.00  0.00     0.001 A 
HETATM   14  C   LIG     1      22.833  20.317  17.880  1.00  0.00     0.012 A 
ENDBRANCH   8   9
TORSDOF 1
ENDMDL
MODEL 16
REMARK VINA RESULT:      -4.4     21.922     23.416
REMARK  1 active torsions:
REMARK  status: ('A' for Active; 'I' for Inactive)
REMARK    1  A    between atoms: C_8  and  C_9 
ROOT
HETATM    1 CL   LIG     1      19.045  23.167  34.756  1.00  0.00    -0.083 Cl
HETATM    2  C   LIG     1      20.424  22.719  35.757  1.00  0.00     0.046 A 
HETATM    3  C   LIG     1      21.301  23.727  36.170  1.00  0.00     0.025 A 
HETATM    4  C   LIG     1      22.390  23.424  36.986  1.00  0.00     0.003 A 
HETATM    5  C   LIG     1      22.612  22.109  37.397  1.00  0.00     0.025 A 
HETATM    6  C   LIG     1      21.745  21.087  36.994  1.00  0.00     0.046 A 
HETATM    7 CL   LIG     1      22.095  19.440  37.512  1.00  0.00    -0.083 Cl
HETATM    8  C   LIG     1      20.639  21.385  36.166  1.00  0.00     0.018 A 
ENDROOT
BRANCH   8   9
HETATM    9  C   LIG     1      19.718  20.312  35.736  1.00  0.00    -0.023 A 
HETATM   10  C   LIG     1      19.901  19.675  34.498  1.00  0.00     0.012 A 
HETATM   11  C   LIG     1      19.028  18.661  34.094  1.00  0.00     0.001 A 
HETATM   12  C   LIG     1      17.969  18.277  34.921  1.00  0.00     0.000 A 
HETATM   13  C   LIG     1      17.780  18.906  36.155  1.00  0.00     0.001 A 
HETATM   14  C   LIG     1      18.652  19.922  36.564  1.00  0.00     0.012 A 
ENDBRANCH   8   9
TORSDOF 1
ENDMDL
MODEL 17
REMARK VINA RESULT:      -4.4     14.367     14.976
REMARK  1 active torsions:
REMARK  status: ('A' for Active; 'I' for Inactive)
REMARK    1  A    between atoms: C_8  and  C_9 
ROOT
HETATM    1 CL   LIG     1      23.547  22.088  18.019  1.00  0.00    -0.083 Cl
HETATM    2  C   LIG     1      22.985  20.507  18.557  1.00  0.00     0.046 A 
HETATM    3  C   LIG     1      22.356  19.673  17.628  1.00  0.00     0.025 A 
HETATM    4  C   LIG     1      21.920  18.402  18.001  1.00  0.00     0.003 A 
HETATM    5  C   LIG     1      22.109  17.954  19.309  1.00  0.00     0.025 A 
HETATM    6  C   LIG     1      22.737  18.775  20.253  1.00  0.00     0.046 A 
HETATM    7 CL   LIG     1      22.916  18.171  21.898  1.00  0.00    -0.083 Cl
HETATM    8  C   LIG     1      23.181  20.063  19.884  1.00  0.00     0.018 A 
ENDROOT
BRANCH   8   9
HETATM    9  C   LIG     1      23.845  20.937  20.875  1.00  0.00    -0.023 A 
HETATM   10  C   LIG     1      23.097  21.869  21.612  1.00  0.00     0.012 A 
HETATM   11  C   LIG     1      23.728  22.693  22.548  1.00  0.00     0.001 A 
HETATM   12  C   LIG     1      25.107  22.593  22.753  1.00  0.00     0.000 A 
HETATM   13  C   LIG     1      25.858  21.668  22.023  1.00  0.00     0.001 A 
HETATM   14  C   LIG     1      25.230  20.840  21.085  1.00  0.00     0.012 A 
ENDBRANCH   8   9
TORSDOF 1
ENDMDL
MODEL 18
REMARK VINA RESULT:      -4.3     18.894     21.120
REMARK  1 active torsions:
REMARK  status: ('A' for Active; 'I' for Inactive)
REMARK    1  A    between atoms: C_8  and  C_9 
ROOT
HETATM    1 CL   LIG     1      18.328  23.329  34.435  1.00  0.00    -0.083 Cl
HETATM    2  C   LIG     1      20.009  22.953  34.807  1.00  0.00     0.046 A 
HETATM    3  C   LIG     1      20.594  23.559  35.923  1.00  0.00     0.025 A 
HETATM    4  C   LIG     1      21.913  23.270  36.273  1.00  0.00     0.003 A 
HETATM    5  C   LIG     1      22.659  22.371  35.508  1.00  0.00     0.025 A 
HETATM    6  C   LIG     1      22.089  21.755  34.389  1.00  0.00     0.046 A 
HETATM    7 CL   LIG     1      23.089  20.658  33.440  1.00  0.00    -0.083 Cl
HETATM    8  C   LIG     1      20.755  22.042  34.027  1.00  0.00     0.018 A 
ENDROOT
BRANCH   8   9
HETATM    9  C   LIG     1      20.145  21.395  32.845  1.00  0.00    -0.023 A 
HETATM   10  C   LIG     1      19.915  20.011  32.835  1.00  0.00     0.012 A 
HETATM   11  C   LIG     1      19.338  19.402  31.717  1.00  0.00     0.001 A 
HETATM   12  C   LIG     1      18.990  20.171  30.602  1.00  0.00     0.000 A 
HETATM   13  C   LIG     1      19.216  21.550  30.605  1.00  0.00     0.001 A 
HETATM   14  C   LIG     1      19.792  22.163  31.723  1.00  0.00     0.012 A 
ENDBRANCH   8   9
TORSDOF 1
ENDMDL
MODEL 19
REMARK VINA RESULT:      -4.2     14.076     15.002
REMARK  1 active torsions:
REMARK  status: ('A' for Active; 'I' for Inactive)
REMARK    1  A    between atoms: C_8  and  C_9 
ROOT
HETATM    1 CL   LIG     1      26.780  20.190  21.081  1.00  0.00    -0.083 Cl
HETATM    2  C   LIG     1      25.138  20.435  21.670  1.00  0.00     0.046 A 
HETATM    3  C   LIG     1      24.618  19.520  22.591  1.00  0.00     0.025 A 
HETATM    4  C   LIG     1      23.333  19.689  23.106  1.00  0.00     0.003 A 
HETATM    5  C   LIG     1      22.556  20.777  22.704  1.00  0.00     0.025 A 
HETATM    6  C   LIG     1      23.060  21.703  21.784  1.00  0.00     0.046 A 
HETATM    7 CL   LIG     1      22.021  23.035  21.284  1.00  0.00    -0.083 Cl
HETATM    8  C   LIG     1      24.359  21.539  21.256  1.00  0.00     0.018 A 
ENDROOT
BRANCH   8   9
HETATM    9  C   LIG     1      24.899  22.513  20.283  1.00  0.00    -0.023 A 
HETATM   10  C   LIG     1      24.712  22.316  18.906  1.00  0.00     0.012 A 
HETATM   11  C   LIG     1      25.224  23.238  17.989  1.00  0.00     0.001 A 
HETATM   12  C   LIG     1      25.924  24.361  18.440  1.00  0.00     0.000 A 
HETATM   13  C   LIG     1      26.114  24.563  19.810  1.00  0.00     0.001 A 
HETATM   14  C   LIG     1      25.603  23.642  20.731  1.00  0.00     0.012 A 
ENDBRANCH   8   9
TORSDOF 1
ENDMDL
MODEL 20
REMARK VINA RESULT:      -4.1     14.306     15.543
REMARK  1 active torsions:
REMARK  status: ('A' for Active; 'I' for Inactive)
REMARK    1  A    between atoms: C_8  and  C_9 
ROOT
HETATM    1 CL   LIG     1      26.226  23.460  21.276  1.00  0.00    -0.083 Cl
HETATM    2  C   LIG     1      25.342  22.616  22.546  1.00  0.00     0.046 A 
HETATM    3  C   LIG     1      25.638  22.922  23.877  1.00  0.00     0.025 A 
HETATM    4  C   LIG     1      24.945  22.300  24.916  1.00  0.00     0.003 A 
HETATM    5  C   LIG     1      23.948  21.365  24.630  1.00  0.00     0.025 A 
HETATM    6  C   LIG     1      23.639  21.047  23.303  1.00  0.00     0.046 A 
HETATM    7 CL   LIG     1      22.398  19.833  23.002  1.00  0.00    -0.083 Cl
HETATM    8  C   LIG     1      24.336  21.671  22.245  1.00  0.00     0.018 A 
ENDROOT
BRANCH   8   9
HETATM    9  C   LIG     1      24.015  21.341  20.840  1.00  0.00    -0.023 A 
HETATM   10  C   LIG     1      23.053  22.084  20.140  1.00  0.00     0.012 A 
HETATM   11  C   LIG     1      22.752  21.769  18.812  1.00  0.00     0.001 A 
HETATM   12  C   LIG     1      23.408  20.712  18.176  1.00  0.00     0.000 A 
HETATM   13  C   LIG     1      24.368  19.967  18.867  1.00  0.00     0.001 A 
HETATM   14  C   LIG     1      24.673  20.280  20.197  1.00  0.00     0.012 A 
ENDBRANCH   8   9
TORSDOF 1
ENDMDL
