REMARK  1 active torsions:
REMARK  status: ('A' for Active; 'I' for Inactive)
REMARK    1  A    between atoms: C_8  and  C_9 
ROOT
HETATM    1 CL   LIG     1       0.199  -2.347  -1.445  1.00  0.00    -0.083 Cl
HETATM    2  C   LIG     1       1.263  -1.172  -0.676  1.00  0.00     0.046 A 
HETATM    3  C   LIG     1       2.644  -1.319  -0.839  1.00  0.00     0.025 A 
HETATM    4  C   LIG     1       3.524  -0.397  -0.272  1.00  0.00     0.003 A 
HETATM    5  C   LIG     1       3.029   0.681   0.464  1.00  0.00     0.025 A 
HETATM    6  C   LIG     1       1.650   0.844   0.637  1.00  0.00     0.046 A 
HETATM    7 CL   LIG     1       1.084   2.202   1.606  1.00  0.00    -0.083 Cl
HETATM    8  C   LIG     1       0.752  -0.085   0.067  1.00  0.00     0.018 A 
ENDROOT
BRANCH   8   9
HETATM    9  C   LIG     1      -0.707   0.080   0.245  1.00  0.00    -0.023 A 
HETATM   10  C   LIG     1      -1.379   1.148  -0.370  1.00  0.00     0.012 A 
HETATM   11  C   LIG     1      -2.758   1.301  -0.200  1.00  0.00     0.001 A 
HETATM   12  C   LIG     1      -3.473   0.391   0.584  1.00  0.00     0.000 A 
HETATM   13  C   LIG     1      -2.810  -0.675   1.199  1.00  0.00     0.001 A 
HETATM   14  C   LIG     1      -1.430  -0.832   1.031  1.00  0.00     0.012 A 
ENDBRANCH   8   9
TORSDOF 1
