REMARK  1 active torsions:
REMARK  status: ('A' for Active; 'I' for Inactive)
REMARK    1  A    between atoms: C_8  and  C_9 
ROOT
HETATM    1 CL   LIG     1       0.826  -2.744  -0.162  1.00  0.00    -0.083 Cl
HETATM    2  C   LIG     1       1.520  -1.125  -0.157  1.00  0.00     0.046 A 
HETATM    3  C   LIG     1       2.912  -1.002  -0.249  1.00  0.00     0.048 A 
HETATM    4  C   LIG     1       3.516   0.257  -0.193  1.00  0.00     0.035 A 
HETATM    5 CL   LIG     1       5.260   0.400  -0.308  1.00  0.00    -0.084 Cl
HETATM    6  C   LIG     1       2.730   1.401  -0.037  1.00  0.00     0.025 A 
HETATM    7  C   LIG     1       1.341   1.289   0.057  1.00  0.00     0.015 A 
HETATM    8  C   LIG     1       0.719   0.030  -0.011  1.00  0.00    -0.004 A 
ENDROOT
BRANCH   8   9
HETATM    9  C   LIG     1      -0.756  -0.050   0.076  1.00  0.00    -0.024 A 
HETATM   10  C   LIG     1      -1.431   0.512   1.174  1.00  0.00     0.012 A 
HETATM   11  C   LIG     1      -2.826   0.453   1.250  1.00  0.00     0.001 A 
HETATM   12  C   LIG     1      -3.558  -0.159   0.229  1.00  0.00     0.000 A 
HETATM   13  C   LIG     1      -2.896  -0.710  -0.872  1.00  0.00     0.001 A 
HETATM   14  C   LIG     1      -1.501  -0.653  -0.952  1.00  0.00     0.012 A 
ENDBRANCH   8   9
TORSDOF 1
