REMARK  1 active torsions:
REMARK  status: ('A' for Active; 'I' for Inactive)
REMARK    1  A    between atoms: C_10  and  C_11 
ROOT
HETATM    1 CL   LIG     1       0.599   2.507   1.212  1.00  0.00    -0.082 Cl
HETATM    2  C   LIG     1       1.429   1.108   0.522  1.00  0.00     0.068 A 
HETATM    3  C   LIG     1       2.838   1.070   0.511  1.00  0.00     0.080 A 
HETATM    4 CL   LIG     1       3.764   2.441   1.127  1.00  0.00    -0.081 Cl
HETATM    5  C   LIG     1       3.509  -0.064   0.017  1.00  0.00     0.079 A 
HETATM    6 CL   LIG     1       5.273  -0.118   0.001  1.00  0.00    -0.081 Cl
HETATM    7  C   LIG     1       2.771  -1.159  -0.459  1.00  0.00     0.058 A 
HETATM    8 CL   LIG     1       3.569  -2.600  -1.079  1.00  0.00    -0.082 Cl
HETATM    9  C   LIG     1       1.376  -1.119  -0.449  1.00  0.00     0.039 A 
HETATM   10  C   LIG     1       0.693   0.009   0.028  1.00  0.00    -0.001 A 
ENDROOT
BRANCH  10  11
HETATM   11  C   LIG     1      -0.787   0.011   0.000  1.00  0.00    -0.024 A 
HETATM   12  C   LIG     1      -1.507  -0.997   0.664  1.00  0.00     0.012 A 
HETATM   13  C   LIG     1      -2.905  -1.007   0.624  1.00  0.00     0.001 A 
HETATM   14  C   LIG     1      -3.592  -0.018  -0.084  1.00  0.00     0.000 A 
HETATM   15  C   LIG     1      -2.884   0.981  -0.758  1.00  0.00     0.001 A 
HETATM   16  C   LIG     1      -1.486   0.995  -0.720  1.00  0.00     0.012 A 
ENDBRANCH  10  11
TORSDOF 1
