MODEL 1
REMARK VINA RESULT:      -7.8      0.000      0.000
REMARK  1 active torsions:
REMARK  status: ('A' for Active; 'I' for Inactive)
REMARK    1  A    between atoms: C_8  and  C_9 
ROOT
HETATM    1 CL   LIG     1      18.208  37.884  21.638  1.00  0.00    -0.083 Cl
HETATM    2  C   LIG     1      17.201  36.455  21.417  1.00  0.00     0.046 A 
HETATM    3  C   LIG     1      16.800  36.124  20.117  1.00  0.00     0.048 A 
HETATM    4  C   LIG     1      15.955  35.033  19.894  1.00  0.00     0.035 A 
HETATM    5 CL   LIG     1      15.457  34.627  18.262  1.00  0.00    -0.084 Cl
HETATM    6  C   LIG     1      15.501  34.271  20.973  1.00  0.00     0.025 A 
HETATM    7  C   LIG     1      15.895  34.594  22.273  1.00  0.00     0.015 A 
HETATM    8  C   LIG     1      16.755  35.681  22.511  1.00  0.00    -0.004 A 
ENDROOT
BRANCH   8   9
HETATM    9  C   LIG     1      17.164  35.985  23.900  1.00  0.00    -0.024 A 
HETATM   10  C   LIG     1      17.532  34.945  24.772  1.00  0.00     0.012 A 
HETATM   11  C   LIG     1      17.935  35.231  26.080  1.00  0.00     0.001 A 
HETATM   12  C   LIG     1      17.983  36.554  26.525  1.00  0.00     0.000 A 
HETATM   13  C   LIG     1      17.631  37.595  25.661  1.00  0.00     0.001 A 
HETATM   14  C   LIG     1      17.227  37.314  24.352  1.00  0.00     0.012 A 
ENDBRANCH   8   9
TORSDOF 1
ENDMDL
MODEL 2
REMARK VINA RESULT:      -6.7      4.638      8.430
REMARK  1 active torsions:
REMARK  status: ('A' for Active; 'I' for Inactive)
REMARK    1  A    between atoms: C_8  and  C_9 
ROOT
HETATM    1 CL   LIG     1      15.509  34.561  16.296  1.00  0.00    -0.083 Cl
HETATM    2  C   LIG     1      15.270  33.722  17.827  1.00  0.00     0.046 A 
HETATM    3  C   LIG     1      15.549  34.415  19.011  1.00  0.00     0.048 A 
HETATM    4  C   LIG     1      15.430  33.777  20.249  1.00  0.00     0.035 A 
HETATM    5 CL   LIG     1      15.782  34.654  21.726  1.00  0.00    -0.084 Cl
HETATM    6  C   LIG     1      15.037  32.438  20.308  1.00  0.00     0.025 A 
HETATM    7  C   LIG     1      14.758  31.737  19.132  1.00  0.00     0.015 A 
HETATM    8  C   LIG     1      14.861  32.370  17.881  1.00  0.00    -0.004 A 
ENDROOT
BRANCH   8   9
HETATM    9  C   LIG     1      14.542  31.602  16.657  1.00  0.00    -0.024 A 
HETATM   10  C   LIG     1      15.511  31.442  15.651  1.00  0.00     0.012 A 
HETATM   11  C   LIG     1      15.217  30.702  14.501  1.00  0.00     0.001 A 
HETATM   12  C   LIG     1      13.960  30.111  14.350  1.00  0.00     0.000 A 
HETATM   13  C   LIG     1      12.995  30.255  15.351  1.00  0.00     0.001 A 
HETATM   14  C   LIG     1      13.285  30.994  16.503  1.00  0.00     0.012 A 
ENDBRANCH   8   9
TORSDOF 1
ENDMDL
MODEL 3
REMARK VINA RESULT:      -6.7      2.777      3.828
REMARK  1 active torsions:
REMARK  status: ('A' for Active; 'I' for Inactive)
REMARK    1  A    between atoms: C_8  and  C_9 
ROOT
HETATM    1 CL   LIG     1      17.164  35.424  23.488  1.00  0.00    -0.083 Cl
HETATM    2  C   LIG     1      16.551  35.027  21.884  1.00  0.00     0.046 A 
HETATM    3  C   LIG     1      15.785  33.864  21.738  1.00  0.00     0.048 A 
HETATM    4  C   LIG     1      15.322  33.476  20.478  1.00  0.00     0.035 A 
HETATM    5 CL   LIG     1      14.364  32.017  20.306  1.00  0.00    -0.084 Cl
HETATM    6  C   LIG     1      15.632  34.245  19.354  1.00  0.00     0.025 A 
HETATM    7  C   LIG     1      16.397  35.406  19.489  1.00  0.00     0.015 A 
HETATM    8  C   LIG     1      16.857  35.816  20.752  1.00  0.00    -0.004 A 
ENDROOT
BRANCH   8   9
HETATM    9  C   LIG     1      17.652  37.059  20.860  1.00  0.00    -0.024 A 
HETATM   10  C   LIG     1      18.715  37.298  19.971  1.00  0.00     0.012 A 
HETATM   11  C   LIG     1      19.456  38.481  20.060  1.00  0.00     0.001 A 
HETATM   12  C   LIG     1      19.139  39.436  21.029  1.00  0.00     0.000 A 
HETATM   13  C   LIG     1      18.076  39.212  21.909  1.00  0.00     0.001 A 
HETATM   14  C   LIG     1      17.332  38.031  21.824  1.00  0.00     0.012 A 
ENDBRANCH   8   9
TORSDOF 1
ENDMDL
MODEL 4
REMARK VINA RESULT:      -6.7      4.836      7.439
REMARK  1 active torsions:
REMARK  status: ('A' for Active; 'I' for Inactive)
REMARK    1  A    between atoms: C_8  and  C_9 
ROOT
HETATM    1 CL   LIG     1      16.875  32.273  15.525  1.00  0.00    -0.083 Cl
HETATM    2  C   LIG     1      15.294  31.542  15.789  1.00  0.00     0.046 A 
HETATM    3  C   LIG     1      14.808  30.651  14.823  1.00  0.00     0.048 A 
HETATM    4  C   LIG     1      13.536  30.088  14.957  1.00  0.00     0.035 A 
HETATM    5 CL   LIG     1      12.937  28.974  13.742  1.00  0.00    -0.084 Cl
HETATM    6  C   LIG     1      12.739  30.418  16.056  1.00  0.00     0.025 A 
HETATM    7  C   LIG     1      13.214  31.307  17.024  1.00  0.00     0.015 A 
HETATM    8  C   LIG     1      14.497  31.871  16.908  1.00  0.00    -0.004 A 
ENDROOT
BRANCH   8   9
HETATM    9  C   LIG     1      14.974  32.796  17.960  1.00  0.00    -0.024 A 
HETATM   10  C   LIG     1      15.165  34.158  17.670  1.00  0.00     0.012 A 
HETATM   11  C   LIG     1      15.598  35.038  18.667  1.00  0.00     0.001 A 
HETATM   12  C   LIG     1      15.837  34.567  19.961  1.00  0.00     0.000 A 
HETATM   13  C   LIG     1      15.639  33.216  20.261  1.00  0.00     0.001 A 
HETATM   14  C   LIG     1      15.205  32.333  19.267  1.00  0.00     0.012 A 
ENDBRANCH   8   9
TORSDOF 1
ENDMDL
MODEL 5
REMARK VINA RESULT:      -6.6      2.660      5.319
REMARK  1 active torsions:
REMARK  status: ('A' for Active; 'I' for Inactive)
REMARK    1  A    between atoms: C_8  and  C_9 
ROOT
HETATM    1 CL   LIG     1      16.745  34.842  21.075  1.00  0.00    -0.083 Cl
HETATM    2  C   LIG     1      17.211  35.628  22.580  1.00  0.00     0.046 A 
HETATM    3  C   LIG     1      16.928  34.972  23.785  1.00  0.00     0.048 A 
HETATM    4  C   LIG     1      17.227  35.578  25.008  1.00  0.00     0.035 A 
HETATM    5 CL   LIG     1      16.867  34.748  26.510  1.00  0.00    -0.084 Cl
HETATM    6  C   LIG     1      17.805  36.849  25.033  1.00  0.00     0.025 A 
HETATM    7  C   LIG     1      18.091  37.513  23.838  1.00  0.00     0.015 A 
HETATM    8  C   LIG     1      17.807  36.909  22.600  1.00  0.00    -0.004 A 
ENDROOT
BRANCH   8   9
HETATM    9  C   LIG     1      18.137  37.634  21.353  1.00  0.00    -0.024 A 
HETATM   10  C   LIG     1      18.178  39.040  21.342  1.00  0.00     0.012 A 
HETATM   11  C   LIG     1      18.506  39.727  20.169  1.00  0.00     0.001 A 
HETATM   12  C   LIG     1      18.805  39.019  19.002  1.00  0.00     0.000 A 
HETATM   13  C   LIG     1      18.779  37.621  19.007  1.00  0.00     0.001 A 
HETATM   14  C   LIG     1      18.451  36.930  20.178  1.00  0.00     0.012 A 
ENDBRANCH   8   9
TORSDOF 1
ENDMDL
MODEL 6
REMARK VINA RESULT:      -6.6      8.030     10.980
REMARK  1 active torsions:
REMARK  status: ('A' for Active; 'I' for Inactive)
REMARK    1  A    between atoms: C_8  and  C_9 
ROOT
HETATM    1 CL   LIG     1      14.086  31.106  16.973  1.00  0.00    -0.083 Cl
HETATM    2  C   LIG     1      15.134  31.702  15.689  1.00  0.00     0.046 A 
HETATM    3  C   LIG     1      15.807  32.913  15.893  1.00  0.00     0.048 A 
HETATM    4  C   LIG     1      16.607  33.457  14.884  1.00  0.00     0.035 A 
HETATM    5 CL   LIG     1      17.444  34.974  15.150  1.00  0.00    -0.084 Cl
HETATM    6  C   LIG     1      16.731  32.795  13.661  1.00  0.00     0.025 A 
HETATM    7  C   LIG     1      16.063  31.587  13.446  1.00  0.00     0.015 A 
HETATM    8  C   LIG     1      15.266  31.022  14.457  1.00  0.00    -0.004 A 
ENDROOT
BRANCH   8   9
HETATM    9  C   LIG     1      14.586  29.733  14.201  1.00  0.00    -0.024 A 
HETATM   10  C   LIG     1      13.185  29.645  14.283  1.00  0.00     0.012 A 
HETATM   11  C   LIG     1      12.538  28.433  14.025  1.00  0.00     0.001 A 
HETATM   12  C   LIG     1      13.281  27.302  13.675  1.00  0.00     0.000 A 
HETATM   13  C   LIG     1      14.674  27.384  13.579  1.00  0.00     0.001 A 
HETATM   14  C   LIG     1      15.325  28.595  13.836  1.00  0.00     0.012 A 
ENDBRANCH   8   9
TORSDOF 1
ENDMDL
MODEL 7
REMARK VINA RESULT:      -6.5      2.049      3.117
REMARK  1 active torsions:
REMARK  status: ('A' for Active; 'I' for Inactive)
REMARK    1  A    between atoms: C_8  and  C_9 
ROOT
HETATM    1 CL   LIG     1      17.209  35.024  21.612  1.00  0.00    -0.083 Cl
HETATM    2  C   LIG     1      17.684  36.720  21.620  1.00  0.00     0.046 A 
HETATM    3  C   LIG     1      17.833  37.371  20.389  1.00  0.00     0.048 A 
HETATM    4  C   LIG     1      18.263  38.700  20.340  1.00  0.00     0.035 A 
HETATM    5 CL   LIG     1      18.447  39.506  18.793  1.00  0.00    -0.084 Cl
HETATM    6  C   LIG     1      18.553  39.384  21.522  1.00  0.00     0.025 A 
HETATM    7  C   LIG     1      18.409  38.743  22.755  1.00  0.00     0.015 A 
HETATM    8  C   LIG     1      17.965  37.410  22.821  1.00  0.00    -0.004 A 
ENDROOT
BRANCH   8   9
HETATM    9  C   LIG     1      17.809  36.768  24.145  1.00  0.00    -0.024 A 
HETATM   10  C   LIG     1      17.254  35.480  24.245  1.00  0.00     0.012 A 
HETATM   11  C   LIG     1      17.121  34.864  25.493  1.00  0.00     0.001 A 
HETATM   12  C   LIG     1      17.547  35.524  26.649  1.00  0.00     0.000 A 
HETATM   13  C   LIG     1      18.110  36.800  26.558  1.00  0.00     0.001 A 
HETATM   14  C   LIG     1      18.245  37.419  25.311  1.00  0.00     0.012 A 
ENDBRANCH   8   9
TORSDOF 1
ENDMDL
MODEL 8
REMARK VINA RESULT:      -6.4      1.785      5.320
REMARK  1 active torsions:
REMARK  status: ('A' for Active; 'I' for Inactive)
REMARK    1  A    between atoms: C_8  and  C_9 
ROOT
HETATM    1 CL   LIG     1      16.944  38.521  22.489  1.00  0.00    -0.083 Cl
HETATM    2  C   LIG     1      17.181  37.166  23.589  1.00  0.00     0.046 A 
HETATM    3  C   LIG     1      17.607  37.440  24.895  1.00  0.00     0.048 A 
HETATM    4  C   LIG     1      17.863  36.397  25.789  1.00  0.00     0.035 A 
HETATM    5 CL   LIG     1      18.397  36.751  27.421  1.00  0.00    -0.084 Cl
HETATM    6  C   LIG     1      17.701  35.072  25.379  1.00  0.00     0.025 A 
HETATM    7  C   LIG     1      17.278  34.787  24.079  1.00  0.00     0.015 A 
HETATM    8  C   LIG     1      17.004  35.827  23.173  1.00  0.00    -0.004 A 
ENDROOT
BRANCH   8   9
HETATM    9  C   LIG     1      16.542  35.489  21.808  1.00  0.00    -0.024 A 
HETATM   10  C   LIG     1      17.191  36.037  20.687  1.00  0.00     0.012 A 
HETATM   11  C   LIG     1      16.767  35.706  19.396  1.00  0.00     0.001 A 
HETATM   12  C   LIG     1      15.701  34.821  19.214  1.00  0.00     0.000 A 
HETATM   13  C   LIG     1      15.058  34.263  20.322  1.00  0.00     0.001 A 
HETATM   14  C   LIG     1      15.478  34.591  21.615  1.00  0.00     0.012 A 
ENDBRANCH   8   9
TORSDOF 1
ENDMDL
MODEL 9
REMARK VINA RESULT:      -6.3      2.345      3.316
REMARK  1 active torsions:
REMARK  status: ('A' for Active; 'I' for Inactive)
REMARK    1  A    between atoms: C_8  and  C_9 
ROOT
HETATM    1 CL   LIG     1      17.968  39.989  22.421  1.00  0.00    -0.083 Cl
HETATM    2  C   LIG     1      18.269  38.892  21.076  1.00  0.00     0.046 A 
HETATM    3  C   LIG     1      18.649  39.444  19.845  1.00  0.00     0.048 A 
HETATM    4  C   LIG     1      18.845  38.622  18.733  1.00  0.00     0.035 A 
HETATM    5 CL   LIG     1      19.319  39.322  17.196  1.00  0.00    -0.084 Cl
HETATM    6  C   LIG     1      18.655  37.242  18.843  1.00  0.00     0.025 A 
HETATM    7  C   LIG     1      18.276  36.683  20.065  1.00  0.00     0.015 A 
HETATM    8  C   LIG     1      18.087  37.496  21.196  1.00  0.00    -0.004 A 
ENDROOT
BRANCH   8   9
HETATM    9  C   LIG     1      17.701  36.868  22.478  1.00  0.00    -0.024 A 
HETATM   10  C   LIG     1      17.280  35.527  22.510  1.00  0.00     0.012 A 
HETATM   11  C   LIG     1      16.931  34.925  23.723  1.00  0.00     0.001 A 
HETATM   12  C   LIG     1      17.006  35.653  24.914  1.00  0.00     0.000 A 
HETATM   13  C   LIG     1      17.435  36.984  24.893  1.00  0.00     0.001 A 
HETATM   14  C   LIG     1      17.785  37.589  23.682  1.00  0.00     0.012 A 
ENDBRANCH   8   9
TORSDOF 1
ENDMDL
MODEL 10
REMARK VINA RESULT:      -6.1      2.689      5.461
REMARK  1 active torsions:
REMARK  status: ('A' for Active; 'I' for Inactive)
REMARK    1  A    between atoms: C_8  and  C_9 
ROOT
HETATM    1 CL   LIG     1      18.492  36.260  19.305  1.00  0.00    -0.083 Cl
HETATM    2  C   LIG     1      17.348  36.634  20.591  1.00  0.00     0.046 A 
HETATM    3  C   LIG     1      17.635  37.711  21.439  1.00  0.00     0.048 A 
HETATM    4  C   LIG     1      16.788  38.014  22.509  1.00  0.00     0.035 A 
HETATM    5 CL   LIG     1      17.158  39.364  23.566  1.00  0.00    -0.084 Cl
HETATM    6  C   LIG     1      15.651  37.237  22.740  1.00  0.00     0.025 A 
HETATM    7  C   LIG     1      15.356  36.160  21.901  1.00  0.00     0.015 A 
HETATM    8  C   LIG     1      16.192  35.851  20.813  1.00  0.00    -0.004 A 
ENDROOT
BRANCH   8   9
HETATM    9  C   LIG     1      15.841  34.714  19.935  1.00  0.00    -0.024 A 
HETATM   10  C   LIG     1      15.770  33.411  20.460  1.00  0.00     0.012 A 
HETATM   11  C   LIG     1      15.421  32.336  19.636  1.00  0.00     0.001 A 
HETATM   12  C   LIG     1      15.133  32.554  18.286  1.00  0.00     0.000 A 
HETATM   13  C   LIG     1      15.189  33.847  17.758  1.00  0.00     0.001 A 
HETATM   14  C   LIG     1      15.537  34.924  18.579  1.00  0.00     0.012 A 
ENDBRANCH   8   9
TORSDOF 1
ENDMDL
MODEL 11
REMARK VINA RESULT:      -5.9      8.033     11.706
REMARK  1 active torsions:
REMARK  status: ('A' for Active; 'I' for Inactive)
REMARK    1  A    between atoms: C_8  and  C_9 
ROOT
HETATM    1 CL   LIG     1      15.565  30.081  13.341  1.00  0.00    -0.083 Cl
HETATM    2  C   LIG     1      14.634  30.718  14.695  1.00  0.00     0.046 A 
HETATM    3  C   LIG     1      15.194  31.752  15.455  1.00  0.00     0.048 A 
HETATM    4  C   LIG     1      14.521  32.253  16.572  1.00  0.00     0.035 A 
HETATM    5 CL   LIG     1      15.232  33.547  17.518  1.00  0.00    -0.084 Cl
HETATM    6  C   LIG     1      13.285  31.716  16.940  1.00  0.00     0.025 A 
HETATM    7  C   LIG     1      12.718  30.684  16.190  1.00  0.00     0.015 A 
HETATM    8  C   LIG     1      13.378  30.179  15.055  1.00  0.00    -0.004 A 
ENDROOT
BRANCH   8   9
HETATM    9  C   LIG     1      12.741  29.096  14.274  1.00  0.00    -0.024 A 
HETATM   10  C   LIG     1      11.496  29.308  13.656  1.00  0.00     0.012 A 
HETATM   11  C   LIG     1      10.899  28.292  12.903  1.00  0.00     0.001 A 
HETATM   12  C   LIG     1      11.543  27.061  12.754  1.00  0.00     0.000 A 
HETATM   13  C   LIG     1      12.787  26.845  13.355  1.00  0.00     0.001 A 
HETATM   14  C   LIG     1      13.386  27.859  14.109  1.00  0.00     0.012 A 
ENDBRANCH   8   9
TORSDOF 1
ENDMDL
MODEL 12
REMARK VINA RESULT:      -5.8      2.664      5.032
REMARK  1 active torsions:
REMARK  status: ('A' for Active; 'I' for Inactive)
REMARK    1  A    between atoms: C_8  and  C_9 
ROOT
HETATM    1 CL   LIG     1      18.731  39.007  23.871  1.00  0.00    -0.083 Cl
HETATM    2  C   LIG     1      18.000  37.415  23.683  1.00  0.00     0.046 A 
HETATM    3  C   LIG     1      17.639  36.713  24.839  1.00  0.00     0.048 A 
HETATM    4  C   LIG     1      17.107  35.424  24.747  1.00  0.00     0.035 A 
HETATM    5 CL   LIG     1      16.659  34.552  26.201  1.00  0.00    -0.084 Cl
HETATM    6  C   LIG     1      16.941  34.826  23.495  1.00  0.00     0.025 A 
HETATM    7  C   LIG     1      17.299  35.518  22.336  1.00  0.00     0.015 A 
HETATM    8  C   LIG     1      17.823  36.820  22.413  1.00  0.00    -0.004 A 
ENDROOT
BRANCH   8   9
HETATM    9  C   LIG     1      18.177  37.529  21.164  1.00  0.00    -0.024 A 
HETATM   10  C   LIG     1      18.450  36.803  19.991  1.00  0.00     0.012 A 
HETATM   11  C   LIG     1      18.768  37.471  18.805  1.00  0.00     0.001 A 
HETATM   12  C   LIG     1      18.808  38.867  18.777  1.00  0.00     0.000 A 
HETATM   13  C   LIG     1      18.527  39.598  19.934  1.00  0.00     0.001 A 
HETATM   14  C   LIG     1      18.208  38.934  21.123  1.00  0.00     0.012 A 
ENDBRANCH   8   9
TORSDOF 1
ENDMDL
MODEL 13
REMARK VINA RESULT:      -5.3      7.358      9.188
REMARK  1 active torsions:
REMARK  status: ('A' for Active; 'I' for Inactive)
REMARK    1  A    between atoms: C_8  and  C_9 
ROOT
HETATM    1 CL   LIG     1      15.481  30.639  13.187  1.00  0.00    -0.083 Cl
HETATM    2  C   LIG     1      16.366  32.102  13.611  1.00  0.00     0.046 A 
HETATM    3  C   LIG     1      17.233  32.650  12.658  1.00  0.00     0.048 A 
HETATM    4  C   LIG     1      18.000  33.777  12.964  1.00  0.00     0.035 A 
HETATM    5 CL   LIG     1      19.083  34.455  11.763  1.00  0.00    -0.084 Cl
HETATM    6  C   LIG     1      17.910  34.358  14.231  1.00  0.00     0.025 A 
HETATM    7  C   LIG     1      17.050  33.818  15.190  1.00  0.00     0.015 A 
HETATM    8  C   LIG     1      16.262  32.692  14.891  1.00  0.00    -0.004 A 
ENDROOT
BRANCH   8   9
HETATM    9  C   LIG     1      15.350  32.156  15.925  1.00  0.00    -0.024 A 
HETATM   10  C   LIG     1      15.457  32.594  17.257  1.00  0.00     0.012 A 
HETATM   11  C   LIG     1      14.585  32.102  18.234  1.00  0.00     0.001 A 
HETATM   12  C   LIG     1      13.596  31.177  17.888  1.00  0.00     0.000 A 
HETATM   13  C   LIG     1      13.475  30.746  16.564  1.00  0.00     0.001 A 
HETATM   14  C   LIG     1      14.345  31.235  15.584  1.00  0.00     0.012 A 
ENDBRANCH   8   9
TORSDOF 1
ENDMDL
MODEL 14
REMARK VINA RESULT:      -5.3      8.224     10.769
REMARK  1 active torsions:
REMARK  status: ('A' for Active; 'I' for Inactive)
REMARK    1  A    between atoms: C_8  and  C_9 
ROOT
HETATM    1 CL   LIG     1      12.741  31.145  15.671  1.00  0.00    -0.083 Cl
HETATM    2  C   LIG     1      13.482  29.904  14.665  1.00  0.00     0.046 A 
HETATM    3  C   LIG     1      12.740  28.750  14.384  1.00  0.00     0.048 A 
HETATM    4  C   LIG     1      13.302  27.711  13.637  1.00  0.00     0.035 A 
HETATM    5 CL   LIG     1      12.364  26.270  13.292  1.00  0.00    -0.084 Cl
HETATM    6  C   LIG     1      14.615  27.818  13.172  1.00  0.00     0.025 A 
HETATM    7  C   LIG     1      15.364  28.964  13.448  1.00  0.00     0.015 A 
HETATM    8  C   LIG     1      14.807  30.022  14.187  1.00  0.00    -0.004 A 
ENDROOT
BRANCH   8   9
HETATM    9  C   LIG     1      15.624  31.228  14.446  1.00  0.00    -0.024 A 
HETATM   10  C   LIG     1      16.261  31.893  13.384  1.00  0.00     0.012 A 
HETATM   11  C   LIG     1      17.020  33.043  13.624  1.00  0.00     0.001 A 
HETATM   12  C   LIG     1      17.142  33.543  14.923  1.00  0.00     0.000 A 
HETATM   13  C   LIG     1      16.502  32.895  15.984  1.00  0.00     0.001 A 
HETATM   14  C   LIG     1      15.742  31.745  15.748  1.00  0.00     0.012 A 
ENDBRANCH   8   9
TORSDOF 1
ENDMDL
MODEL 15
REMARK VINA RESULT:      -5.3     16.100     16.938
REMARK  1 active torsions:
REMARK  status: ('A' for Active; 'I' for Inactive)
REMARK    1  A    between atoms: C_8  and  C_9 
ROOT
HETATM    1 CL   LIG     1      29.432  30.403  33.858  1.00  0.00    -0.083 Cl
HETATM    2  C   LIG     1      28.378  29.160  33.188  1.00  0.00     0.046 A 
HETATM    3  C   LIG     1      28.721  28.598  31.952  1.00  0.00     0.048 A 
HETATM    4  C   LIG     1      27.889  27.649  31.352  1.00  0.00     0.035 A 
HETATM    5 CL   LIG     1      28.327  26.952  29.803  1.00  0.00    -0.084 Cl
HETATM    6  C   LIG     1      26.704  27.262  31.982  1.00  0.00     0.025 A 
HETATM    7  C   LIG     1      26.352  27.818  33.214  1.00  0.00     0.015 A 
HETATM    8  C   LIG     1      27.186  28.764  33.836  1.00  0.00    -0.004 A 
ENDROOT
BRANCH   8   9
HETATM    9  C   LIG     1      26.790  29.320  35.149  1.00  0.00    -0.024 A 
HETATM   10  C   LIG     1      26.178  30.583  35.226  1.00  0.00     0.012 A 
HETATM   11  C   LIG     1      25.787  31.103  36.464  1.00  0.00     0.001 A 
HETATM   12  C   LIG     1      25.996  30.365  37.631  1.00  0.00     0.000 A 
HETATM   13  C   LIG     1      26.593  29.103  37.563  1.00  0.00     0.001 A 
HETATM   14  C   LIG     1      26.986  28.579  36.327  1.00  0.00     0.012 A 
ENDBRANCH   8   9
TORSDOF 1
ENDMDL
MODEL 16
REMARK VINA RESULT:      -5.2      3.407      6.219
REMARK  1 active torsions:
REMARK  status: ('A' for Active; 'I' for Inactive)
REMARK    1  A    between atoms: C_8  and  C_9 
ROOT
HETATM    1 CL   LIG     1      17.200  36.146  20.097  1.00  0.00    -0.083 Cl
HETATM    2  C   LIG     1      17.653  37.193  21.438  1.00  0.00     0.046 A 
HETATM    3  C   LIG     1      17.217  36.848  22.724  1.00  0.00     0.048 A 
HETATM    4  C   LIG     1      17.503  37.675  23.813  1.00  0.00     0.035 A 
HETATM    5 CL   LIG     1      16.952  37.233  25.418  1.00  0.00    -0.084 Cl
HETATM    6  C   LIG     1      18.220  38.858  23.622  1.00  0.00     0.025 A 
HETATM    7  C   LIG     1      18.657  39.212  22.343  1.00  0.00     0.015 A 
HETATM    8  C   LIG     1      18.389  38.383  21.240  1.00  0.00    -0.004 A 
ENDROOT
BRANCH   8   9
HETATM    9  C   LIG     1      18.882  38.782  19.903  1.00  0.00    -0.024 A 
HETATM   10  C   LIG     1      17.992  39.307  18.949  1.00  0.00     0.012 A 
HETATM   11  C   LIG     1      18.458  39.701  17.691  1.00  0.00     0.001 A 
HETATM   12  C   LIG     1      19.814  39.582  17.378  1.00  0.00     0.000 A 
HETATM   13  C   LIG     1      20.708  39.072  18.324  1.00  0.00     0.001 A 
HETATM   14  C   LIG     1      20.246  38.677  19.584  1.00  0.00     0.012 A 
ENDBRANCH   8   9
TORSDOF 1
ENDMDL
MODEL 17
REMARK VINA RESULT:      -5.2     15.163     15.933
REMARK  1 active torsions:
REMARK  status: ('A' for Active; 'I' for Inactive)
REMARK    1  A    between atoms: C_8  and  C_9 
ROOT
HETATM    1 CL   LIG     1      23.524  23.292  21.619  1.00  0.00    -0.083 Cl
HETATM    2  C   LIG     1      23.891  22.392  20.149  1.00  0.00     0.046 A 
HETATM    3  C   LIG     1      23.032  21.351  19.779  1.00  0.00     0.048 A 
HETATM    4  C   LIG     1      23.309  20.571  18.654  1.00  0.00     0.035 A 
HETATM    5 CL   LIG     1      22.226  19.268  18.199  1.00  0.00    -0.084 Cl
HETATM    6  C   LIG     1      24.454  20.824  17.895  1.00  0.00     0.025 A 
HETATM    7  C   LIG     1      25.319  21.860  18.256  1.00  0.00     0.015 A 
HETATM    8  C   LIG     1      25.045  22.661  19.379  1.00  0.00    -0.004 A 
ENDROOT
BRANCH   8   9
HETATM    9  C   LIG     1      25.975  23.759  19.723  1.00  0.00    -0.024 A 
HETATM   10  C   LIG     1      26.809  23.652  20.850  1.00  0.00     0.012 A 
HETATM   11  C   LIG     1      27.701  24.682  21.167  1.00  0.00     0.001 A 
HETATM   12  C   LIG     1      27.773  25.820  20.360  1.00  0.00     0.000 A 
HETATM   13  C   LIG     1      26.955  25.930  19.232  1.00  0.00     0.001 A 
HETATM   14  C   LIG     1      26.062  24.903  18.911  1.00  0.00     0.012 A 
ENDBRANCH   8   9
TORSDOF 1
ENDMDL
MODEL 18
REMARK VINA RESULT:      -5.2      4.766      7.065
REMARK  1 active torsions:
REMARK  status: ('A' for Active; 'I' for Inactive)
REMARK    1  A    between atoms: C_8  and  C_9 
ROOT
HETATM    1 CL   LIG     1      12.809  31.409  17.344  1.00  0.00    -0.083 Cl
HETATM    2  C   LIG     1      14.260  31.677  16.383  1.00  0.00     0.046 A 
HETATM    3  C   LIG     1      14.339  31.075  15.121  1.00  0.00     0.048 A 
HETATM    4  C   LIG     1      15.491  31.211  14.343  1.00  0.00     0.035 A 
HETATM    5 CL   LIG     1      15.580  30.451  12.765  1.00  0.00    -0.084 Cl
HETATM    6  C   LIG     1      16.576  31.945  14.827  1.00  0.00     0.025 A 
HETATM    7  C   LIG     1      16.509  32.549  16.084  1.00  0.00     0.015 A 
HETATM    8  C   LIG     1      15.350  32.432  16.872  1.00  0.00    -0.004 A 
ENDROOT
BRANCH   8   9
HETATM    9  C   LIG     1      15.307  33.098  18.193  1.00  0.00    -0.024 A 
HETATM   10  C   LIG     1      15.158  32.336  19.365  1.00  0.00     0.012 A 
HETATM   11  C   LIG     1      15.135  32.961  20.615  1.00  0.00     0.001 A 
HETATM   12  C   LIG     1      15.267  34.350  20.706  1.00  0.00     0.000 A 
HETATM   13  C   LIG     1      15.427  35.114  19.547  1.00  0.00     0.001 A 
HETATM   14  C   LIG     1      15.452  34.492  18.295  1.00  0.00     0.012 A 
ENDBRANCH   8   9
TORSDOF 1
ENDMDL
MODEL 19
REMARK VINA RESULT:      -5.0     15.873     16.717
REMARK  1 active torsions:
REMARK  status: ('A' for Active; 'I' for Inactive)
REMARK    1  A    between atoms: C_8  and  C_9 
ROOT
HETATM    1 CL   LIG     1      27.327  21.045  17.496  1.00  0.00    -0.083 Cl
HETATM    2  C   LIG     1      25.596  21.002  17.821  1.00  0.00     0.046 A 
HETATM    3  C   LIG     1      24.860  19.912  17.340  1.00  0.00     0.048 A 
HETATM    4  C   LIG     1      23.475  19.858  17.522  1.00  0.00     0.035 A 
HETATM    5 CL   LIG     1      22.562  18.489  16.915  1.00  0.00    -0.084 Cl
HETATM    6  C   LIG     1      22.818  20.899  18.181  1.00  0.00     0.025 A 
HETATM    7  C   LIG     1      23.543  21.991  18.664  1.00  0.00     0.015 A 
HETATM    8  C   LIG     1      24.938  22.052  18.499  1.00  0.00    -0.004 A 
ENDROOT
BRANCH   8   9
HETATM    9  C   LIG     1      25.676  23.216  19.037  1.00  0.00    -0.024 A 
HETATM   10  C   LIG     1      26.227  23.168  20.330  1.00  0.00     0.012 A 
HETATM   11  C   LIG     1      26.940  24.260  20.834  1.00  0.00     0.001 A 
HETATM   12  C   LIG     1      27.115  25.404  20.051  1.00  0.00     0.000 A 
HETATM   13  C   LIG     1      26.580  25.457  18.760  1.00  0.00     0.001 A 
HETATM   14  C   LIG     1      25.867  24.366  18.252  1.00  0.00     0.012 A 
ENDBRANCH   8   9
TORSDOF 1
ENDMDL
MODEL 20
REMARK VINA RESULT:      -5.0     15.449     16.387
REMARK  1 active torsions:
REMARK  status: ('A' for Active; 'I' for Inactive)
REMARK    1  A    between atoms: C_8  and  C_9 
ROOT
HETATM    1 CL   LIG     1      27.636  21.901  17.467  1.00  0.00    -0.083 Cl
HETATM    2  C   LIG     1      27.410  23.552  18.038  1.00  0.00     0.046 A 
HETATM    3  C   LIG     1      28.409  24.492  17.755  1.00  0.00     0.048 A 
HETATM    4  C   LIG     1      28.304  25.801  18.234  1.00  0.00     0.035 A 
HETATM    5 CL   LIG     1      29.561  26.970  17.876  1.00  0.00    -0.084 Cl
HETATM    6  C   LIG     1      27.201  26.175  19.004  1.00  0.00     0.025 A 
HETATM    7  C   LIG     1      26.199  25.245  19.292  1.00  0.00     0.015 A 
HETATM    8  C   LIG     1      26.286  23.929  18.807  1.00  0.00    -0.004 A 
ENDROOT
BRANCH   8   9
HETATM    9  C   LIG     1      25.199  22.974  19.118  1.00  0.00    -0.024 A 
HETATM   10  C   LIG     1      25.024  22.505  20.432  1.00  0.00     0.012 A 
HETATM   11  C   LIG     1      23.987  21.616  20.732  1.00  0.00     0.001 A 
HETATM   12  C   LIG     1      23.113  21.195  19.727  1.00  0.00     0.000 A 
HETATM   13  C   LIG     1      23.272  21.665  18.420  1.00  0.00     0.001 A 
HETATM   14  C   LIG     1      24.307  22.554  18.115  1.00  0.00     0.012 A 
ENDBRANCH   8   9
TORSDOF 1
ENDMDL
