MODEL 1
REMARK VINA RESULT:      -6.8      0.000      0.000
REMARK  1 active torsions:
REMARK  status: ('A' for Active; 'I' for Inactive)
REMARK    1  A    between atoms: C_10  and  C_11 
ROOT
HETATM    1 CL   LIG     1      13.824  30.956  16.985  1.00  0.00    -0.082 Cl
HETATM    2  C   LIG     1      14.915  31.658  15.785  1.00  0.00     0.068 A 
HETATM    3  C   LIG     1      15.549  32.888  16.056  1.00  0.00     0.080 A 
HETATM    4 CL   LIG     1      15.204  33.748  17.558  1.00  0.00    -0.081 Cl
HETATM    5  C   LIG     1      16.464  33.427  15.133  1.00  0.00     0.079 A 
HETATM    6 CL   LIG     1      17.262  34.966  15.466  1.00  0.00    -0.081 Cl
HETATM    7  C   LIG     1      16.747  32.735  13.945  1.00  0.00     0.058 A 
HETATM    8 CL   LIG     1      17.890  33.370  12.767  1.00  0.00    -0.082 Cl
HETATM    9  C   LIG     1      16.117  31.519  13.678  1.00  0.00     0.039 A 
HETATM   10  C   LIG     1      15.193  30.974  14.582  1.00  0.00    -0.001 A 
ENDROOT
BRANCH  10  11
HETATM   11  C   LIG     1      14.537  29.691  14.244  1.00  0.00    -0.024 A 
HETATM   12  C   LIG     1      15.309  28.587  13.846  1.00  0.00     0.012 A 
HETATM   13  C   LIG     1      14.690  27.379  13.510  1.00  0.00     0.001 A 
HETATM   14  C   LIG     1      13.298  27.268  13.560  1.00  0.00     0.000 A 
HETATM   15  C   LIG     1      12.522  28.365  13.942  1.00  0.00     0.001 A 
HETATM   16  C   LIG     1      13.137  29.575  14.280  1.00  0.00     0.012 A 
ENDBRANCH  10  11
TORSDOF 1
ENDMDL
MODEL 2
REMARK VINA RESULT:      -6.2      7.607     10.697
REMARK  1 active torsions:
REMARK  status: ('A' for Active; 'I' for Inactive)
REMARK    1  A    between atoms: C_10  and  C_11 
ROOT
HETATM    1 CL   LIG     1      18.670  37.823  21.812  1.00  0.00    -0.082 Cl
HETATM    2  C   LIG     1      17.502  36.531  21.513  1.00  0.00     0.068 A 
HETATM    3  C   LIG     1      17.171  36.185  20.187  1.00  0.00     0.080 A 
HETATM    4 CL   LIG     1      17.873  37.082  18.838  1.00  0.00    -0.081 Cl
HETATM    5  C   LIG     1      16.287  35.119  19.936  1.00  0.00     0.079 A 
HETATM    6 CL   LIG     1      15.868  34.681  18.278  1.00  0.00    -0.081 Cl
HETATM    7  C   LIG     1      15.741  34.398  21.009  1.00  0.00     0.058 A 
HETATM    8 CL   LIG     1      14.637  33.054  20.741  1.00  0.00    -0.082 Cl
HETATM    9  C   LIG     1      16.069  34.743  22.321  1.00  0.00     0.039 A 
HETATM   10  C   LIG     1      16.938  35.810  22.588  1.00  0.00    -0.001 A 
ENDROOT
BRANCH  10  11
HETATM   11  C   LIG     1      17.240  36.149  23.997  1.00  0.00    -0.024 A 
HETATM   12  C   LIG     1      17.186  37.486  24.429  1.00  0.00     0.012 A 
HETATM   13  C   LIG     1      17.489  37.810  25.755  1.00  0.00     0.001 A 
HETATM   14  C   LIG     1      17.853  36.806  26.656  1.00  0.00     0.000 A 
HETATM   15  C   LIG     1      17.922  35.476  26.232  1.00  0.00     0.001 A 
HETATM   16  C   LIG     1      17.620  35.147  24.907  1.00  0.00     0.012 A 
ENDBRANCH  10  11
TORSDOF 1
ENDMDL
MODEL 3
REMARK VINA RESULT:      -6.1      5.372      7.350
REMARK  1 active torsions:
REMARK  status: ('A' for Active; 'I' for Inactive)
REMARK    1  A    between atoms: C_10  and  C_11 
ROOT
HETATM    1 CL   LIG     1      14.378  35.385  21.929  1.00  0.00    -0.082 Cl
HETATM    2  C   LIG     1      15.858  36.081  21.260  1.00  0.00     0.068 A 
HETATM    3  C   LIG     1      16.480  37.160  21.921  1.00  0.00     0.080 A 
HETATM    4 CL   LIG     1      15.748  37.848  23.372  1.00  0.00    -0.081 Cl
HETATM    5  C   LIG     1      17.690  37.685  21.429  1.00  0.00     0.079 A 
HETATM    6 CL   LIG     1      18.474  39.035  22.252  1.00  0.00    -0.081 Cl
HETATM    7  C   LIG     1      18.278  37.127  20.283  1.00  0.00     0.058 A 
HETATM    8 CL   LIG     1      19.794  37.747  19.639  1.00  0.00    -0.082 Cl
HETATM    9  C   LIG     1      17.660  36.060  19.629  1.00  0.00     0.039 A 
HETATM   10  C   LIG     1      16.447  35.535  20.099  1.00  0.00    -0.001 A 
ENDROOT
BRANCH  10  11
HETATM   11  C   LIG     1      15.821  34.416  19.360  1.00  0.00    -0.024 A 
HETATM   12  C   LIG     1      15.616  33.178  19.993  1.00  0.00     0.012 A 
HETATM   13  C   LIG     1      15.041  32.114  19.291  1.00  0.00     0.001 A 
HETATM   14  C   LIG     1      14.674  32.275  17.953  1.00  0.00     0.000 A 
HETATM   15  C   LIG     1      14.886  33.499  17.311  1.00  0.00     0.001 A 
HETATM   16  C   LIG     1      15.460  34.566  18.010  1.00  0.00     0.012 A 
ENDBRANCH  10  11
TORSDOF 1
ENDMDL
MODEL 4
REMARK VINA RESULT:      -5.3      2.664      5.700
REMARK  1 active torsions:
REMARK  status: ('A' for Active; 'I' for Inactive)
REMARK    1  A    between atoms: C_10  and  C_11 
ROOT
HETATM    1 CL   LIG     1      16.297  31.026  12.824  1.00  0.00    -0.082 Cl
HETATM    2  C   LIG     1      16.014  32.034  14.247  1.00  0.00     0.068 A 
HETATM    3  C   LIG     1      15.058  31.636  15.204  1.00  0.00     0.080 A 
HETATM    4 CL   LIG     1      14.107  30.172  14.946  1.00  0.00    -0.081 Cl
HETATM    5  C   LIG     1      14.867  32.400  16.370  1.00  0.00     0.079 A 
HETATM    6 CL   LIG     1      13.672  31.907  17.571  1.00  0.00    -0.081 Cl
HETATM    7  C   LIG     1      15.634  33.556  16.580  1.00  0.00     0.058 A 
HETATM    8 CL   LIG     1      15.433  34.538  18.027  1.00  0.00    -0.082 Cl
HETATM    9  C   LIG     1      16.579  33.950  15.631  1.00  0.00     0.039 A 
HETATM   10  C   LIG     1      16.773  33.206  14.458  1.00  0.00    -0.001 A 
ENDROOT
BRANCH  10  11
HETATM   11  C   LIG     1      17.773  33.675  13.473  1.00  0.00    -0.024 A 
HETATM   12  C   LIG     1      17.363  34.391  12.336  1.00  0.00     0.012 A 
HETATM   13  C   LIG     1      18.304  34.819  11.395  1.00  0.00     0.001 A 
HETATM   14  C   LIG     1      19.659  34.530  11.579  1.00  0.00     0.000 A 
HETATM   15  C   LIG     1      20.075  33.808  12.701  1.00  0.00     0.001 A 
HETATM   16  C   LIG     1      19.136  33.378  13.644  1.00  0.00     0.012 A 
ENDBRANCH  10  11
TORSDOF 1
ENDMDL
MODEL 5
REMARK VINA RESULT:      -5.1     13.922     15.096
REMARK  1 active torsions:
REMARK  status: ('A' for Active; 'I' for Inactive)
REMARK    1  A    between atoms: C_10  and  C_11 
ROOT
HETATM    1 CL   LIG     1      28.015  24.945  21.592  1.00  0.00    -0.082 Cl
HETATM    2  C   LIG     1      26.811  24.097  20.615  1.00  0.00     0.068 A 
HETATM    3  C   LIG     1      25.914  23.206  21.237  1.00  0.00     0.080 A 
HETATM    4 CL   LIG     1      26.036  22.893  22.970  1.00  0.00    -0.081 Cl
HETATM    5  C   LIG     1      24.913  22.569  20.478  1.00  0.00     0.079 A 
HETATM    6 CL   LIG     1      23.786  21.452  21.250  1.00  0.00    -0.081 Cl
HETATM    7  C   LIG     1      24.809  22.830  19.103  1.00  0.00     0.058 A 
HETATM    8 CL   LIG     1      23.568  22.062  18.118  1.00  0.00    -0.082 Cl
HETATM    9  C   LIG     1      25.699  23.712  18.489  1.00  0.00     0.039 A 
HETATM   10  C   LIG     1      26.709  24.344  19.229  1.00  0.00    -0.001 A 
ENDROOT
BRANCH  10  11
HETATM   11  C   LIG     1      27.641  25.256  18.528  1.00  0.00    -0.024 A 
HETATM   12  C   LIG     1      27.718  26.609  18.900  1.00  0.00     0.012 A 
HETATM   13  C   LIG     1      28.585  27.476  18.228  1.00  0.00     0.001 A 
HETATM   14  C   LIG     1      29.374  27.002  17.177  1.00  0.00     0.000 A 
HETATM   15  C   LIG     1      29.295  25.661  16.792  1.00  0.00     0.001 A 
HETATM   16  C   LIG     1      28.429  24.790  17.462  1.00  0.00     0.012 A 
ENDBRANCH  10  11
TORSDOF 1
ENDMDL
MODEL 6
REMARK VINA RESULT:      -5.0     22.014     23.566
REMARK  1 active torsions:
REMARK  status: ('A' for Active; 'I' for Inactive)
REMARK    1  A    between atoms: C_10  and  C_11 
ROOT
HETATM    1 CL   LIG     1      27.848  28.043  34.175  1.00  0.00    -0.082 Cl
HETATM    2  C   LIG     1      28.533  29.364  33.222  1.00  0.00     0.068 A 
HETATM    3  C   LIG     1      29.127  29.088  31.974  1.00  0.00     0.080 A 
HETATM    4 CL   LIG     1      29.239  27.422  31.399  1.00  0.00    -0.081 Cl
HETATM    5  C   LIG     1      29.623  30.138  31.181  1.00  0.00     0.079 A 
HETATM    6 CL   LIG     1      30.367  29.799  29.617  1.00  0.00    -0.081 Cl
HETATM    7  C   LIG     1      29.519  31.463  31.633  1.00  0.00     0.058 A 
HETATM    8 CL   LIG     1      30.120  32.808  30.670  1.00  0.00    -0.082 Cl
HETATM    9  C   LIG     1      28.933  31.735  32.870  1.00  0.00     0.039 A 
HETATM   10  C   LIG     1      28.445  30.698  33.678  1.00  0.00    -0.001 A 
ENDROOT
BRANCH  10  11
HETATM   11  C   LIG     1      27.849  31.036  34.990  1.00  0.00    -0.024 A 
HETATM   12  C   LIG     1      26.452  31.074  35.141  1.00  0.00     0.012 A 
HETATM   13  C   LIG     1      25.887  31.410  36.376  1.00  0.00     0.001 A 
HETATM   14  C   LIG     1      26.709  31.719  37.462  1.00  0.00     0.000 A 
HETATM   15  C   LIG     1      28.099  31.696  37.316  1.00  0.00     0.001 A 
HETATM   16  C   LIG     1      28.669  31.359  36.084  1.00  0.00     0.012 A 
ENDBRANCH  10  11
TORSDOF 1
ENDMDL
MODEL 7
REMARK VINA RESULT:      -5.0     22.510     24.239
REMARK  1 active torsions:
REMARK  status: ('A' for Active; 'I' for Inactive)
REMARK    1  A    between atoms: C_10  and  C_11 
ROOT
HETATM    1 CL   LIG     1      28.826  31.022  33.199  1.00  0.00    -0.082 Cl
HETATM    2  C   LIG     1      28.064  29.473  33.577  1.00  0.00     0.068 A 
HETATM    3  C   LIG     1      28.073  28.440  32.619  1.00  0.00     0.080 A 
HETATM    4 CL   LIG     1      28.786  28.716  31.028  1.00  0.00    -0.081 Cl
HETATM    5  C   LIG     1      27.520  27.184  32.930  1.00  0.00     0.079 A 
HETATM    6 CL   LIG     1      27.528  25.886  31.734  1.00  0.00    -0.081 Cl
HETATM    7  C   LIG     1      26.966  26.961  34.201  1.00  0.00     0.058 A 
HETATM    8 CL   LIG     1      26.271  25.404  34.636  1.00  0.00    -0.082 Cl
HETATM    9  C   LIG     1      26.957  27.986  35.149  1.00  0.00     0.039 A 
HETATM   10  C   LIG     1      27.492  29.247  34.848  1.00  0.00    -0.001 A 
ENDROOT
BRANCH  10  11
HETATM   11  C   LIG     1      27.442  30.307  35.880  1.00  0.00    -0.024 A 
HETATM   12  C   LIG     1      28.620  30.722  36.525  1.00  0.00     0.012 A 
HETATM   13  C   LIG     1      28.572  31.711  37.513  1.00  0.00     0.001 A 
HETATM   14  C   LIG     1      27.349  32.285  37.869  1.00  0.00     0.000 A 
HETATM   15  C   LIG     1      26.171  31.870  37.243  1.00  0.00     0.001 A 
HETATM   16  C   LIG     1      26.215  30.881  36.254  1.00  0.00     0.012 A 
ENDBRANCH  10  11
TORSDOF 1
ENDMDL
MODEL 8
REMARK VINA RESULT:      -5.0     14.881     15.877
REMARK  1 active torsions:
REMARK  status: ('A' for Active; 'I' for Inactive)
REMARK    1  A    between atoms: C_10  and  C_11 
ROOT
HETATM    1 CL   LIG     1      22.410  19.542  23.535  1.00  0.00    -0.082 Cl
HETATM    2  C   LIG     1      23.397  20.877  24.139  1.00  0.00     0.068 A 
HETATM    3  C   LIG     1      23.639  20.993  25.523  1.00  0.00     0.080 A 
HETATM    4 CL   LIG     1      22.907  19.847  26.648  1.00  0.00    -0.081 Cl
HETATM    5  C   LIG     1      24.472  22.018  26.009  1.00  0.00     0.079 A 
HETATM    6 CL   LIG     1      24.779  22.169  27.741  1.00  0.00    -0.081 Cl
HETATM    7  C   LIG     1      25.064  22.920  25.112  1.00  0.00     0.058 A 
HETATM    8 CL   LIG     1      26.117  24.213  25.676  1.00  0.00    -0.082 Cl
HETATM    9  C   LIG     1      24.822  22.805  23.742  1.00  0.00     0.039 A 
HETATM   10  C   LIG     1      23.985  21.797  23.244  1.00  0.00    -0.001 A 
ENDROOT
BRANCH  10  11
HETATM   11  C   LIG     1      23.744  21.727  21.785  1.00  0.00    -0.024 A 
HETATM   12  C   LIG     1      22.684  22.449  21.209  1.00  0.00     0.012 A 
HETATM   13  C   LIG     1      22.444  22.371  19.834  1.00  0.00     0.001 A 
HETATM   14  C   LIG     1      23.252  21.567  19.026  1.00  0.00     0.000 A 
HETATM   15  C   LIG     1      24.301  20.836  19.592  1.00  0.00     0.001 A 
HETATM   16  C   LIG     1      24.545  20.912  20.967  1.00  0.00     0.012 A 
ENDBRANCH  10  11
TORSDOF 1
ENDMDL
MODEL 9
REMARK VINA RESULT:      -4.9     21.875     23.233
REMARK  1 active torsions:
REMARK  status: ('A' for Active; 'I' for Inactive)
REMARK    1  A    between atoms: C_10  and  C_11 
ROOT
HETATM    1 CL   LIG     1      28.587  25.562  33.844  1.00  0.00    -0.082 Cl
HETATM    2  C   LIG     1      27.826  27.039  34.447  1.00  0.00     0.068 A 
HETATM    3  C   LIG     1      27.544  27.165  35.822  1.00  0.00     0.080 A 
HETATM    4 CL   LIG     1      27.893  25.830  36.923  1.00  0.00    -0.081 Cl
HETATM    5  C   LIG     1      26.991  28.359  36.322  1.00  0.00     0.079 A 
HETATM    6 CL   LIG     1      26.636  28.524  38.042  1.00  0.00    -0.081 Cl
HETATM    7  C   LIG     1      26.727  29.425  35.447  1.00  0.00     0.058 A 
HETATM    8 CL   LIG     1      26.043  30.938  36.030  1.00  0.00    -0.082 Cl
HETATM    9  C   LIG     1      27.006  29.297  34.086  1.00  0.00     0.039 A 
HETATM   10  C   LIG     1      27.544  28.109  33.571  1.00  0.00    -0.001 A 
ENDROOT
BRANCH  10  11
HETATM   11  C   LIG     1      27.804  28.016  32.117  1.00  0.00    -0.024 A 
HETATM   12  C   LIG     1      26.987  27.212  31.304  1.00  0.00     0.012 A 
HETATM   13  C   LIG     1      27.242  27.108  29.932  1.00  0.00     0.001 A 
HETATM   14  C   LIG     1      28.316  27.799  29.366  1.00  0.00     0.000 A 
HETATM   15  C   LIG     1      29.141  28.591  30.168  1.00  0.00     0.001 A 
HETATM   16  C   LIG     1      28.890  28.698  31.540  1.00  0.00     0.012 A 
ENDBRANCH  10  11
TORSDOF 1
ENDMDL
MODEL 10
REMARK VINA RESULT:      -4.7     13.681     14.616
REMARK  1 active torsions:
REMARK  status: ('A' for Active; 'I' for Inactive)
REMARK    1  A    between atoms: C_10  and  C_11 
ROOT
HETATM    1 CL   LIG     1      27.183  21.130  17.450  1.00  0.00    -0.082 Cl
HETATM    2  C   LIG     1      27.491  22.835  17.801  1.00  0.00     0.068 A 
HETATM    3  C   LIG     1      28.681  23.436  17.344  1.00  0.00     0.080 A 
HETATM    4 CL   LIG     1      29.883  22.473  16.480  1.00  0.00    -0.081 Cl
HETATM    5  C   LIG     1      28.910  24.806  17.567  1.00  0.00     0.079 A 
HETATM    6 CL   LIG     1      30.398  25.565  16.996  1.00  0.00    -0.081 Cl
HETATM    7  C   LIG     1      27.947  25.574  18.241  1.00  0.00     0.058 A 
HETATM    8 CL   LIG     1      28.189  27.292  18.535  1.00  0.00    -0.082 Cl
HETATM    9  C   LIG     1      26.770  24.976  18.695  1.00  0.00     0.039 A 
HETATM   10  C   LIG     1      26.533  23.609  18.491  1.00  0.00    -0.001 A 
ENDROOT
BRANCH  10  11
HETATM   11  C   LIG     1      25.278  23.018  19.008  1.00  0.00    -0.024 A 
HETATM   12  C   LIG     1      25.030  22.987  20.391  1.00  0.00     0.012 A 
HETATM   13  C   LIG     1      23.853  22.413  20.883  1.00  0.00     0.001 A 
HETATM   14  C   LIG     1      22.922  21.861  20.000  1.00  0.00     0.000 A 
HETATM   15  C   LIG     1      23.166  21.876  18.624  1.00  0.00     0.001 A 
HETATM   16  C   LIG     1      24.342  22.450  18.128  1.00  0.00     0.012 A 
ENDBRANCH  10  11
TORSDOF 1
ENDMDL
MODEL 11
REMARK VINA RESULT:      -4.6     13.960     15.435
REMARK  1 active torsions:
REMARK  status: ('A' for Active; 'I' for Inactive)
REMARK    1  A    between atoms: C_10  and  C_11 
ROOT
HETATM    1 CL   LIG     1      27.562  22.161  17.382  1.00  0.00    -0.082 Cl
HETATM    2  C   LIG     1      26.150  22.238  18.440  1.00  0.00     0.068 A 
HETATM    3  C   LIG     1      25.139  21.262  18.324  1.00  0.00     0.080 A 
HETATM    4 CL   LIG     1      25.258  20.009  17.086  1.00  0.00    -0.081 Cl
HETATM    5  C   LIG     1      24.038  21.280  19.200  1.00  0.00     0.079 A 
HETATM    6 CL   LIG     1      22.770  20.061  19.061  1.00  0.00    -0.081 Cl
HETATM    7  C   LIG     1      23.953  22.268  20.194  1.00  0.00     0.058 A 
HETATM    8 CL   LIG     1      22.597  22.323  21.315  1.00  0.00    -0.082 Cl
HETATM    9  C   LIG     1      24.953  23.234  20.306  1.00  0.00     0.039 A 
HETATM   10  C   LIG     1      26.050  23.238  19.432  1.00  0.00    -0.001 A 
ENDROOT
BRANCH  10  11
HETATM   11  C   LIG     1      27.075  24.295  19.579  1.00  0.00    -0.024 A 
HETATM   12  C   LIG     1      26.939  25.512  18.888  1.00  0.00     0.012 A 
HETATM   13  C   LIG     1      27.916  26.505  19.012  1.00  0.00     0.001 A 
HETATM   14  C   LIG     1      29.036  26.289  19.818  1.00  0.00     0.000 A 
HETATM   15  C   LIG     1      29.187  25.077  20.498  1.00  0.00     0.001 A 
HETATM   16  C   LIG     1      28.212  24.081  20.378  1.00  0.00     0.012 A 
ENDBRANCH  10  11
TORSDOF 1
ENDMDL
MODEL 12
REMARK VINA RESULT:      -4.6     13.954     15.330
REMARK  1 active torsions:
REMARK  status: ('A' for Active; 'I' for Inactive)
REMARK    1  A    between atoms: C_10  and  C_11 
ROOT
HETATM    1 CL   LIG     1      24.932  22.236  17.899  1.00  0.00    -0.082 Cl
HETATM    2  C   LIG     1      24.808  22.312  19.660  1.00  0.00     0.068 A 
HETATM    3  C   LIG     1      23.872  21.498  20.328  1.00  0.00     0.080 A 
HETATM    4 CL   LIG     1      22.788  20.456  19.403  1.00  0.00    -0.081 Cl
HETATM    5  C   LIG     1      23.804  21.508  21.734  1.00  0.00     0.079 A 
HETATM    6 CL   LIG     1      22.634  20.490  22.576  1.00  0.00    -0.081 Cl
HETATM    7  C   LIG     1      24.677  22.326  22.468  1.00  0.00     0.058 A 
HETATM    8 CL   LIG     1      24.632  22.364  24.227  1.00  0.00    -0.082 Cl
HETATM    9  C   LIG     1      25.602  23.133  21.805  1.00  0.00     0.039 A 
HETATM   10  C   LIG     1      25.673  23.144  20.405  1.00  0.00    -0.001 A 
ENDROOT
BRANCH  10  11
HETATM   11  C   LIG     1      26.659  24.031  19.748  1.00  0.00    -0.024 A 
HETATM   12  C   LIG     1      26.379  25.398  19.583  1.00  0.00     0.012 A 
HETATM   13  C   LIG     1      27.301  26.235  18.947  1.00  0.00     0.001 A 
HETATM   14  C   LIG     1      28.503  25.712  18.464  1.00  0.00     0.000 A 
HETATM   15  C   LIG     1      28.785  24.351  18.611  1.00  0.00     0.001 A 
HETATM   16  C   LIG     1      27.865  23.511  19.248  1.00  0.00     0.012 A 
ENDBRANCH  10  11
TORSDOF 1
ENDMDL
MODEL 13
REMARK VINA RESULT:      -4.5      2.660      5.933
REMARK  1 active torsions:
REMARK  status: ('A' for Active; 'I' for Inactive)
REMARK    1  A    between atoms: C_10  and  C_11 
ROOT
HETATM    1 CL   LIG     1      17.245  34.386  16.065  1.00  0.00    -0.082 Cl
HETATM    2  C   LIG     1      16.134  33.039  15.794  1.00  0.00     0.068 A 
HETATM    3  C   LIG     1      16.101  32.406  14.535  1.00  0.00     0.080 A 
HETATM    4 CL   LIG     1      17.120  32.998  13.221  1.00  0.00    -0.081 Cl
HETATM    5  C   LIG     1      15.263  31.295  14.326  1.00  0.00     0.079 A 
HETATM    6 CL   LIG     1      15.218  30.497  12.752  1.00  0.00    -0.081 Cl
HETATM    7  C   LIG     1      14.465  30.816  15.377  1.00  0.00     0.058 A 
HETATM    8 CL   LIG     1      13.407  29.426  15.161  1.00  0.00    -0.082 Cl
HETATM    9  C   LIG     1      14.497  31.445  16.622  1.00  0.00     0.039 A 
HETATM   10  C   LIG     1      15.317  32.561  16.842  1.00  0.00    -0.001 A 
ENDROOT
BRANCH  10  11
HETATM   11  C   LIG     1      15.302  33.206  18.175  1.00  0.00    -0.024 A 
HETATM   12  C   LIG     1      15.442  34.600  18.286  1.00  0.00     0.012 A 
HETATM   13  C   LIG     1      15.446  35.208  19.545  1.00  0.00     0.001 A 
HETATM   14  C   LIG     1      15.318  34.431  20.699  1.00  0.00     0.000 A 
HETATM   15  C   LIG     1      15.191  33.043  20.598  1.00  0.00     0.001 A 
HETATM   16  C   LIG     1      15.187  32.430  19.341  1.00  0.00     0.012 A 
ENDBRANCH  10  11
TORSDOF 1
ENDMDL
MODEL 14
REMARK VINA RESULT:      -4.5     14.399     15.485
REMARK  1 active torsions:
REMARK  status: ('A' for Active; 'I' for Inactive)
REMARK    1  A    between atoms: C_10  and  C_11 
ROOT
HETATM    1 CL   LIG     1      25.436  24.159  17.904  1.00  0.00    -0.082 Cl
HETATM    2  C   LIG     1      26.135  24.037  19.522  1.00  0.00     0.068 A 
HETATM    3  C   LIG     1      25.480  23.271  20.508  1.00  0.00     0.080 A 
HETATM    4 CL   LIG     1      23.939  22.491  20.142  1.00  0.00    -0.081 Cl
HETATM    5  C   LIG     1      26.057  23.120  21.782  1.00  0.00     0.079 A 
HETATM    6 CL   LIG     1      25.243  22.161  23.020  1.00  0.00    -0.081 Cl
HETATM    7  C   LIG     1      27.290  23.729  22.067  1.00  0.00     0.058 A 
HETATM    8 CL   LIG     1      28.051  23.560  23.645  1.00  0.00    -0.082 Cl
HETATM    9  C   LIG     1      27.936  24.488  21.090  1.00  0.00     0.039 A 
HETATM   10  C   LIG     1      27.367  24.659  19.820  1.00  0.00    -0.001 A 
ENDROOT
BRANCH  10  11
HETATM   11  C   LIG     1      28.082  25.490  18.825  1.00  0.00    -0.024 A 
HETATM   12  C   LIG     1      28.797  24.880  17.780  1.00  0.00     0.012 A 
HETATM   13  C   LIG     1      29.488  25.663  16.849  1.00  0.00     0.001 A 
HETATM   14  C   LIG     1      29.475  27.055  16.959  1.00  0.00     0.000 A 
HETATM   15  C   LIG     1      28.777  27.670  18.002  1.00  0.00     0.001 A 
HETATM   16  C   LIG     1      28.084  26.891  18.935  1.00  0.00     0.012 A 
ENDBRANCH  10  11
TORSDOF 1
ENDMDL
MODEL 15
REMARK VINA RESULT:      -4.4     15.745     16.691
REMARK  1 active torsions:
REMARK  status: ('A' for Active; 'I' for Inactive)
REMARK    1  A    between atoms: C_10  and  C_11 
ROOT
HETATM    1 CL   LIG     1      28.043  22.452  23.452  1.00  0.00    -0.082 Cl
HETATM    2  C   LIG     1      26.399  22.606  22.823  1.00  0.00     0.068 A 
HETATM    3  C   LIG     1      26.167  22.463  21.440  1.00  0.00     0.080 A 
HETATM    4 CL   LIG     1      27.521  22.194  20.340  1.00  0.00    -0.081 Cl
HETATM    5  C   LIG     1      24.855  22.526  20.935  1.00  0.00     0.079 A 
HETATM    6 CL   LIG     1      24.557  22.348  19.205  1.00  0.00    -0.081 Cl
HETATM    7  C   LIG     1      23.779  22.726  21.814  1.00  0.00     0.058 A 
HETATM    8 CL   LIG     1      22.121  22.804  21.227  1.00  0.00    -0.082 Cl
HETATM    9  C   LIG     1      24.011  22.869  23.183  1.00  0.00     0.039 A 
HETATM   10  C   LIG     1      25.313  22.821  23.699  1.00  0.00    -0.001 A 
ENDROOT
BRANCH  10  11
HETATM   11  C   LIG     1      25.509  22.997  25.156  1.00  0.00    -0.024 A 
HETATM   12  C   LIG     1      26.117  24.164  25.650  1.00  0.00     0.012 A 
HETATM   13  C   LIG     1      26.320  24.325  27.025  1.00  0.00     0.001 A 
HETATM   14  C   LIG     1      25.925  23.321  27.912  1.00  0.00     0.000 A 
HETATM   15  C   LIG     1      25.331  22.152  27.429  1.00  0.00     0.001 A 
HETATM   16  C   LIG     1      25.127  21.987  26.055  1.00  0.00     0.012 A 
ENDBRANCH  10  11
TORSDOF 1
ENDMDL
MODEL 16
REMARK VINA RESULT:      -4.4     14.414     15.554
REMARK  1 active torsions:
REMARK  status: ('A' for Active; 'I' for Inactive)
REMARK    1  A    between atoms: C_10  and  C_11 
ROOT
HETATM    1 CL   LIG     1      23.609  21.740  19.951  1.00  0.00    -0.082 Cl
HETATM    2  C   LIG     1      24.413  22.149  21.470  1.00  0.00     0.068 A 
HETATM    3  C   LIG     1      23.904  21.647  22.685  1.00  0.00     0.080 A 
HETATM    4 CL   LIG     1      22.435  20.668  22.690  1.00  0.00    -0.081 Cl
HETATM    5  C   LIG     1      24.569  21.919  23.894  1.00  0.00     0.079 A 
HETATM    6 CL   LIG     1      23.936  21.293  25.418  1.00  0.00    -0.081 Cl
HETATM    7  C   LIG     1      25.745  22.685  23.887  1.00  0.00     0.058 A 
HETATM    8 CL   LIG     1      26.613  23.043  25.375  1.00  0.00    -0.082 Cl
HETATM    9  C   LIG     1      26.247  23.183  22.683  1.00  0.00     0.039 A 
HETATM   10  C   LIG     1      25.588  22.932  21.471  1.00  0.00    -0.001 A 
ENDROOT
BRANCH  10  11
HETATM   11  C   LIG     1      26.150  23.497  20.224  1.00  0.00    -0.024 A 
HETATM   12  C   LIG     1      26.958  22.704  19.390  1.00  0.00     0.012 A 
HETATM   13  C   LIG     1      27.504  23.242  18.221  1.00  0.00     0.001 A 
HETATM   14  C   LIG     1      27.255  24.573  17.880  1.00  0.00     0.000 A 
HETATM   15  C   LIG     1      26.464  25.373  18.709  1.00  0.00     0.001 A 
HETATM   16  C   LIG     1      25.915  24.839  19.879  1.00  0.00     0.012 A 
ENDBRANCH  10  11
TORSDOF 1
ENDMDL
MODEL 17
REMARK VINA RESULT:      -4.3     14.356     15.711
REMARK  1 active torsions:
REMARK  status: ('A' for Active; 'I' for Inactive)
REMARK    1  A    between atoms: C_10  and  C_11 
ROOT
HETATM    1 CL   LIG     1      29.131  22.037  19.280  1.00  0.00    -0.082 Cl
HETATM    2  C   LIG     1      27.396  21.988  18.949  1.00  0.00     0.068 A 
HETATM    3  C   LIG     1      26.680  20.793  19.161  1.00  0.00     0.080 A 
HETATM    4 CL   LIG     1      27.526  19.338  19.694  1.00  0.00    -0.081 Cl
HETATM    5  C   LIG     1      25.288  20.758  18.957  1.00  0.00     0.079 A 
HETATM    6 CL   LIG     1      24.385  19.265  19.221  1.00  0.00    -0.081 Cl
HETATM    7  C   LIG     1      24.614  21.920  18.547  1.00  0.00     0.058 A 
HETATM    8 CL   LIG     1      22.874  21.924  18.286  1.00  0.00    -0.082 Cl
HETATM    9  C   LIG     1      25.325  23.102  18.336  1.00  0.00     0.039 A 
HETATM   10  C   LIG     1      26.714  23.149  18.523  1.00  0.00    -0.001 A 
ENDROOT
BRANCH  10  11
HETATM   11  C   LIG     1      27.425  24.421  18.268  1.00  0.00    -0.024 A 
HETATM   12  C   LIG     1      28.245  24.557  17.134  1.00  0.00     0.012 A 
HETATM   13  C   LIG     1      28.932  25.752  16.900  1.00  0.00     0.001 A 
HETATM   14  C   LIG     1      28.812  26.815  17.798  1.00  0.00     0.000 A 
HETATM   15  C   LIG     1      28.010  26.685  18.935  1.00  0.00     0.001 A 
HETATM   16  C   LIG     1      27.320  25.492  19.172  1.00  0.00     0.012 A 
ENDBRANCH  10  11
TORSDOF 1
ENDMDL
MODEL 18
REMARK VINA RESULT:      -4.3     17.803     18.904
REMARK  1 active torsions:
REMARK  status: ('A' for Active; 'I' for Inactive)
REMARK    1  A    between atoms: C_10  and  C_11 
ROOT
HETATM    1 CL   LIG     1      27.881  24.600  25.466  1.00  0.00    -0.082 Cl
HETATM    2  C   LIG     1      26.437  23.640  25.807  1.00  0.00     0.068 A 
HETATM    3  C   LIG     1      25.767  22.991  24.750  1.00  0.00     0.080 A 
HETATM    4 CL   LIG     1      26.334  23.189  23.090  1.00  0.00    -0.081 Cl
HETATM    5  C   LIG     1      24.650  22.177  25.018  1.00  0.00     0.079 A 
HETATM    6 CL   LIG     1      23.807  21.361  23.699  1.00  0.00    -0.081 Cl
HETATM    7  C   LIG     1      24.210  22.009  26.340  1.00  0.00     0.058 A 
HETATM    8 CL   LIG     1      22.822  20.995  26.720  1.00  0.00    -0.082 Cl
HETATM    9  C   LIG     1      24.873  22.654  27.385  1.00  0.00     0.039 A 
HETATM   10  C   LIG     1      25.979  23.478  27.133  1.00  0.00    -0.001 A 
ENDROOT
BRANCH  10  11
HETATM   11  C   LIG     1      26.637  24.156  28.273  1.00  0.00    -0.024 A 
HETATM   12  C   LIG     1      27.308  23.402  29.250  1.00  0.00     0.012 A 
HETATM   13  C   LIG     1      27.916  24.039  30.338  1.00  0.00     0.001 A 
HETATM   14  C   LIG     1      27.850  25.429  30.460  1.00  0.00     0.000 A 
HETATM   15  C   LIG     1      27.174  26.186  29.500  1.00  0.00     0.001 A 
HETATM   16  C   LIG     1      26.566  25.553  28.411  1.00  0.00     0.012 A 
ENDBRANCH  10  11
TORSDOF 1
ENDMDL
MODEL 19
REMARK VINA RESULT:      -4.2     15.660     16.841
REMARK  1 active torsions:
REMARK  status: ('A' for Active; 'I' for Inactive)
REMARK    1  A    between atoms: C_10  and  C_11 
ROOT
HETATM    1 CL   LIG     1      27.392  20.659  23.395  1.00  0.00    -0.082 Cl
HETATM    2  C   LIG     1      25.880  21.286  22.730  1.00  0.00     0.068 A 
HETATM    3  C   LIG     1      25.247  20.602  21.673  1.00  0.00     0.080 A 
HETATM    4 CL   LIG     1      25.996  19.162  20.978  1.00  0.00    -0.081 Cl
HETATM    5  C   LIG     1      24.013  21.060  21.175  1.00  0.00     0.079 A 
HETATM    6 CL   LIG     1      23.215  20.207  19.851  1.00  0.00    -0.081 Cl
HETATM    7  C   LIG     1      23.412  22.197  21.738  1.00  0.00     0.058 A 
HETATM    8 CL   LIG     1      21.867  22.800  21.151  1.00  0.00    -0.082 Cl
HETATM    9  C   LIG     1      24.041  22.874  22.784  1.00  0.00     0.039 A 
HETATM   10  C   LIG     1      25.277  22.437  23.282  1.00  0.00    -0.001 A 
ENDROOT
BRANCH  10  11
HETATM   11  C   LIG     1      25.913  23.201  24.379  1.00  0.00    -0.024 A 
HETATM   12  C   LIG     1      25.400  23.121  25.685  1.00  0.00     0.012 A 
HETATM   13  C   LIG     1      25.988  23.855  26.720  1.00  0.00     0.001 A 
HETATM   14  C   LIG     1      27.086  24.679  26.457  1.00  0.00     0.000 A 
HETATM   15  C   LIG     1      27.595  24.774  25.159  1.00  0.00     0.001 A 
HETATM   16  C   LIG     1      27.010  24.041  24.121  1.00  0.00     0.012 A 
ENDBRANCH  10  11
TORSDOF 1
ENDMDL
MODEL 20
REMARK VINA RESULT:      -4.1     14.347     15.438
REMARK  1 active torsions:
REMARK  status: ('A' for Active; 'I' for Inactive)
REMARK    1  A    between atoms: C_10  and  C_11 
ROOT
HETATM    1 CL   LIG     1      24.482  22.652  18.163  1.00  0.00    -0.082 Cl
HETATM    2  C   LIG     1      25.340  22.884  19.690  1.00  0.00     0.068 A 
HETATM    3  C   LIG     1      24.645  22.739  20.908  1.00  0.00     0.080 A 
HETATM    4 CL   LIG     1      22.914  22.388  20.901  1.00  0.00    -0.081 Cl
HETATM    5  C   LIG     1      25.330  22.864  22.130  1.00  0.00     0.079 A 
HETATM    6 CL   LIG     1      24.466  22.682  23.658  1.00  0.00    -0.081 Cl
HETATM    7  C   LIG     1      26.708  23.129  22.133  1.00  0.00     0.058 A 
HETATM    8 CL   LIG     1      27.606  23.287  23.639  1.00  0.00    -0.082 Cl
HETATM    9  C   LIG     1      27.395  23.275  20.927  1.00  0.00     0.039 A 
HETATM   10  C   LIG     1      26.723  23.165  19.701  1.00  0.00    -0.001 A 
ENDROOT
BRANCH  10  11
HETATM   11  C   LIG     1      27.491  23.347  18.448  1.00  0.00    -0.024 A 
HETATM   12  C   LIG     1      27.678  24.634  17.915  1.00  0.00     0.012 A 
HETATM   13  C   LIG     1      28.389  24.807  16.723  1.00  0.00     0.001 A 
HETATM   14  C   LIG     1      28.909  23.697  16.052  1.00  0.00     0.000 A 
HETATM   15  C   LIG     1      28.717  22.413  16.568  1.00  0.00     0.001 A 
HETATM   16  C   LIG     1      28.008  22.236  17.760  1.00  0.00     0.012 A 
ENDBRANCH  10  11
TORSDOF 1
ENDMDL
