REMARK  9 active torsions:
REMARK  status: ('A' for Active; 'I' for Inactive)
REMARK    1  A    between atoms: C_2  and  C_3 
REMARK    2  A    between atoms: C_3  and  C_4 
REMARK    3  A    between atoms: C_4  and  C_5 
REMARK    4  A    between atoms: C_5  and  C_6 
REMARK    5  A    between atoms: C_6  and  C_7 
REMARK    6  A    between atoms: C_7  and  C_8 
REMARK    7  A    between atoms: C_8  and  C_9 
REMARK    8  A    between atoms: C_9  and  C_10 
REMARK    9  A    between atoms: C_10  and  O_11 
ROOT
HETATM    1  C   LIG     1       1.672  -0.941   0.151  1.00  0.00     0.001 C 
ENDROOT
BRANCH   1   2
HETATM    2  C   LIG     1       0.402  -0.202  -0.288  1.00  0.00     0.000 C 
BRANCH   2   3
HETATM    3  C   LIG     1      -0.848  -1.057  -0.031  1.00  0.00     0.000 C 
BRANCH   3   4
HETATM    4  C   LIG     1      -2.132  -0.412  -0.578  1.00  0.00     0.000 C 
BRANCH   4   5
HETATM    5  C   LIG     1      -2.596   0.787   0.266  1.00  0.00    -0.000 C 
BRANCH   5   6
HETATM    6  C   LIG     1      -3.885   1.424  -0.277  1.00  0.00    -0.005 C 
HETATM    7  C   LIG     1      -5.124   0.563  -0.027  1.00  0.00     0.005 C 
ENDBRANCH   5   6
ENDBRANCH   4   5
ENDBRANCH   3   4
ENDBRANCH   2   3
ENDBRANCH   1   2
BRANCH   1   8
HETATM    8  C   LIG     1       2.921  -0.086  -0.095  1.00  0.00     0.010 C 
BRANCH   8   9
HETATM    9  C   LIG     1       4.189  -0.826   0.345  1.00  0.00     0.110 C 
BRANCH   9  10
HETATM   10  C   LIG     1       5.410   0.004   0.084  1.00  0.00     0.139 C 
HETATM   11  O   LIG     1       6.253  -0.371  -0.774  1.00  0.00    -0.650 OA
BRANCH  10  12
HETATM   12  O   LIG     1       5.633   1.183   0.789  1.00  0.00    -0.776 OA
HETATM   13  H   LIG     1       4.987   1.498   1.503  1.00  0.00     0.167 HD
ENDBRANCH  10  12
ENDBRANCH   9  10
ENDBRANCH   8   9
ENDBRANCH   1   8
TORSDOF 9
