MODEL 1
REMARK VINA RESULT:      -6.2      0.000      0.000
REMARK  9 active torsions:
REMARK  status: ('A' for Active; 'I' for Inactive)
REMARK    1  A    between atoms: C_2  and  C_3 
REMARK    2  A    between atoms: C_3  and  C_4 
REMARK    3  A    between atoms: C_4  and  C_5 
REMARK    4  A    between atoms: C_5  and  C_6 
REMARK    5  A    between atoms: C_6  and  C_7 
REMARK    6  A    between atoms: C_7  and  C_8 
REMARK    7  A    between atoms: C_8  and  C_9 
REMARK    8  A    between atoms: C_9  and  C_10 
REMARK    9  A    between atoms: C_10  and  O_11 
ROOT
HETATM    1  C   LIG     1      17.278  37.537  21.693  1.00  0.00     0.001 C 
ENDROOT
BRANCH   1   2
HETATM    2  C   LIG     1      16.638  37.675  23.079  1.00  0.00     0.000 C 
BRANCH   2   3
HETATM    3  C   LIG     1      17.654  38.202  24.104  1.00  0.00     0.000 C 
BRANCH   3   4
HETATM    4  C   LIG     1      17.418  37.644  25.517  1.00  0.00     0.000 C 
BRANCH   4   5
HETATM    5  C   LIG     1      18.660  36.939  26.088  1.00  0.00    -0.000 C 
BRANCH   5   6
HETATM    6  C   LIG     1      18.370  35.491  26.513  1.00  0.00    -0.005 C 
HETATM    7  C   LIG     1      17.261  34.839  25.685  1.00  0.00     0.005 C 
ENDBRANCH   5   6
ENDBRANCH   4   5
ENDBRANCH   3   4
ENDBRANCH   2   3
ENDBRANCH   1   2
BRANCH   1   8
HETATM    8  C   LIG     1      17.506  36.063  21.334  1.00  0.00     0.010 C 
BRANCH   8   9
HETATM    9  C   LIG     1      16.536  35.155  22.099  1.00  0.00     0.110 C 
BRANCH   9  10
HETATM   10  C   LIG     1      15.371  34.772  21.237  1.00  0.00     0.139 C 
HETATM   11  O   LIG     1      15.461  33.783  20.462  1.00  0.00    -0.650 OA
BRANCH  10  12
HETATM   12  O   LIG     1      14.188  35.505  21.273  1.00  0.00    -0.776 OA
HETATM   13  H   LIG     1      13.690  35.739  20.422  1.00  0.00     0.167 HD
ENDBRANCH  10  12
ENDBRANCH   9  10
ENDBRANCH   8   9
ENDBRANCH   1   8
TORSDOF 9
ENDMDL
MODEL 2
REMARK VINA RESULT:      -6.2      3.379      3.916
REMARK  9 active torsions:
REMARK  status: ('A' for Active; 'I' for Inactive)
REMARK    1  A    between atoms: C_2  and  C_3 
REMARK    2  A    between atoms: C_3  and  C_4 
REMARK    3  A    between atoms: C_4  and  C_5 
REMARK    4  A    between atoms: C_5  and  C_6 
REMARK    5  A    between atoms: C_6  and  C_7 
REMARK    6  A    between atoms: C_7  and  C_8 
REMARK    7  A    between atoms: C_8  and  C_9 
REMARK    8  A    between atoms: C_9  and  C_10 
REMARK    9  A    between atoms: C_10  and  O_11 
ROOT
HETATM    1  C   LIG     1      17.507  36.360  20.957  1.00  0.00     0.001 C 
ENDROOT
BRANCH   1   2
HETATM    2  C   LIG     1      16.710  36.438  22.264  1.00  0.00     0.000 C 
BRANCH   2   3
HETATM    3  C   LIG     1      17.219  37.585  23.150  1.00  0.00     0.000 C 
BRANCH   3   4
HETATM    4  C   LIG     1      16.974  37.333  24.647  1.00  0.00     0.000 C 
BRANCH   4   5
HETATM    5  C   LIG     1      18.274  37.339  25.468  1.00  0.00    -0.000 C 
BRANCH   5   6
HETATM    6  C   LIG     1      18.267  36.286  26.588  1.00  0.00    -0.005 C 
HETATM    7  C   LIG     1      17.852  34.899  26.096  1.00  0.00     0.005 C 
ENDBRANCH   5   6
ENDBRANCH   4   5
ENDBRANCH   3   4
ENDBRANCH   2   3
ENDBRANCH   1   2
BRANCH   1   8
HETATM    8  C   LIG     1      18.349  37.624  20.747  1.00  0.00     0.010 C 
BRANCH   8   9
HETATM    9  C   LIG     1      19.109  37.564  19.417  1.00  0.00     0.110 C 
BRANCH   9  10
HETATM   10  C   LIG     1      19.492  38.939  18.958  1.00  0.00     0.139 C 
HETATM   11  O   LIG     1      18.618  39.706  18.474  1.00  0.00    -0.650 OA
BRANCH  10  12
HETATM   12  O   LIG     1      20.810  39.377  19.048  1.00  0.00    -0.776 OA
HETATM   13  H   LIG     1      21.089  40.279  18.681  1.00  0.00     0.167 HD
ENDBRANCH  10  12
ENDBRANCH   9  10
ENDBRANCH   8   9
ENDBRANCH   1   8
TORSDOF 9
ENDMDL
MODEL 3
REMARK VINA RESULT:      -5.8      2.065      3.752
REMARK  9 active torsions:
REMARK  status: ('A' for Active; 'I' for Inactive)
REMARK    1  A    between atoms: C_2  and  C_3 
REMARK    2  A    between atoms: C_3  and  C_4 
REMARK    3  A    between atoms: C_4  and  C_5 
REMARK    4  A    between atoms: C_5  and  C_6 
REMARK    5  A    between atoms: C_6  and  C_7 
REMARK    6  A    between atoms: C_7  and  C_8 
REMARK    7  A    between atoms: C_8  and  C_9 
REMARK    8  A    between atoms: C_9  and  C_10 
REMARK    9  A    between atoms: C_10  and  O_11 
ROOT
HETATM    1  C   LIG     1      16.860  36.013  23.172  1.00  0.00     0.001 C 
ENDROOT
BRANCH   1   2
HETATM    2  C   LIG     1      16.450  37.458  22.862  1.00  0.00     0.000 C 
BRANCH   2   3
HETATM    3  C   LIG     1      17.683  38.371  22.771  1.00  0.00     0.000 C 
BRANCH   3   4
HETATM    4  C   LIG     1      17.865  38.985  21.373  1.00  0.00     0.000 C 
BRANCH   4   5
HETATM    5  C   LIG     1      19.343  39.078  20.958  1.00  0.00    -0.000 C 
BRANCH   5   6
HETATM    6  C   LIG     1      19.602  38.470  19.570  1.00  0.00    -0.005 C 
HETATM    7  C   LIG     1      19.164  37.009  19.470  1.00  0.00     0.005 C 
ENDBRANCH   5   6
ENDBRANCH   4   5
ENDBRANCH   3   4
ENDBRANCH   2   3
ENDBRANCH   1   2
BRANCH   1   8
HETATM    8  C   LIG     1      17.238  35.260  21.890  1.00  0.00     0.010 C 
BRANCH   8   9
HETATM    9  C   LIG     1      16.110  35.335  20.855  1.00  0.00     0.110 C 
BRANCH   9  10
HETATM   10  C   LIG     1      15.279  34.088  20.879  1.00  0.00     0.139 C 
HETATM   11  O   LIG     1      15.656  33.069  20.240  1.00  0.00    -0.650 OA
BRANCH  10  12
HETATM   12  O   LIG     1      14.083  34.043  21.590  1.00  0.00    -0.776 OA
HETATM   13  H   LIG     1      13.224  34.405  21.196  1.00  0.00     0.167 HD
ENDBRANCH  10  12
ENDBRANCH   9  10
ENDBRANCH   8   9
ENDBRANCH   1   8
TORSDOF 9
ENDMDL
MODEL 4
REMARK VINA RESULT:      -5.5      3.415      4.500
REMARK  9 active torsions:
REMARK  status: ('A' for Active; 'I' for Inactive)
REMARK    1  A    between atoms: C_2  and  C_3 
REMARK    2  A    between atoms: C_3  and  C_4 
REMARK    3  A    between atoms: C_4  and  C_5 
REMARK    4  A    between atoms: C_5  and  C_6 
REMARK    5  A    between atoms: C_6  and  C_7 
REMARK    6  A    between atoms: C_7  and  C_8 
REMARK    7  A    between atoms: C_8  and  C_9 
REMARK    8  A    between atoms: C_9  and  C_10 
REMARK    9  A    between atoms: C_10  and  O_11 
ROOT
HETATM    1  C   LIG     1      17.455  36.504  20.593  1.00  0.00     0.001 C 
ENDROOT
BRANCH   1   2
HETATM    2  C   LIG     1      17.399  35.214  21.420  1.00  0.00     0.000 C 
BRANCH   2   3
HETATM    3  C   LIG     1      16.519  35.398  22.666  1.00  0.00     0.000 C 
BRANCH   3   4
HETATM    4  C   LIG     1      17.262  35.068  23.971  1.00  0.00     0.000 C 
BRANCH   4   5
HETATM    5  C   LIG     1      17.321  36.265  24.935  1.00  0.00    -0.000 C 
BRANCH   5   6
HETATM    6  C   LIG     1      16.842  37.570  24.282  1.00  0.00    -0.005 C 
HETATM    7  C   LIG     1      17.994  38.443  23.783  1.00  0.00     0.005 C 
ENDBRANCH   5   6
ENDBRANCH   4   5
ENDBRANCH   3   4
ENDBRANCH   2   3
ENDBRANCH   1   2
BRANCH   1   8
HETATM    8  C   LIG     1      18.852  36.720  20.000  1.00  0.00     0.010 C 
BRANCH   8   9
HETATM    9  C   LIG     1      18.843  37.851  18.966  1.00  0.00     0.110 C 
BRANCH   9  10
HETATM   10  C   LIG     1      19.570  39.055  19.484  1.00  0.00     0.139 C 
HETATM   11  O   LIG     1      19.033  39.787  20.358  1.00  0.00    -0.650 OA
BRANCH  10  12
HETATM   12  O   LIG     1      20.833  39.385  19.002  1.00  0.00    -0.776 OA
HETATM   13  H   LIG     1      20.953  39.813  18.091  1.00  0.00     0.167 HD
ENDBRANCH  10  12
ENDBRANCH   9  10
ENDBRANCH   8   9
ENDBRANCH   1   8
TORSDOF 9
ENDMDL
MODEL 5
REMARK VINA RESULT:      -5.5      4.235      4.952
REMARK  9 active torsions:
REMARK  status: ('A' for Active; 'I' for Inactive)
REMARK    1  A    between atoms: C_2  and  C_3 
REMARK    2  A    between atoms: C_3  and  C_4 
REMARK    3  A    between atoms: C_4  and  C_5 
REMARK    4  A    between atoms: C_5  and  C_6 
REMARK    5  A    between atoms: C_6  and  C_7 
REMARK    6  A    between atoms: C_7  and  C_8 
REMARK    7  A    between atoms: C_8  and  C_9 
REMARK    8  A    between atoms: C_9  and  C_10 
REMARK    9  A    between atoms: C_10  and  O_11 
ROOT
HETATM    1  C   LIG     1      19.831  38.934  20.306  1.00  0.00     0.001 C 
ENDROOT
BRANCH   1   2
HETATM    2  C   LIG     1      18.397  39.216  20.770  1.00  0.00     0.000 C 
BRANCH   2   3
HETATM    3  C   LIG     1      17.888  38.099  21.693  1.00  0.00     0.000 C 
BRANCH   3   4
HETATM    4  C   LIG     1      17.655  38.579  23.135  1.00  0.00     0.000 C 
BRANCH   4   5
HETATM    5  C   LIG     1      17.181  37.448  24.064  1.00  0.00    -0.000 C 
BRANCH   5   6
HETATM    6  C   LIG     1      17.421  37.768  25.548  1.00  0.00    -0.005 C 
HETATM    7  C   LIG     1      18.322  36.744  26.239  1.00  0.00     0.005 C 
ENDBRANCH   5   6
ENDBRANCH   4   5
ENDBRANCH   3   4
ENDBRANCH   2   3
ENDBRANCH   1   2
BRANCH   1   8
HETATM    8  C   LIG     1      19.988  39.203  18.805  1.00  0.00     0.010 C 
BRANCH   8   9
HETATM    9  C   LIG     1      18.707  38.841  18.044  1.00  0.00     0.110 C 
BRANCH   9  10
HETATM   10  C   LIG     1      18.663  39.531  16.714  1.00  0.00     0.139 C 
HETATM   11  O   LIG     1      18.340  38.885  15.682  1.00  0.00    -0.650 OA
BRANCH  10  12
HETATM   12  O   LIG     1      18.987  40.880  16.601  1.00  0.00    -0.776 OA
HETATM   13  H   LIG     1      19.443  41.376  17.357  1.00  0.00     0.167 HD
ENDBRANCH  10  12
ENDBRANCH   9  10
ENDBRANCH   8   9
ENDBRANCH   1   8
TORSDOF 9
ENDMDL
MODEL 6
REMARK VINA RESULT:      -5.4      2.573      4.023
REMARK  9 active torsions:
REMARK  status: ('A' for Active; 'I' for Inactive)
REMARK    1  A    between atoms: C_2  and  C_3 
REMARK    2  A    between atoms: C_3  and  C_4 
REMARK    3  A    between atoms: C_4  and  C_5 
REMARK    4  A    between atoms: C_5  and  C_6 
REMARK    5  A    between atoms: C_6  and  C_7 
REMARK    6  A    between atoms: C_7  and  C_8 
REMARK    7  A    between atoms: C_8  and  C_9 
REMARK    8  A    between atoms: C_9  and  C_10 
REMARK    9  A    between atoms: C_10  and  O_11 
ROOT
HETATM    1  C   LIG     1      15.882  35.001  19.985  1.00  0.00     0.001 C 
ENDROOT
BRANCH   1   2
HETATM    2  C   LIG     1      16.973  35.614  20.872  1.00  0.00     0.000 C 
BRANCH   2   3
HETATM    3  C   LIG     1      16.667  35.381  22.360  1.00  0.00     0.000 C 
BRANCH   3   4
HETATM    4  C   LIG     1      16.944  36.622  23.225  1.00  0.00     0.000 C 
BRANCH   4   5
HETATM    5  C   LIG     1      16.737  37.937  22.455  1.00  0.00    -0.000 C 
BRANCH   5   6
HETATM    6  C   LIG     1      18.012  38.794  22.404  1.00  0.00    -0.005 C 
HETATM    7  C   LIG     1      18.456  39.115  20.976  1.00  0.00     0.005 C 
ENDBRANCH   5   6
ENDBRANCH   4   5
ENDBRANCH   3   4
ENDBRANCH   2   3
ENDBRANCH   1   2
BRANCH   1   8
HETATM    8  C   LIG     1      15.278  33.752  20.638  1.00  0.00     0.010 C 
BRANCH   8   9
HETATM    9  C   LIG     1      15.725  32.480  19.908  1.00  0.00     0.110 C 
BRANCH   9  10
HETATM   10  C   LIG     1      15.063  32.372  18.568  1.00  0.00     0.139 C 
HETATM   11  O   LIG     1      15.669  32.765  17.535  1.00  0.00    -0.650 OA
BRANCH  10  12
HETATM   12  O   LIG     1      13.777  31.853  18.448  1.00  0.00    -0.776 OA
HETATM   13  H   LIG     1      13.497  31.328  17.629  1.00  0.00     0.167 HD
ENDBRANCH  10  12
ENDBRANCH   9  10
ENDBRANCH   8   9
ENDBRANCH   1   8
TORSDOF 9
ENDMDL
MODEL 7
REMARK VINA RESULT:      -5.4      1.910      2.894
REMARK  9 active torsions:
REMARK  status: ('A' for Active; 'I' for Inactive)
REMARK    1  A    between atoms: C_2  and  C_3 
REMARK    2  A    between atoms: C_3  and  C_4 
REMARK    3  A    between atoms: C_4  and  C_5 
REMARK    4  A    between atoms: C_5  and  C_6 
REMARK    5  A    between atoms: C_6  and  C_7 
REMARK    6  A    between atoms: C_7  and  C_8 
REMARK    7  A    between atoms: C_8  and  C_9 
REMARK    8  A    between atoms: C_9  and  C_10 
REMARK    9  A    between atoms: C_10  and  O_11 
ROOT
HETATM    1  C   LIG     1      15.871  34.748  21.659  1.00  0.00     0.001 C 
ENDROOT
BRANCH   1   2
HETATM    2  C   LIG     1      15.770  36.266  21.857  1.00  0.00     0.000 C 
BRANCH   2   3
HETATM    3  C   LIG     1      17.078  36.834  22.427  1.00  0.00     0.000 C 
BRANCH   3   4
HETATM    4  C   LIG     1      16.872  38.160  23.178  1.00  0.00     0.000 C 
BRANCH   4   5
HETATM    5  C   LIG     1      16.954  37.992  24.705  1.00  0.00    -0.000 C 
BRANCH   5   6
HETATM    6  C   LIG     1      17.467  36.603  25.116  1.00  0.00    -0.005 C 
HETATM    7  C   LIG     1      18.464  36.657  26.275  1.00  0.00     0.005 C 
ENDBRANCH   5   6
ENDBRANCH   4   5
ENDBRANCH   3   4
ENDBRANCH   2   3
ENDBRANCH   1   2
BRANCH   1   8
HETATM    8  C   LIG     1      15.686  34.370  20.185  1.00  0.00     0.010 C 
BRANCH   8   9
HETATM    9  C   LIG     1      15.496  32.857  20.026  1.00  0.00     0.110 C 
BRANCH   9  10
HETATM   10  C   LIG     1      15.021  32.521  18.644  1.00  0.00     0.139 C 
HETATM   11  O   LIG     1      15.705  32.865  17.643  1.00  0.00    -0.650 OA
BRANCH  10  12
HETATM   12  O   LIG     1      13.822  31.842  18.449  1.00  0.00    -0.776 OA
HETATM   13  H   LIG     1      13.147  32.154  17.760  1.00  0.00     0.167 HD
ENDBRANCH  10  12
ENDBRANCH   9  10
ENDBRANCH   8   9
ENDBRANCH   1   8
TORSDOF 9
ENDMDL
MODEL 8
REMARK VINA RESULT:      -5.1      3.144      4.929
REMARK  9 active torsions:
REMARK  status: ('A' for Active; 'I' for Inactive)
REMARK    1  A    between atoms: C_2  and  C_3 
REMARK    2  A    between atoms: C_3  and  C_4 
REMARK    3  A    between atoms: C_4  and  C_5 
REMARK    4  A    between atoms: C_5  and  C_6 
REMARK    5  A    between atoms: C_6  and  C_7 
REMARK    6  A    between atoms: C_7  and  C_8 
REMARK    7  A    between atoms: C_8  and  C_9 
REMARK    8  A    between atoms: C_9  and  C_10 
REMARK    9  A    between atoms: C_10  and  O_11 
ROOT
HETATM    1  C   LIG     1      16.289  35.464  22.555  1.00  0.00     0.001 C 
ENDROOT
BRANCH   1   2
HETATM    2  C   LIG     1      16.717  36.680  21.724  1.00  0.00     0.000 C 
BRANCH   2   3
HETATM    3  C   LIG     1      17.233  37.810  22.628  1.00  0.00     0.000 C 
BRANCH   3   4
HETATM    4  C   LIG     1      17.537  39.101  21.851  1.00  0.00     0.000 C 
BRANCH   4   5
HETATM    5  C   LIG     1      18.967  39.129  21.287  1.00  0.00    -0.000 C 
BRANCH   5   6
HETATM    6  C   LIG     1      19.010  38.832  19.780  1.00  0.00    -0.005 C 
HETATM    7  C   LIG     1      19.451  37.400  19.469  1.00  0.00     0.005 C 
ENDBRANCH   5   6
ENDBRANCH   4   5
ENDBRANCH   3   4
ENDBRANCH   2   3
ENDBRANCH   1   2
BRANCH   1   8
HETATM    8  C   LIG     1      17.392  35.053  23.539  1.00  0.00     0.010 C 
BRANCH   8   9
HETATM    9  C   LIG     1      16.824  34.853  24.948  1.00  0.00     0.110 C 
BRANCH   9  10
HETATM   10  C   LIG     1      17.754  35.411  25.983  1.00  0.00     0.139 C 
HETATM   11  O   LIG     1      18.679  34.693  26.448  1.00  0.00    -0.650 OA
BRANCH  10  12
HETATM   12  O   LIG     1      17.602  36.713  26.450  1.00  0.00    -0.776 OA
HETATM   13  H   LIG     1      17.985  36.999  27.343  1.00  0.00     0.167 HD
ENDBRANCH  10  12
ENDBRANCH   9  10
ENDBRANCH   8   9
ENDBRANCH   1   8
TORSDOF 9
ENDMDL
MODEL 9
REMARK VINA RESULT:      -5.0      2.335      4.384
REMARK  9 active torsions:
REMARK  status: ('A' for Active; 'I' for Inactive)
REMARK    1  A    between atoms: C_2  and  C_3 
REMARK    2  A    between atoms: C_3  and  C_4 
REMARK    3  A    between atoms: C_4  and  C_5 
REMARK    4  A    between atoms: C_5  and  C_6 
REMARK    5  A    between atoms: C_6  and  C_7 
REMARK    6  A    between atoms: C_7  and  C_8 
REMARK    7  A    between atoms: C_8  and  C_9 
REMARK    8  A    between atoms: C_9  and  C_10 
REMARK    9  A    between atoms: C_10  and  O_11 
ROOT
HETATM    1  C   LIG     1      16.084  37.368  22.971  1.00  0.00     0.001 C 
ENDROOT
BRANCH   1   2
HETATM    2  C   LIG     1      16.618  38.556  22.161  1.00  0.00     0.000 C 
BRANCH   2   3
HETATM    3  C   LIG     1      18.105  38.800  22.459  1.00  0.00     0.000 C 
BRANCH   3   4
HETATM    4  C   LIG     1      18.864  39.384  21.256  1.00  0.00     0.000 C 
BRANCH   4   5
HETATM    5  C   LIG     1      19.178  38.325  20.185  1.00  0.00    -0.000 C 
BRANCH   5   6
HETATM    6  C   LIG     1      19.842  38.930  18.938  1.00  0.00    -0.005 C 
HETATM    7  C   LIG     1      18.855  39.156  17.791  1.00  0.00     0.005 C 
ENDBRANCH   5   6
ENDBRANCH   4   5
ENDBRANCH   3   4
ENDBRANCH   2   3
ENDBRANCH   1   2
BRANCH   1   8
HETATM    8  C   LIG     1      16.800  36.069  22.583  1.00  0.00     0.010 C 
BRANCH   8   9
HETATM    9  C   LIG     1      16.773  35.858  21.065  1.00  0.00     0.110 C 
BRANCH   9  10
HETATM   10  C   LIG     1      15.789  34.790  20.691  1.00  0.00     0.139 C 
HETATM   11  O   LIG     1      15.765  34.342  19.514  1.00  0.00    -0.650 OA
BRANCH  10  12
HETATM   12  O   LIG     1      14.888  34.293  21.628  1.00  0.00    -0.776 OA
HETATM   13  H   LIG     1      14.410  33.412  21.481  1.00  0.00     0.167 HD
ENDBRANCH  10  12
ENDBRANCH   9  10
ENDBRANCH   8   9
ENDBRANCH   1   8
TORSDOF 9
ENDMDL
MODEL 10
REMARK VINA RESULT:      -5.0      3.713      7.155
REMARK  9 active torsions:
REMARK  status: ('A' for Active; 'I' for Inactive)
REMARK    1  A    between atoms: C_2  and  C_3 
REMARK    2  A    between atoms: C_3  and  C_4 
REMARK    3  A    between atoms: C_4  and  C_5 
REMARK    4  A    between atoms: C_5  and  C_6 
REMARK    5  A    between atoms: C_6  and  C_7 
REMARK    6  A    between atoms: C_7  and  C_8 
REMARK    7  A    between atoms: C_8  and  C_9 
REMARK    8  A    between atoms: C_9  and  C_10 
REMARK    9  A    between atoms: C_10  and  O_11 
ROOT
HETATM    1  C   LIG     1      15.722  34.886  20.328  1.00  0.00     0.001 C 
ENDROOT
BRANCH   1   2
HETATM    2  C   LIG     1      15.074  33.527  20.619  1.00  0.00     0.000 C 
BRANCH   2   3
HETATM    3  C   LIG     1      15.674  32.430  19.726  1.00  0.00     0.000 C 
BRANCH   3   4
HETATM    4  C   LIG     1      14.622  31.746  18.838  1.00  0.00     0.000 C 
BRANCH   4   5
HETATM    5  C   LIG     1      14.443  32.453  17.484  1.00  0.00    -0.000 C 
BRANCH   5   6
HETATM    6  C   LIG     1      14.362  31.464  16.310  1.00  0.00    -0.005 C 
HETATM    7  C   LIG     1      12.974  30.841  16.154  1.00  0.00     0.005 C 
ENDBRANCH   5   6
ENDBRANCH   4   5
ENDBRANCH   3   4
ENDBRANCH   2   3
ENDBRANCH   1   2
BRANCH   1   8
HETATM    8  C   LIG     1      15.383  35.905  21.423  1.00  0.00     0.010 C 
BRANCH   8   9
HETATM    9  C   LIG     1      16.634  36.295  22.217  1.00  0.00     0.110 C 
BRANCH   9  10
HETATM   10  C   LIG     1      16.352  37.456  23.122  1.00  0.00     0.139 C 
HETATM   11  O   LIG     1      17.227  37.838  23.945  1.00  0.00    -0.650 OA
BRANCH  10  12
HETATM   12  O   LIG     1      15.127  38.115  23.074  1.00  0.00    -0.776 OA
HETATM   13  H   LIG     1      14.255  37.600  23.061  1.00  0.00     0.167 HD
ENDBRANCH  10  12
ENDBRANCH   9  10
ENDBRANCH   8   9
ENDBRANCH   1   8
TORSDOF 9
ENDMDL
MODEL 11
REMARK VINA RESULT:      -4.9      5.801      8.154
REMARK  9 active torsions:
REMARK  status: ('A' for Active; 'I' for Inactive)
REMARK    1  A    between atoms: C_2  and  C_3 
REMARK    2  A    between atoms: C_3  and  C_4 
REMARK    3  A    between atoms: C_4  and  C_5 
REMARK    4  A    between atoms: C_5  and  C_6 
REMARK    5  A    between atoms: C_6  and  C_7 
REMARK    6  A    between atoms: C_7  and  C_8 
REMARK    7  A    between atoms: C_8  and  C_9 
REMARK    8  A    between atoms: C_9  and  C_10 
REMARK    9  A    between atoms: C_10  and  O_11 
ROOT
HETATM    1  C   LIG     1      13.164  32.019  16.861  1.00  0.00     0.001 C 
ENDROOT
BRANCH   1   2
HETATM    2  C   LIG     1      14.475  32.342  17.588  1.00  0.00     0.000 C 
BRANCH   2   3
HETATM    3  C   LIG     1      14.526  31.655  18.961  1.00  0.00     0.000 C 
BRANCH   3   4
HETATM    4  C   LIG     1      15.592  32.260  19.889  1.00  0.00     0.000 C 
BRANCH   4   5
HETATM    5  C   LIG     1      15.616  33.797  19.838  1.00  0.00    -0.000 C 
BRANCH   5   6
HETATM    6  C   LIG     1      15.701  34.430  21.236  1.00  0.00    -0.005 C 
HETATM    7  C   LIG     1      14.873  35.710  21.359  1.00  0.00     0.005 C 
ENDBRANCH   5   6
ENDBRANCH   4   5
ENDBRANCH   3   4
ENDBRANCH   2   3
ENDBRANCH   1   2
BRANCH   1   8
HETATM    8  C   LIG     1      13.231  30.643  16.188  1.00  0.00     0.010 C 
BRANCH   8   9
HETATM    9  C   LIG     1      14.391  30.576  15.188  1.00  0.00     0.110 C 
BRANCH   9  10
HETATM   10  C   LIG     1      14.179  29.471  14.196  1.00  0.00     0.139 C 
HETATM   11  O   LIG     1      13.094  28.830  14.193  1.00  0.00    -0.650 OA
BRANCH  10  12
HETATM   12  O   LIG     1      15.173  29.134  13.283  1.00  0.00    -0.776 OA
HETATM   13  H   LIG     1      15.938  28.523  13.541  1.00  0.00     0.167 HD
ENDBRANCH  10  12
ENDBRANCH   9  10
ENDBRANCH   8   9
ENDBRANCH   1   8
TORSDOF 9
ENDMDL
MODEL 12
REMARK VINA RESULT:      -4.9      8.065     11.607
REMARK  9 active torsions:
REMARK  status: ('A' for Active; 'I' for Inactive)
REMARK    1  A    between atoms: C_2  and  C_3 
REMARK    2  A    between atoms: C_3  and  C_4 
REMARK    3  A    between atoms: C_4  and  C_5 
REMARK    4  A    between atoms: C_5  and  C_6 
REMARK    5  A    between atoms: C_6  and  C_7 
REMARK    6  A    between atoms: C_7  and  C_8 
REMARK    7  A    between atoms: C_8  and  C_9 
REMARK    8  A    between atoms: C_9  and  C_10 
REMARK    9  A    between atoms: C_10  and  O_11 
ROOT
HETATM    1  C   LIG     1      13.371  30.682  16.190  1.00  0.00     0.001 C 
ENDROOT
BRANCH   1   2
HETATM    2  C   LIG     1      14.474  30.686  15.124  1.00  0.00     0.000 C 
BRANCH   2   3
HETATM    3  C   LIG     1      14.351  29.464  14.201  1.00  0.00     0.000 C 
BRANCH   3   4
HETATM    4  C   LIG     1      12.929  28.879  14.175  1.00  0.00     0.000 C 
BRANCH   4   5
HETATM    5  C   LIG     1      12.891  27.446  13.617  1.00  0.00    -0.000 C 
BRANCH   5   6
HETATM    6  C   LIG     1      11.575  27.136  12.886  1.00  0.00    -0.005 C 
HETATM    7  C   LIG     1      11.558  25.740  12.262  1.00  0.00     0.005 C 
ENDBRANCH   5   6
ENDBRANCH   4   5
ENDBRANCH   3   4
ENDBRANCH   2   3
ENDBRANCH   1   2
BRANCH   1   8
HETATM    8  C   LIG     1      13.324  32.017  16.941  1.00  0.00     0.010 C 
BRANCH   8   9
HETATM    9  C   LIG     1      14.733  32.476  17.335  1.00  0.00     0.110 C 
BRANCH   9  10
HETATM   10  C   LIG     1      14.953  32.322  18.810  1.00  0.00     0.139 C 
HETATM   11  O   LIG     1      15.764  33.079  19.406  1.00  0.00    -0.650 OA
BRANCH  10  12
HETATM   12  O   LIG     1      14.280  31.341  19.531  1.00  0.00    -0.776 OA
HETATM   13  H   LIG     1      13.349  31.504  19.898  1.00  0.00     0.167 HD
ENDBRANCH  10  12
ENDBRANCH   9  10
ENDBRANCH   8   9
ENDBRANCH   1   8
TORSDOF 9
ENDMDL
MODEL 13
REMARK VINA RESULT:      -4.9      5.690      9.314
REMARK  9 active torsions:
REMARK  status: ('A' for Active; 'I' for Inactive)
REMARK    1  A    between atoms: C_2  and  C_3 
REMARK    2  A    between atoms: C_3  and  C_4 
REMARK    3  A    between atoms: C_4  and  C_5 
REMARK    4  A    between atoms: C_5  and  C_6 
REMARK    5  A    between atoms: C_6  and  C_7 
REMARK    6  A    between atoms: C_7  and  C_8 
REMARK    7  A    between atoms: C_8  and  C_9 
REMARK    8  A    between atoms: C_9  and  C_10 
REMARK    9  A    between atoms: C_10  and  O_11 
ROOT
HETATM    1  C   LIG     1      14.227  31.549  17.928  1.00  0.00     0.001 C 
ENDROOT
BRANCH   1   2
HETATM    2  C   LIG     1      13.386  32.097  16.769  1.00  0.00     0.000 C 
BRANCH   2   3
HETATM    3  C   LIG     1      12.608  30.970  16.073  1.00  0.00     0.000 C 
BRANCH   3   4
HETATM    4  C   LIG     1      13.526  29.864  15.527  1.00  0.00     0.000 C 
BRANCH   4   5
HETATM    5  C   LIG     1      14.171  30.242  14.183  1.00  0.00    -0.000 C 
BRANCH   5   6
HETATM    6  C   LIG     1      15.657  30.605  14.325  1.00  0.00    -0.005 C 
HETATM    7  C   LIG     1      15.985  31.992  13.771  1.00  0.00     0.005 C 
ENDBRANCH   5   6
ENDBRANCH   4   5
ENDBRANCH   3   4
ENDBRANCH   2   3
ENDBRANCH   1   2
BRANCH   1   8
HETATM    8  C   LIG     1      15.233  32.595  18.424  1.00  0.00     0.010 C 
BRANCH   8   9
HETATM    9  C   LIG     1      15.524  32.413  19.917  1.00  0.00     0.110 C 
BRANCH   9  10
HETATM   10  C   LIG     1      15.394  33.715  20.650  1.00  0.00     0.139 C 
HETATM   11  O   LIG     1      16.297  34.587  20.547  1.00  0.00    -0.650 OA
BRANCH  10  12
HETATM   12  O   LIG     1      14.288  33.970  21.456  1.00  0.00    -0.776 OA
HETATM   13  H   LIG     1      14.354  33.925  22.466  1.00  0.00     0.167 HD
ENDBRANCH  10  12
ENDBRANCH   9  10
ENDBRANCH   8   9
ENDBRANCH   1   8
TORSDOF 9
ENDMDL
MODEL 14
REMARK VINA RESULT:      -4.7      4.968      8.501
REMARK  9 active torsions:
REMARK  status: ('A' for Active; 'I' for Inactive)
REMARK    1  A    between atoms: C_2  and  C_3 
REMARK    2  A    between atoms: C_3  and  C_4 
REMARK    3  A    between atoms: C_4  and  C_5 
REMARK    4  A    between atoms: C_5  and  C_6 
REMARK    5  A    between atoms: C_6  and  C_7 
REMARK    6  A    between atoms: C_7  and  C_8 
REMARK    7  A    between atoms: C_8  and  C_9 
REMARK    8  A    between atoms: C_9  and  C_10 
REMARK    9  A    between atoms: C_10  and  O_11 
ROOT
HETATM    1  C   LIG     1      15.403  32.337  19.637  1.00  0.00     0.001 C 
ENDROOT
BRANCH   1   2
HETATM    2  C   LIG     1      14.571  31.892  18.429  1.00  0.00     0.000 C 
BRANCH   2   3
HETATM    3  C   LIG     1      14.807  32.819  17.227  1.00  0.00     0.000 C 
BRANCH   3   4
HETATM    4  C   LIG     1      15.092  32.048  15.928  1.00  0.00     0.000 C 
BRANCH   4   5
HETATM    5  C   LIG     1      14.113  30.882  15.707  1.00  0.00    -0.000 C 
BRANCH   5   6
HETATM    6  C   LIG     1      14.634  29.864  14.680  1.00  0.00    -0.005 C 
HETATM    7  C   LIG     1      15.260  30.526  13.452  1.00  0.00     0.005 C 
ENDBRANCH   5   6
ENDBRANCH   4   5
ENDBRANCH   3   4
ENDBRANCH   2   3
ENDBRANCH   1   2
BRANCH   1   8
HETATM    8  C   LIG     1      15.476  33.866  19.724  1.00  0.00     0.010 C 
BRANCH   8   9
HETATM    9  C   LIG     1      15.486  34.333  21.184  1.00  0.00     0.110 C 
BRANCH   9  10
HETATM   10  C   LIG     1      16.672  35.208  21.457  1.00  0.00     0.139 C 
HETATM   11  O   LIG     1      17.020  35.441  22.645  1.00  0.00    -0.650 OA
BRANCH  10  12
HETATM   12  O   LIG     1      17.390  35.780  20.411  1.00  0.00    -0.776 OA
HETATM   13  H   LIG     1      16.920  36.244  19.643  1.00  0.00     0.167 HD
ENDBRANCH  10  12
ENDBRANCH   9  10
ENDBRANCH   8   9
ENDBRANCH   1   8
TORSDOF 9
ENDMDL
MODEL 15
REMARK VINA RESULT:      -4.7      6.155      9.538
REMARK  9 active torsions:
REMARK  status: ('A' for Active; 'I' for Inactive)
REMARK    1  A    between atoms: C_2  and  C_3 
REMARK    2  A    between atoms: C_3  and  C_4 
REMARK    3  A    between atoms: C_4  and  C_5 
REMARK    4  A    between atoms: C_5  and  C_6 
REMARK    5  A    between atoms: C_6  and  C_7 
REMARK    6  A    between atoms: C_7  and  C_8 
REMARK    7  A    between atoms: C_8  and  C_9 
REMARK    8  A    between atoms: C_9  and  C_10 
REMARK    9  A    between atoms: C_10  and  O_11 
ROOT
HETATM    1  C   LIG     1      15.915  33.178  16.026  1.00  0.00     0.001 C 
ENDROOT
BRANCH   1   2
HETATM    2  C   LIG     1      16.588  32.103  15.165  1.00  0.00     0.000 C 
BRANCH   2   3
HETATM    3  C   LIG     1      15.956  32.044  13.766  1.00  0.00     0.000 C 
BRANCH   3   4
HETATM    4  C   LIG     1      15.497  30.628  13.381  1.00  0.00     0.000 C 
BRANCH   4   5
HETATM    5  C   LIG     1      14.954  29.836  14.582  1.00  0.00    -0.000 C 
BRANCH   5   6
HETATM    6  C   LIG     1      13.418  29.837  14.641  1.00  0.00    -0.005 C 
HETATM    7  C   LIG     1      12.871  30.564  15.871  1.00  0.00     0.005 C 
ENDBRANCH   5   6
ENDBRANCH   4   5
ENDBRANCH   3   4
ENDBRANCH   2   3
ENDBRANCH   1   2
BRANCH   1   8
HETATM    8  C   LIG     1      15.214  32.555  17.240  1.00  0.00     0.010 C 
BRANCH   8   9
HETATM    9  C   LIG     1      15.265  33.498  18.448  1.00  0.00     0.110 C 
BRANCH   9  10
HETATM   10  C   LIG     1      15.256  32.722  19.731  1.00  0.00     0.139 C 
HETATM   11  O   LIG     1      15.909  31.649  19.822  1.00  0.00    -0.650 OA
BRANCH  10  12
HETATM   12  O   LIG     1      14.520  33.168  20.826  1.00  0.00    -0.776 OA
HETATM   13  H   LIG     1      14.947  33.267  21.739  1.00  0.00     0.167 HD
ENDBRANCH  10  12
ENDBRANCH   9  10
ENDBRANCH   8   9
ENDBRANCH   1   8
TORSDOF 9
ENDMDL
MODEL 16
REMARK VINA RESULT:      -4.5      8.721     11.231
REMARK  9 active torsions:
REMARK  status: ('A' for Active; 'I' for Inactive)
REMARK    1  A    between atoms: C_2  and  C_3 
REMARK    2  A    between atoms: C_3  and  C_4 
REMARK    3  A    between atoms: C_4  and  C_5 
REMARK    4  A    between atoms: C_5  and  C_6 
REMARK    5  A    between atoms: C_6  and  C_7 
REMARK    6  A    between atoms: C_7  and  C_8 
REMARK    7  A    between atoms: C_8  and  C_9 
REMARK    8  A    between atoms: C_9  and  C_10 
REMARK    9  A    between atoms: C_10  and  O_11 
ROOT
HETATM    1  C   LIG     1      13.941  29.376  14.274  1.00  0.00     0.001 C 
ENDROOT
BRANCH   1   2
HETATM    2  C   LIG     1      15.295  30.085  14.153  1.00  0.00     0.000 C 
BRANCH   2   3
HETATM    3  C   LIG     1      15.298  31.404  14.941  1.00  0.00     0.000 C 
BRANCH   3   4
HETATM    4  C   LIG     1      14.294  31.402  16.106  1.00  0.00     0.000 C 
BRANCH   4   5
HETATM    5  C   LIG     1      14.712  32.345  17.247  1.00  0.00    -0.000 C 
BRANCH   5   6
HETATM    6  C   LIG     1      14.542  31.701  18.632  1.00  0.00    -0.005 C 
HETATM    7  C   LIG     1      15.457  32.320  19.690  1.00  0.00     0.005 C 
ENDBRANCH   5   6
ENDBRANCH   4   5
ENDBRANCH   3   4
ENDBRANCH   2   3
ENDBRANCH   1   2
BRANCH   1   8
HETATM    8  C   LIG     1      14.061  27.891  13.913  1.00  0.00     0.010 C 
BRANCH   8   9
HETATM    9  C   LIG     1      15.488  27.546  13.474  1.00  0.00     0.110 C 
BRANCH   9  10
HETATM   10  C   LIG     1      15.500  26.994  12.080  1.00  0.00     0.139 C 
HETATM   11  O   LIG     1      16.579  26.951  11.430  1.00  0.00    -0.650 OA
BRANCH  10  12
HETATM   12  O   LIG     1      14.328  26.536  11.486  1.00  0.00    -0.776 OA
HETATM   13  H   LIG     1      13.419  26.769  11.870  1.00  0.00     0.167 HD
ENDBRANCH  10  12
ENDBRANCH   9  10
ENDBRANCH   8   9
ENDBRANCH   1   8
TORSDOF 9
ENDMDL
MODEL 17
REMARK VINA RESULT:      -4.4      9.673     12.322
REMARK  9 active torsions:
REMARK  status: ('A' for Active; 'I' for Inactive)
REMARK    1  A    between atoms: C_2  and  C_3 
REMARK    2  A    between atoms: C_3  and  C_4 
REMARK    3  A    between atoms: C_4  and  C_5 
REMARK    4  A    between atoms: C_5  and  C_6 
REMARK    5  A    between atoms: C_6  and  C_7 
REMARK    6  A    between atoms: C_7  and  C_8 
REMARK    7  A    between atoms: C_8  and  C_9 
REMARK    8  A    between atoms: C_9  and  C_10 
REMARK    9  A    between atoms: C_10  and  O_11 
ROOT
HETATM    1  C   LIG     1      12.837  28.807  14.137  1.00  0.00     0.001 C 
ENDROOT
BRANCH   1   2
HETATM    2  C   LIG     1      14.235  29.435  14.090  1.00  0.00     0.000 C 
BRANCH   2   3
HETATM    3  C   LIG     1      14.374  30.545  15.142  1.00  0.00     0.000 C 
BRANCH   3   4
HETATM    4  C   LIG     1      13.136  30.667  16.046  1.00  0.00     0.000 C 
BRANCH   4   5
HETATM    5  C   LIG     1      13.132  31.965  16.870  1.00  0.00    -0.000 C 
BRANCH   5   6
HETATM    6  C   LIG     1      14.538  32.362  17.348  1.00  0.00    -0.005 C 
HETATM    7  C   LIG     1      14.930  33.780  16.928  1.00  0.00     0.005 C 
ENDBRANCH   5   6
ENDBRANCH   4   5
ENDBRANCH   3   4
ENDBRANCH   2   3
ENDBRANCH   1   2
BRANCH   1   8
HETATM    8  C   LIG     1      12.852  27.382  13.571  1.00  0.00     0.010 C 
BRANCH   8   9
HETATM    9  C   LIG     1      11.521  27.047  12.889  1.00  0.00     0.110 C 
BRANCH   9  10
HETATM   10  C   LIG     1      11.744  26.223  11.656  1.00  0.00     0.139 C 
HETATM   11  O   LIG     1      12.150  25.035  11.760  1.00  0.00    -0.650 OA
BRANCH  10  12
HETATM   12  O   LIG     1      11.521  26.759  10.392  1.00  0.00    -0.776 OA
HETATM   13  H   LIG     1      10.724  27.357  10.209  1.00  0.00     0.167 HD
ENDBRANCH  10  12
ENDBRANCH   9  10
ENDBRANCH   8   9
ENDBRANCH   1   8
TORSDOF 9
ENDMDL
MODEL 18
REMARK VINA RESULT:      -4.4      6.864      9.708
REMARK  9 active torsions:
REMARK  status: ('A' for Active; 'I' for Inactive)
REMARK    1  A    between atoms: C_2  and  C_3 
REMARK    2  A    between atoms: C_3  and  C_4 
REMARK    3  A    between atoms: C_4  and  C_5 
REMARK    4  A    between atoms: C_5  and  C_6 
REMARK    5  A    between atoms: C_6  and  C_7 
REMARK    6  A    between atoms: C_7  and  C_8 
REMARK    7  A    between atoms: C_8  and  C_9 
REMARK    8  A    between atoms: C_9  and  C_10 
REMARK    9  A    between atoms: C_10  and  O_11 
ROOT
HETATM    1  C   LIG     1      13.893  30.659  15.511  1.00  0.00     0.001 C 
ENDROOT
BRANCH   1   2
HETATM    2  C   LIG     1      15.226  30.614  14.753  1.00  0.00     0.000 C 
BRANCH   2   3
HETATM    3  C   LIG     1      15.773  32.031  14.522  1.00  0.00     0.000 C 
BRANCH   3   4
HETATM    4  C   LIG     1      17.139  32.256  15.190  1.00  0.00     0.000 C 
BRANCH   4   5
HETATM    5  C   LIG     1      17.901  33.449  14.589  1.00  0.00    -0.000 C 
BRANCH   5   6
HETATM    6  C   LIG     1      17.604  33.642  13.093  1.00  0.00    -0.005 C 
HETATM    7  C   LIG     1      18.832  33.413  12.210  1.00  0.00     0.005 C 
ENDBRANCH   5   6
ENDBRANCH   4   5
ENDBRANCH   3   4
ENDBRANCH   2   3
ENDBRANCH   1   2
BRANCH   1   8
HETATM    8  C   LIG     1      13.827  31.875  16.442  1.00  0.00     0.010 C 
BRANCH   8   9
HETATM    9  C   LIG     1      14.091  31.468  17.896  1.00  0.00     0.110 C 
BRANCH   9  10
HETATM   10  C   LIG     1      15.098  32.379  18.532  1.00  0.00     0.139 C 
HETATM   11  O   LIG     1      15.392  33.473  17.981  1.00  0.00    -0.650 OA
BRANCH  10  12
HETATM   12  O   LIG     1      15.727  32.024  19.722  1.00  0.00    -0.776 OA
HETATM   13  H   LIG     1      15.218  31.564  20.467  1.00  0.00     0.167 HD
ENDBRANCH  10  12
ENDBRANCH   9  10
ENDBRANCH   8   9
ENDBRANCH   1   8
TORSDOF 9
ENDMDL
MODEL 19
REMARK VINA RESULT:      -4.4     10.000     11.197
REMARK  9 active torsions:
REMARK  status: ('A' for Active; 'I' for Inactive)
REMARK    1  A    between atoms: C_2  and  C_3 
REMARK    2  A    between atoms: C_3  and  C_4 
REMARK    3  A    between atoms: C_4  and  C_5 
REMARK    4  A    between atoms: C_5  and  C_6 
REMARK    5  A    between atoms: C_6  and  C_7 
REMARK    6  A    between atoms: C_7  and  C_8 
REMARK    7  A    between atoms: C_8  and  C_9 
REMARK    8  A    between atoms: C_9  and  C_10 
REMARK    9  A    between atoms: C_10  and  O_11 
ROOT
HETATM    1  C   LIG     1      17.472  33.518  13.009  1.00  0.00     0.001 C 
ENDROOT
BRANCH   1   2
HETATM    2  C   LIG     1      17.779  33.357  14.503  1.00  0.00     0.000 C 
BRANCH   2   3
HETATM    3  C   LIG     1      16.828  32.340  15.153  1.00  0.00     0.000 C 
BRANCH   3   4
HETATM    4  C   LIG     1      15.801  31.769  14.161  1.00  0.00     0.000 C 
BRANCH   4   5
HETATM    5  C   LIG     1      15.342  30.351  14.540  1.00  0.00    -0.000 C 
BRANCH   5   6
HETATM    6  C   LIG     1      13.850  30.294  14.902  1.00  0.00    -0.005 C 
HETATM    7  C   LIG     1      13.561  30.807  16.314  1.00  0.00     0.005 C 
ENDBRANCH   5   6
ENDBRANCH   4   5
ENDBRANCH   3   4
ENDBRANCH   2   3
ENDBRANCH   1   2
BRANCH   1   8
HETATM    8  C   LIG     1      18.678  34.093  12.256  1.00  0.00     0.010 C 
BRANCH   8   9
HETATM    9  C   LIG     1      19.986  33.773  12.988  1.00  0.00     0.110 C 
BRANCH   9  10
HETATM   10  C   LIG     1      21.147  34.458  12.332  1.00  0.00     0.139 C 
HETATM   11  O   LIG     1      21.158  34.616  11.082  1.00  0.00    -0.650 OA
BRANCH  10  12
HETATM   12  O   LIG     1      22.224  34.913  13.086  1.00  0.00    -0.776 OA
HETATM   13  H   LIG     1      23.124  34.449  13.049  1.00  0.00     0.167 HD
ENDBRANCH  10  12
ENDBRANCH   9  10
ENDBRANCH   8   9
ENDBRANCH   1   8
TORSDOF 9
ENDMDL
MODEL 20
REMARK VINA RESULT:      -4.4      3.804      7.352
REMARK  9 active torsions:
REMARK  status: ('A' for Active; 'I' for Inactive)
REMARK    1  A    between atoms: C_2  and  C_3 
REMARK    2  A    between atoms: C_3  and  C_4 
REMARK    3  A    between atoms: C_4  and  C_5 
REMARK    4  A    between atoms: C_5  and  C_6 
REMARK    5  A    between atoms: C_6  and  C_7 
REMARK    6  A    between atoms: C_7  and  C_8 
REMARK    7  A    between atoms: C_8  and  C_9 
REMARK    8  A    between atoms: C_9  and  C_10 
REMARK    9  A    between atoms: C_10  and  O_11 
ROOT
HETATM    1  C   LIG     1      15.532  34.182  20.112  1.00  0.00     0.001 C 
ENDROOT
BRANCH   1   2
HETATM    2  C   LIG     1      15.227  32.680  20.133  1.00  0.00     0.000 C 
BRANCH   2   3
HETATM    3  C   LIG     1      15.473  32.050  18.754  1.00  0.00     0.000 C 
BRANCH   3   4
HETATM    4  C   LIG     1      14.176  31.849  17.953  1.00  0.00     0.000 C 
BRANCH   4   5
HETATM    5  C   LIG     1      14.283  32.379  16.513  1.00  0.00    -0.000 C 
BRANCH   5   6
HETATM    6  C   LIG     1      15.613  31.998  15.844  1.00  0.00    -0.005 C 
HETATM    7  C   LIG     1      16.427  33.216  15.404  1.00  0.00     0.005 C 
ENDBRANCH   5   6
ENDBRANCH   4   5
ENDBRANCH   3   4
ENDBRANCH   2   3
ENDBRANCH   1   2
BRANCH   1   8
HETATM    8  C   LIG     1      15.721  34.727  21.534  1.00  0.00     0.010 C 
BRANCH   8   9
HETATM    9  C   LIG     1      17.177  35.139  21.775  1.00  0.00     0.110 C 
BRANCH   9  10
HETATM   10  C   LIG     1      17.501  36.410  21.050  1.00  0.00     0.139 C 
HETATM   11  O   LIG     1      17.207  37.521  21.567  1.00  0.00    -0.650 OA
BRANCH  10  12
HETATM   12  O   LIG     1      18.113  36.380  19.800  1.00  0.00    -0.776 OA
HETATM   13  H   LIG     1      18.250  35.508  19.303  1.00  0.00     0.167 HD
ENDBRANCH  10  12
ENDBRANCH   9  10
ENDBRANCH   8   9
ENDBRANCH   1   8
TORSDOF 9
ENDMDL
