REMARK  3 active torsions:
REMARK  status: ('A' for Active; 'I' for Inactive)
REMARK    1  A    between atoms: C_8  and  O_9 
REMARK    2  A    between atoms: O_9  and  C_10 
REMARK    3  A    between atoms: C_11  and  O_12 
ROOT
HETATM    1  C   LIG     1       1.226  -0.287   0.280  1.00  0.00     0.109 A 
HETATM    2  C   LIG     1       2.430  -0.496   0.978  1.00  0.00     0.101 A 
HETATM    3  C   LIG     1       3.581   0.214   0.617  1.00  0.00     0.063 A 
HETATM    4  C   LIG     1       3.544   1.129  -0.440  1.00  0.00     0.036 A 
HETATM    5 CL   LIG     1       4.992   2.015  -0.885  1.00  0.00    -0.084 Cl
HETATM    6  C   LIG     1       2.355   1.332  -1.145  1.00  0.00     0.027 A 
HETATM    7  C   LIG     1       1.202   0.627  -0.792  1.00  0.00     0.042 A 
ENDROOT
BRANCH   1   8
HETATM    8  O   LIG     1       0.084  -1.015   0.651  1.00  0.00    -0.306 OA
BRANCH   8   9
HETATM    9  C   LIG     1      -1.227  -0.678   0.293  1.00  0.00     0.098 A 
HETATM   10  C   LIG     1      -1.793   0.568   0.634  1.00  0.00     0.069 A 
HETATM   11 CL   LIG     1      -0.910   1.744   1.598  1.00  0.00    -0.081 Cl
HETATM   12  C   LIG     1      -3.107   0.863   0.250  1.00  0.00     0.050 A 
HETATM   13  C   LIG     1      -3.863  -0.077  -0.457  1.00  0.00     0.035 A 
HETATM   14  C   LIG     1      -3.311  -1.322  -0.773  1.00  0.00     0.026 A 
HETATM   15 CL   LIG     1      -5.509   0.298  -0.933  1.00  0.00    -0.084 Cl
HETATM   16  C   LIG     1      -2.000  -1.623  -0.393  1.00  0.00     0.041 A 
ENDBRANCH   8   9
ENDBRANCH   1   8
BRANCH   2  17
HETATM   17  O   LIG     1       2.500  -1.402   2.036  1.00  0.00    -0.358 OA
HETATM   18  H   LIG     1       1.697  -1.939   2.341  1.00  0.00     0.217 HD
ENDBRANCH   2  17
TORSDOF 3
