MODEL 1
REMARK VINA RESULT:      -7.0      0.000      0.000
REMARK  3 active torsions:
REMARK  status: ('A' for Active; 'I' for Inactive)
REMARK    1  A    between atoms: C_8  and  O_9 
REMARK    2  A    between atoms: O_9  and  C_10 
REMARK    3  A    between atoms: C_11  and  O_12 
ROOT
HETATM    1  C   LIG     1      17.125  36.907  23.834  1.00  0.00     0.109 A 
HETATM    2  C   LIG     1      17.512  37.589  25.003  1.00  0.00     0.101 A 
HETATM    3  C   LIG     1      17.945  36.870  26.122  1.00  0.00     0.063 A 
HETATM    4  C   LIG     1      17.991  35.472  26.090  1.00  0.00     0.036 A 
HETATM    5 CL   LIG     1      18.536  34.579  27.498  1.00  0.00    -0.084 Cl
HETATM    6  C   LIG     1      17.597  34.789  24.937  1.00  0.00     0.027 A 
HETATM    7  C   LIG     1      17.162  35.499  23.815  1.00  0.00     0.042 A 
ENDROOT
BRANCH   1   8
HETATM    8  O   LIG     1      16.685  37.646  22.724  1.00  0.00    -0.306 OA
BRANCH   8   9
HETATM    9  C   LIG     1      17.479  37.970  21.617  1.00  0.00     0.098 A 
HETATM   10  C   LIG     1      17.636  37.085  20.530  1.00  0.00     0.069 A 
HETATM   11 CL   LIG     1      16.904  35.486  20.537  1.00  0.00    -0.081 Cl
HETATM   12  C   LIG     1      18.437  37.455  19.442  1.00  0.00     0.050 A 
HETATM   13  C   LIG     1      19.091  38.690  19.436  1.00  0.00     0.035 A 
HETATM   14  C   LIG     1      18.956  39.558  20.524  1.00  0.00     0.026 A 
HETATM   15 CL   LIG     1      20.094  39.146  18.071  1.00  0.00    -0.084 Cl
HETATM   16  C   LIG     1      18.159  39.195  21.613  1.00  0.00     0.041 A 
ENDBRANCH   8   9
ENDBRANCH   1   8
BRANCH   2  17
HETATM   17  O   LIG     1      17.477  38.982  25.068  1.00  0.00    -0.358 OA
HETATM   18  H   LIG     1      16.909  39.477  25.745  1.00  0.00     0.217 HD
ENDBRANCH   2  17
TORSDOF 3
ENDMDL
MODEL 2
REMARK VINA RESULT:      -6.4      4.821      6.411
REMARK  3 active torsions:
REMARK  status: ('A' for Active; 'I' for Inactive)
REMARK    1  A    between atoms: C_8  and  O_9 
REMARK    2  A    between atoms: O_9  and  C_10 
REMARK    3  A    between atoms: C_11  and  O_12 
ROOT
HETATM    1  C   LIG     1      16.201  34.688  20.887  1.00  0.00     0.109 A 
HETATM    2  C   LIG     1      15.027  35.156  21.506  1.00  0.00     0.101 A 
HETATM    3  C   LIG     1      14.985  36.448  22.042  1.00  0.00     0.063 A 
HETATM    4  C   LIG     1      16.108  37.279  21.971  1.00  0.00     0.036 A 
HETATM    5 CL   LIG     1      16.047  38.898  22.645  1.00  0.00    -0.084 Cl
HETATM    6  C   LIG     1      17.281  36.815  21.370  1.00  0.00     0.027 A 
HETATM    7  C   LIG     1      17.332  35.527  20.833  1.00  0.00     0.042 A 
ENDROOT
BRANCH   1   8
HETATM    8  O   LIG     1      16.227  33.385  20.364  1.00  0.00    -0.306 OA
BRANCH   8   9
HETATM    9  C   LIG     1      15.460  32.948  19.276  1.00  0.00     0.098 A 
HETATM   10  C   LIG     1      14.791  31.707  19.290  1.00  0.00     0.069 A 
HETATM   11 CL   LIG     1      14.943  30.598  20.646  1.00  0.00    -0.081 Cl
HETATM   12  C   LIG     1      14.032  31.314  18.181  1.00  0.00     0.050 A 
HETATM   13  C   LIG     1      13.946  32.141  17.057  1.00  0.00     0.035 A 
HETATM   14  C   LIG     1      14.630  33.360  17.032  1.00  0.00     0.026 A 
HETATM   15 CL   LIG     1      12.995  31.641  15.670  1.00  0.00    -0.084 Cl
HETATM   16  C   LIG     1      15.390  33.758  18.136  1.00  0.00     0.041 A 
ENDBRANCH   8   9
ENDBRANCH   1   8
BRANCH   2  17
HETATM   17  O   LIG     1      13.890  34.352  21.593  1.00  0.00    -0.358 OA
HETATM   18  H   LIG     1      12.963  34.740  21.719  1.00  0.00     0.217 HD
ENDBRANCH   2  17
TORSDOF 3
ENDMDL
MODEL 3
REMARK VINA RESULT:      -6.4      7.752      9.430
REMARK  3 active torsions:
REMARK  status: ('A' for Active; 'I' for Inactive)
REMARK    1  A    between atoms: C_8  and  O_9 
REMARK    2  A    between atoms: O_9  and  C_10 
REMARK    3  A    between atoms: C_11  and  O_12 
ROOT
HETATM    1  C   LIG     1      14.442  32.748  17.397  1.00  0.00     0.109 A 
HETATM    2  C   LIG     1      14.977  34.045  17.499  1.00  0.00     0.101 A 
HETATM    3  C   LIG     1      15.570  34.466  18.696  1.00  0.00     0.063 A 
HETATM    4  C   LIG     1      15.628  33.604  19.796  1.00  0.00     0.036 A 
HETATM    5 CL   LIG     1      16.373  34.140  21.292  1.00  0.00    -0.084 Cl
HETATM    6  C   LIG     1      15.087  32.319  19.705  1.00  0.00     0.027 A 
HETATM    7  C   LIG     1      14.494  31.892  18.515  1.00  0.00     0.042 A 
ENDROOT
BRANCH   1   8
HETATM    8  O   LIG     1      13.844  32.347  16.191  1.00  0.00    -0.306 OA
BRANCH   8   9
HETATM    9  C   LIG     1      14.207  31.208  15.462  1.00  0.00     0.098 A 
HETATM   10  C   LIG     1      15.484  31.077  14.878  1.00  0.00     0.069 A 
HETATM   11 CL   LIG     1      16.672  32.370  14.967  1.00  0.00    -0.081 Cl
HETATM   12  C   LIG     1      15.804  29.917  14.161  1.00  0.00     0.050 A 
HETATM   13  C   LIG     1      14.859  28.898  14.010  1.00  0.00     0.035 A 
HETATM   14  C   LIG     1      13.585  29.039  14.567  1.00  0.00     0.026 A 
HETATM   15 CL   LIG     1      15.266  27.449  13.109  1.00  0.00    -0.084 Cl
HETATM   16  C   LIG     1      13.259  30.194  15.284  1.00  0.00     0.041 A 
ENDBRANCH   8   9
ENDBRANCH   1   8
BRANCH   2  17
HETATM   17  O   LIG     1      14.934  34.929  16.421  1.00  0.00    -0.358 OA
HETATM   18  H   LIG     1      14.525  35.852  16.496  1.00  0.00     0.217 HD
ENDBRANCH   2  17
TORSDOF 3
ENDMDL
MODEL 4
REMARK VINA RESULT:      -6.3      3.086      6.087
REMARK  3 active torsions:
REMARK  status: ('A' for Active; 'I' for Inactive)
REMARK    1  A    between atoms: C_8  and  O_9 
REMARK    2  A    between atoms: O_9  and  C_10 
REMARK    3  A    between atoms: C_11  and  O_12 
ROOT
HETATM    1  C   LIG     1      15.704  35.159  20.970  1.00  0.00     0.109 A 
HETATM    2  C   LIG     1      16.115  34.967  19.638  1.00  0.00     0.101 A 
HETATM    3  C   LIG     1      15.741  33.806  18.950  1.00  0.00     0.063 A 
HETATM    4  C   LIG     1      14.964  32.830  19.582  1.00  0.00     0.036 A 
HETATM    5 CL   LIG     1      14.500  31.379  18.711  1.00  0.00    -0.084 Cl
HETATM    6  C   LIG     1      14.563  33.009  20.908  1.00  0.00     0.027 A 
HETATM    7  C   LIG     1      14.932  34.164  21.602  1.00  0.00     0.042 A 
ENDROOT
BRANCH   1   8
HETATM    8  O   LIG     1      16.096  36.325  21.646  1.00  0.00    -0.306 OA
BRANCH   8   9
HETATM    9  C   LIG     1      16.668  36.352  22.924  1.00  0.00     0.098 A 
HETATM   10  C   LIG     1      16.990  37.564  23.568  1.00  0.00     0.069 A 
HETATM   11 CL   LIG     1      16.762  39.115  22.773  1.00  0.00    -0.081 Cl
HETATM   12  C   LIG     1      17.556  37.541  24.849  1.00  0.00     0.050 A 
HETATM   13  C   LIG     1      17.816  36.323  25.483  1.00  0.00     0.035 A 
HETATM   14  C   LIG     1      17.521  35.120  24.834  1.00  0.00     0.026 A 
HETATM   15 CL   LIG     1      18.528  36.301  27.086  1.00  0.00    -0.084 Cl
HETATM   16  C   LIG     1      16.955  35.136  23.556  1.00  0.00     0.041 A 
ENDBRANCH   8   9
ENDBRANCH   1   8
BRANCH   2  17
HETATM   17  O   LIG     1      16.891  35.920  18.980  1.00  0.00    -0.358 OA
HETATM   18  H   LIG     1      17.228  35.783  18.034  1.00  0.00     0.217 HD
ENDBRANCH   2  17
TORSDOF 3
ENDMDL
MODEL 5
REMARK VINA RESULT:      -5.9      5.280      6.794
REMARK  3 active torsions:
REMARK  status: ('A' for Active; 'I' for Inactive)
REMARK    1  A    between atoms: C_8  and  O_9 
REMARK    2  A    between atoms: O_9  and  C_10 
REMARK    3  A    between atoms: C_11  and  O_12 
ROOT
HETATM    1  C   LIG     1      15.912  34.931  19.199  1.00  0.00     0.109 A 
HETATM    2  C   LIG     1      17.012  35.706  19.611  1.00  0.00     0.101 A 
HETATM    3  C   LIG     1      17.366  35.755  20.964  1.00  0.00     0.063 A 
HETATM    4  C   LIG     1      16.629  35.041  21.914  1.00  0.00     0.036 A 
HETATM    5 CL   LIG     1      17.082  35.108  23.608  1.00  0.00    -0.084 Cl
HETATM    6  C   LIG     1      15.529  34.279  21.513  1.00  0.00     0.027 A 
HETATM    7  C   LIG     1      15.167  34.225  20.165  1.00  0.00     0.042 A 
ENDROOT
BRANCH   1   8
HETATM    8  O   LIG     1      15.566  34.901  17.838  1.00  0.00    -0.306 OA
BRANCH   8   9
HETATM    9  C   LIG     1      15.342  33.733  17.098  1.00  0.00     0.098 A 
HETATM   10  C   LIG     1      16.072  33.446  15.926  1.00  0.00     0.069 A 
HETATM   11 CL   LIG     1      17.254  34.576  15.280  1.00  0.00    -0.081 Cl
HETATM   12  C   LIG     1      15.817  32.263  15.221  1.00  0.00     0.050 A 
HETATM   13  C   LIG     1      14.834  31.374  15.667  1.00  0.00     0.035 A 
HETATM   14  C   LIG     1      14.093  31.671  16.815  1.00  0.00     0.026 A 
HETATM   15 CL   LIG     1      14.518  29.895  14.779  1.00  0.00    -0.084 Cl
HETATM   16  C   LIG     1      14.342  32.850  17.524  1.00  0.00     0.041 A 
ENDBRANCH   8   9
ENDBRANCH   1   8
BRANCH   2  17
HETATM   17  O   LIG     1      17.766  36.431  18.688  1.00  0.00    -0.358 OA
HETATM   18  H   LIG     1      18.464  35.993  18.099  1.00  0.00     0.217 HD
ENDBRANCH   2  17
TORSDOF 3
ENDMDL
MODEL 6
REMARK VINA RESULT:      -5.6      9.441     11.769
REMARK  3 active torsions:
REMARK  status: ('A' for Active; 'I' for Inactive)
REMARK    1  A    between atoms: C_8  and  O_9 
REMARK    2  A    between atoms: O_9  and  C_10 
REMARK    3  A    between atoms: C_11  and  O_12 
ROOT
HETATM    1  C   LIG     1      17.788  34.014  13.320  1.00  0.00     0.109 A 
HETATM    2  C   LIG     1      19.111  33.550  13.440  1.00  0.00     0.101 A 
HETATM    3  C   LIG     1      20.040  33.810  12.426  1.00  0.00     0.063 A 
HETATM    4  C   LIG     1      19.659  34.528  11.287  1.00  0.00     0.036 A 
HETATM    5 CL   LIG     1      20.830  34.850  10.021  1.00  0.00    -0.084 Cl
HETATM    6  C   LIG     1      18.344  34.981  11.156  1.00  0.00     0.027 A 
HETATM    7  C   LIG     1      17.411  34.724  12.163  1.00  0.00     0.042 A 
ENDROOT
BRANCH   1   8
HETATM    8  O   LIG     1      16.869  33.735  14.344  1.00  0.00    -0.306 OA
BRANCH   8   9
HETATM    9  C   LIG     1      16.063  32.591  14.402  1.00  0.00     0.098 A 
HETATM   10  C   LIG     1      15.253  32.309  15.521  1.00  0.00     0.069 A 
HETATM   11 CL   LIG     1      15.265  33.340  16.945  1.00  0.00    -0.081 Cl
HETATM   12  C   LIG     1      14.460  31.155  15.532  1.00  0.00     0.050 A 
HETATM   13  C   LIG     1      14.479  30.276  14.445  1.00  0.00     0.035 A 
HETATM   14  C   LIG     1      15.302  30.542  13.346  1.00  0.00     0.026 A 
HETATM   15 CL   LIG     1      13.485  28.831  14.466  1.00  0.00    -0.084 Cl
HETATM   16  C   LIG     1      16.096  31.692  13.328  1.00  0.00     0.041 A 
ENDBRANCH   8   9
ENDBRANCH   1   8
BRANCH   2  17
HETATM   17  O   LIG     1      19.522  32.831  14.562  1.00  0.00    -0.358 OA
HETATM   18  H   LIG     1      18.873  32.300  15.130  1.00  0.00     0.217 HD
ENDBRANCH   2  17
TORSDOF 3
ENDMDL
MODEL 7
REMARK VINA RESULT:      -5.3      4.682      6.308
REMARK  3 active torsions:
REMARK  status: ('A' for Active; 'I' for Inactive)
REMARK    1  A    between atoms: C_8  and  O_9 
REMARK    2  A    between atoms: O_9  and  C_10 
REMARK    3  A    between atoms: C_11  and  O_12 
ROOT
HETATM    1  C   LIG     1      16.171  35.569  19.860  1.00  0.00     0.109 A 
HETATM    2  C   LIG     1      17.326  36.190  20.371  1.00  0.00     0.101 A 
HETATM    3  C   LIG     1      17.301  36.774  21.643  1.00  0.00     0.063 A 
HETATM    4  C   LIG     1      16.131  36.750  22.409  1.00  0.00     0.036 A 
HETATM    5 CL   LIG     1      16.110  37.485  24.003  1.00  0.00    -0.084 Cl
HETATM    6  C   LIG     1      14.978  36.146  21.902  1.00  0.00     0.027 A 
HETATM    7  C   LIG     1      14.994  35.561  20.633  1.00  0.00     0.042 A 
ENDROOT
BRANCH   1   8
HETATM    8  O   LIG     1      16.213  34.996  18.578  1.00  0.00    -0.306 OA
BRANCH   8   9
HETATM    9  C   LIG     1      15.390  33.949  18.146  1.00  0.00     0.098 A 
HETATM   10  C   LIG     1      15.278  32.744  18.871  1.00  0.00     0.069 A 
HETATM   11 CL   LIG     1      16.229  32.455  20.322  1.00  0.00    -0.081 Cl
HETATM   12  C   LIG     1      14.438  31.726  18.403  1.00  0.00     0.050 A 
HETATM   13  C   LIG     1      13.721  31.895  17.215  1.00  0.00     0.035 A 
HETATM   14  C   LIG     1      13.851  33.079  16.483  1.00  0.00     0.026 A 
HETATM   15 CL   LIG     1      12.672  30.615  16.633  1.00  0.00    -0.084 Cl
HETATM   16  C   LIG     1      14.687  34.099  16.944  1.00  0.00     0.041 A 
ENDBRANCH   8   9
ENDBRANCH   1   8
BRANCH   2  17
HETATM   17  O   LIG     1      18.508  36.232  19.632  1.00  0.00    -0.358 OA
HETATM   18  H   LIG     1      19.396  35.936  20.018  1.00  0.00     0.217 HD
ENDBRANCH   2  17
TORSDOF 3
ENDMDL
MODEL 8
REMARK VINA RESULT:      -5.1      4.674      7.089
REMARK  3 active torsions:
REMARK  status: ('A' for Active; 'I' for Inactive)
REMARK    1  A    between atoms: C_8  and  O_9 
REMARK    2  A    between atoms: O_9  and  C_10 
REMARK    3  A    between atoms: C_11  and  O_12 
ROOT
HETATM    1  C   LIG     1      15.514  34.044  18.157  1.00  0.00     0.109 A 
HETATM    2  C   LIG     1      15.416  32.849  18.893  1.00  0.00     0.101 A 
HETATM    3  C   LIG     1      14.548  31.836  18.471  1.00  0.00     0.063 A 
HETATM    4  C   LIG     1      13.769  32.006  17.322  1.00  0.00     0.036 A 
HETATM    5 CL   LIG     1      12.683  30.730  16.800  1.00  0.00    -0.084 Cl
HETATM    6  C   LIG     1      13.852  33.196  16.594  1.00  0.00     0.027 A 
HETATM    7  C   LIG     1      14.716  34.212  17.008  1.00  0.00     0.042 A 
ENDROOT
BRANCH   1   8
HETATM    8  O   LIG     1      16.385  35.053  18.601  1.00  0.00    -0.306 OA
BRANCH   8   9
HETATM    9  C   LIG     1      16.322  35.662  19.860  1.00  0.00     0.098 A 
HETATM   10  C   LIG     1      17.410  36.386  20.390  1.00  0.00     0.069 A 
HETATM   11 CL   LIG     1      18.941  36.501  19.532  1.00  0.00    -0.081 Cl
HETATM   12  C   LIG     1      17.300  36.983  21.652  1.00  0.00     0.050 A 
HETATM   13  C   LIG     1      16.121  36.853  22.393  1.00  0.00     0.035 A 
HETATM   14  C   LIG     1      15.051  36.114  21.879  1.00  0.00     0.026 A 
HETATM   15 CL   LIG     1      15.990  37.601  23.974  1.00  0.00    -0.084 Cl
HETATM   16  C   LIG     1      15.155  35.516  20.620  1.00  0.00     0.041 A 
ENDBRANCH   8   9
ENDBRANCH   1   8
BRANCH   2  17
HETATM   17  O   LIG     1      16.178  32.648  20.044  1.00  0.00    -0.358 OA
HETATM   18  H   LIG     1      16.224  31.751  20.512  1.00  0.00     0.217 HD
ENDBRANCH   2  17
TORSDOF 3
ENDMDL
MODEL 9
REMARK VINA RESULT:      -5.1      4.099      6.351
REMARK  3 active torsions:
REMARK  status: ('A' for Active; 'I' for Inactive)
REMARK    1  A    between atoms: C_8  and  O_9 
REMARK    2  A    between atoms: O_9  and  C_10 
REMARK    3  A    between atoms: C_11  and  O_12 
ROOT
HETATM    1  C   LIG     1      15.339  34.093  19.558  1.00  0.00     0.109 A 
HETATM    2  C   LIG     1      14.881  32.768  19.670  1.00  0.00     0.101 A 
HETATM    3  C   LIG     1      14.636  32.012  18.518  1.00  0.00     0.063 A 
HETATM    4  C   LIG     1      14.839  32.569  17.251  1.00  0.00     0.036 A 
HETATM    5 CL   LIG     1      14.530  31.613  15.812  1.00  0.00    -0.084 Cl
HETATM    6  C   LIG     1      15.282  33.888  17.133  1.00  0.00     0.027 A 
HETATM    7  C   LIG     1      15.528  34.650  18.277  1.00  0.00     0.042 A 
ENDROOT
BRANCH   1   8
HETATM    8  O   LIG     1      15.571  34.839  20.725  1.00  0.00    -0.306 OA
BRANCH   8   9
HETATM    9  C   LIG     1      16.486  35.894  20.828  1.00  0.00     0.098 A 
HETATM   10  C   LIG     1      16.306  36.946  21.751  1.00  0.00     0.069 A 
HETATM   11 CL   LIG     1      14.879  37.034  22.774  1.00  0.00    -0.081 Cl
HETATM   12  C   LIG     1      17.250  37.977  21.822  1.00  0.00     0.050 A 
HETATM   13  C   LIG     1      18.362  37.975  20.973  1.00  0.00     0.035 A 
HETATM   14  C   LIG     1      18.527  36.947  20.041  1.00  0.00     0.026 A 
HETATM   15 CL   LIG     1      19.540  39.272  21.066  1.00  0.00    -0.084 Cl
HETATM   16  C   LIG     1      17.589  35.914  19.965  1.00  0.00     0.041 A 
ENDBRANCH   8   9
ENDBRANCH   1   8
BRANCH   2  17
HETATM   17  O   LIG     1      14.667  32.184  20.919  1.00  0.00    -0.358 OA
HETATM   18  H   LIG     1      15.213  32.437  21.734  1.00  0.00     0.217 HD
ENDBRANCH   2  17
TORSDOF 3
ENDMDL
MODEL 10
REMARK VINA RESULT:      -4.8     16.016     18.148
REMARK  3 active torsions:
REMARK  status: ('A' for Active; 'I' for Inactive)
REMARK    1  A    between atoms: C_8  and  O_9 
REMARK    2  A    between atoms: O_9  and  C_10 
REMARK    3  A    between atoms: C_11  and  O_12 
ROOT
HETATM    1  C   LIG     1      27.912  27.533  33.143  1.00  0.00     0.109 A 
HETATM    2  C   LIG     1      26.957  27.295  32.137  1.00  0.00     0.101 A 
HETATM    3  C   LIG     1      27.289  27.501  30.793  1.00  0.00     0.063 A 
HETATM    4  C   LIG     1      28.567  27.947  30.442  1.00  0.00     0.036 A 
HETATM    5 CL   LIG     1      28.975  28.201  28.754  1.00  0.00    -0.084 Cl
HETATM    6  C   LIG     1      29.516  28.197  31.436  1.00  0.00     0.027 A 
HETATM    7  C   LIG     1      29.193  27.996  32.780  1.00  0.00     0.042 A 
ENDROOT
BRANCH   1   8
HETATM    8  O   LIG     1      27.557  27.330  34.486  1.00  0.00    -0.306 OA
BRANCH   8   9
HETATM    9  C   LIG     1      27.158  28.343  35.367  1.00  0.00     0.098 A 
HETATM   10  C   LIG     1      27.192  28.167  36.766  1.00  0.00     0.069 A 
HETATM   11 CL   LIG     1      27.666  26.635  37.486  1.00  0.00    -0.081 Cl
HETATM   12  C   LIG     1      26.787  29.210  37.607  1.00  0.00     0.050 A 
HETATM   13  C   LIG     1      26.337  30.419  37.067  1.00  0.00     0.035 A 
HETATM   14  C   LIG     1      26.279  30.584  35.680  1.00  0.00     0.026 A 
HETATM   15 CL   LIG     1      25.829  31.721  38.127  1.00  0.00    -0.084 Cl
HETATM   16  C   LIG     1      26.682  29.547  34.834  1.00  0.00     0.041 A 
ENDBRANCH   8   9
ENDBRANCH   1   8
BRANCH   2  17
HETATM   17  O   LIG     1      25.674  26.851  32.455  1.00  0.00    -0.358 OA
HETATM   18  H   LIG     1      24.965  26.695  31.747  1.00  0.00     0.217 HD
ENDBRANCH   2  17
TORSDOF 3
ENDMDL
MODEL 11
REMARK VINA RESULT:      -4.7     15.605     16.983
REMARK  3 active torsions:
REMARK  status: ('A' for Active; 'I' for Inactive)
REMARK    1  A    between atoms: C_8  and  O_9 
REMARK    2  A    between atoms: O_9  and  C_10 
REMARK    3  A    between atoms: C_11  and  O_12 
ROOT
HETATM    1  C   LIG     1      26.755  24.407  20.092  1.00  0.00     0.109 A 
HETATM    2  C   LIG     1      28.133  24.442  20.372  1.00  0.00     0.101 A 
HETATM    3  C   LIG     1      28.931  25.460  19.835  1.00  0.00     0.063 A 
HETATM    4  C   LIG     1      28.366  26.441  19.015  1.00  0.00     0.036 A 
HETATM    5 CL   LIG     1      29.374  27.713  18.346  1.00  0.00    -0.084 Cl
HETATM    6  C   LIG     1      27.000  26.405  18.723  1.00  0.00     0.027 A 
HETATM    7  C   LIG     1      26.197  25.393  19.254  1.00  0.00     0.042 A 
ENDROOT
BRANCH   1   8
HETATM    8  O   LIG     1      25.972  23.374  20.633  1.00  0.00    -0.306 OA
BRANCH   8   9
HETATM    9  C   LIG     1      25.107  22.559  19.893  1.00  0.00     0.098 A 
HETATM   10  C   LIG     1      23.754  22.392  20.254  1.00  0.00     0.069 A 
HETATM   11 CL   LIG     1      23.092  23.138  21.702  1.00  0.00    -0.081 Cl
HETATM   12  C   LIG     1      22.925  21.570  19.481  1.00  0.00     0.050 A 
HETATM   13  C   LIG     1      23.436  20.905  18.362  1.00  0.00     0.035 A 
HETATM   14  C   LIG     1      24.783  21.050  18.019  1.00  0.00     0.026 A 
HETATM   15 CL   LIG     1      22.392  19.876  17.399  1.00  0.00    -0.084 Cl
HETATM   16  C   LIG     1      25.617  21.869  18.786  1.00  0.00     0.041 A 
ENDBRANCH   8   9
ENDBRANCH   1   8
BRANCH   2  17
HETATM   17  O   LIG     1      28.727  23.478  21.185  1.00  0.00    -0.358 OA
HETATM   18  H   LIG     1      29.020  22.576  20.828  1.00  0.00     0.217 HD
ENDBRANCH   2  17
TORSDOF 3
ENDMDL
MODEL 12
REMARK VINA RESULT:      -4.6      7.801     10.145
REMARK  3 active torsions:
REMARK  status: ('A' for Active; 'I' for Inactive)
REMARK    1  A    between atoms: C_8  and  O_9 
REMARK    2  A    between atoms: O_9  and  C_10 
REMARK    3  A    between atoms: C_11  and  O_12 
ROOT
HETATM    1  C   LIG     1      14.330  31.428  15.315  1.00  0.00     0.109 A 
HETATM    2  C   LIG     1      15.618  31.161  14.813  1.00  0.00     0.101 A 
HETATM    3  C   LIG     1      15.884  29.941  14.180  1.00  0.00     0.063 A 
HETATM    4  C   LIG     1      14.877  28.980  14.047  1.00  0.00     0.036 A 
HETATM    5 CL   LIG     1      15.219  27.454  13.252  1.00  0.00    -0.084 Cl
HETATM    6  C   LIG     1      13.600  29.234  14.554  1.00  0.00     0.027 A 
HETATM    7  C   LIG     1      13.326  30.448  15.188  1.00  0.00     0.042 A 
ENDROOT
BRANCH   1   8
HETATM    8  O   LIG     1      14.085  32.653  15.955  1.00  0.00    -0.306 OA
BRANCH   8   9
HETATM    9  C   LIG     1      14.610  33.022  17.199  1.00  0.00     0.098 A 
HETATM   10  C   LIG     1      14.598  32.141  18.301  1.00  0.00     0.069 A 
HETATM   11 CL   LIG     1      13.851  30.552  18.197  1.00  0.00    -0.081 Cl
HETATM   12  C   LIG     1      15.139  32.552  19.525  1.00  0.00     0.050 A 
HETATM   13  C   LIG     1      15.678  33.834  19.663  1.00  0.00     0.035 A 
HETATM   14  C   LIG     1      15.667  34.717  18.579  1.00  0.00     0.026 A 
HETATM   15 CL   LIG     1      16.352  34.343  21.200  1.00  0.00    -0.084 Cl
HETATM   16  C   LIG     1      15.129  34.313  17.354  1.00  0.00     0.041 A 
ENDBRANCH   8   9
ENDBRANCH   1   8
BRANCH   2  17
HETATM   17  O   LIG     1      16.644  32.098  14.931  1.00  0.00    -0.358 OA
HETATM   18  H   LIG     1      16.512  33.075  14.698  1.00  0.00     0.217 HD
ENDBRANCH   2  17
TORSDOF 3
ENDMDL
MODEL 13
REMARK VINA RESULT:      -4.6     16.008     17.521
REMARK  3 active torsions:
REMARK  status: ('A' for Active; 'I' for Inactive)
REMARK    1  A    between atoms: C_8  and  O_9 
REMARK    2  A    between atoms: O_9  and  C_10 
REMARK    3  A    between atoms: C_11  and  O_12 
ROOT
HETATM    1  C   LIG     1      28.248  26.858  31.543  1.00  0.00     0.109 A 
HETATM    2  C   LIG     1      28.289  25.451  31.512  1.00  0.00     0.101 A 
HETATM    3  C   LIG     1      27.764  24.759  30.414  1.00  0.00     0.063 A 
HETATM    4  C   LIG     1      27.192  25.458  29.346  1.00  0.00     0.036 A 
HETATM    5 CL   LIG     1      26.537  24.582  27.974  1.00  0.00    -0.084 Cl
HETATM    6  C   LIG     1      27.137  26.854  29.377  1.00  0.00     0.027 A 
HETATM    7  C   LIG     1      27.657  27.552  30.469  1.00  0.00     0.042 A 
ENDROOT
BRANCH   1   8
HETATM    8  O   LIG     1      28.772  27.534  32.656  1.00  0.00    -0.306 OA
BRANCH   8   9
HETATM    9  C   LIG     1      28.069  28.472  33.422  1.00  0.00     0.098 A 
HETATM   10  C   LIG     1      27.021  28.091  34.285  1.00  0.00     0.069 A 
HETATM   11 CL   LIG     1      26.482  26.420  34.392  1.00  0.00    -0.081 Cl
HETATM   12  C   LIG     1      26.349  29.064  35.035  1.00  0.00     0.050 A 
HETATM   13  C   LIG     1      26.705  30.412  34.922  1.00  0.00     0.035 A 
HETATM   14  C   LIG     1      27.727  30.793  34.047  1.00  0.00     0.026 A 
HETATM   15 CL   LIG     1      25.858  31.626  35.863  1.00  0.00    -0.084 Cl
HETATM   16  C   LIG     1      28.401  29.827  33.296  1.00  0.00     0.041 A 
ENDBRANCH   8   9
ENDBRANCH   1   8
BRANCH   2  17
HETATM   17  O   LIG     1      28.852  24.725  32.561  1.00  0.00    -0.358 OA
HETATM   18  H   LIG     1      28.637  24.922  33.531  1.00  0.00     0.217 HD
ENDBRANCH   2  17
TORSDOF 3
ENDMDL
MODEL 14
REMARK VINA RESULT:      -4.5     15.615     16.504
REMARK  3 active torsions:
REMARK  status: ('A' for Active; 'I' for Inactive)
REMARK    1  A    between atoms: C_8  and  O_9 
REMARK    2  A    between atoms: O_9  and  C_10 
REMARK    3  A    between atoms: C_11  and  O_12 
ROOT
HETATM    1  C   LIG     1      24.838  22.720  19.468  1.00  0.00     0.109 A 
HETATM    2  C   LIG     1      23.579  22.102  19.349  1.00  0.00     0.101 A 
HETATM    3  C   LIG     1      22.991  21.492  20.464  1.00  0.00     0.063 A 
HETATM    4  C   LIG     1      23.651  21.488  21.697  1.00  0.00     0.036 A 
HETATM    5 CL   LIG     1      22.906  20.721  23.088  1.00  0.00    -0.084 Cl
HETATM    6  C   LIG     1      24.907  22.088  21.818  1.00  0.00     0.027 A 
HETATM    7  C   LIG     1      25.501  22.698  20.711  1.00  0.00     0.042 A 
ENDROOT
BRANCH   1   8
HETATM    8  O   LIG     1      25.416  23.319  18.337  1.00  0.00    -0.306 OA
BRANCH   8   9
HETATM    9  C   LIG     1      26.487  24.220  18.372  1.00  0.00     0.098 A 
HETATM   10  C   LIG     1      27.755  23.887  17.851  1.00  0.00     0.069 A 
HETATM   11 CL   LIG     1      28.087  22.290  17.195  1.00  0.00    -0.081 Cl
HETATM   12  C   LIG     1      28.796  24.823  17.904  1.00  0.00     0.050 A 
HETATM   13  C   LIG     1      28.587  26.078  18.482  1.00  0.00     0.035 A 
HETATM   14  C   LIG     1      27.337  26.399  19.022  1.00  0.00     0.026 A 
HETATM   15 CL   LIG     1      29.895  27.245  18.547  1.00  0.00    -0.084 Cl
HETATM   16  C   LIG     1      26.294  25.470  18.972  1.00  0.00     0.041 A 
ENDBRANCH   8   9
ENDBRANCH   1   8
BRANCH   2  17
HETATM   17  O   LIG     1      22.896  22.089  18.134  1.00  0.00    -0.358 OA
HETATM   18  H   LIG     1      23.371  21.960  17.249  1.00  0.00     0.217 HD
ENDBRANCH   2  17
TORSDOF 3
ENDMDL
MODEL 15
REMARK VINA RESULT:      -4.5      9.176     11.663
REMARK  3 active torsions:
REMARK  status: ('A' for Active; 'I' for Inactive)
REMARK    1  A    between atoms: C_8  and  O_9 
REMARK    2  A    between atoms: O_9  and  C_10 
REMARK    3  A    between atoms: C_11  and  O_12 
ROOT
HETATM    1  C   LIG     1      16.769  32.890  14.273  1.00  0.00     0.109 A 
HETATM    2  C   LIG     1      17.358  34.127  14.598  1.00  0.00     0.101 A 
HETATM    3  C   LIG     1      18.316  34.691  13.748  1.00  0.00     0.063 A 
HETATM    4  C   LIG     1      18.698  34.030  12.576  1.00  0.00     0.036 A 
HETATM    5 CL   LIG     1      19.899  34.745  11.516  1.00  0.00    -0.084 Cl
HETATM    6  C   LIG     1      18.126  32.796  12.254  1.00  0.00     0.027 A 
HETATM    7  C   LIG     1      17.170  32.226  13.097  1.00  0.00     0.042 A 
ENDROOT
BRANCH   1   8
HETATM    8  O   LIG     1      15.816  32.336  15.142  1.00  0.00    -0.306 OA
BRANCH   8   9
HETATM    9  C   LIG     1      15.046  31.201  14.862  1.00  0.00     0.098 A 
HETATM   10  C   LIG     1      13.800  30.976  15.483  1.00  0.00     0.069 A 
HETATM   11 CL   LIG     1      13.174  32.072  16.707  1.00  0.00    -0.081 Cl
HETATM   12  C   LIG     1      13.062  29.828  15.167  1.00  0.00     0.050 A 
HETATM   13  C   LIG     1      13.562  28.899  14.250  1.00  0.00     0.035 A 
HETATM   14  C   LIG     1      14.809  29.109  13.652  1.00  0.00     0.026 A 
HETATM   15 CL   LIG     1      12.635  27.463  13.860  1.00  0.00    -0.084 Cl
HETATM   16  C   LIG     1      15.551  30.252  13.963  1.00  0.00     0.041 A 
ENDBRANCH   8   9
ENDBRANCH   1   8
BRANCH   2  17
HETATM   17  O   LIG     1      17.000  34.811  15.759  1.00  0.00    -0.358 OA
HETATM   18  H   LIG     1      16.335  35.575  15.752  1.00  0.00     0.217 HD
ENDBRANCH   2  17
TORSDOF 3
ENDMDL
MODEL 16
REMARK VINA RESULT:      -4.5     15.538     17.187
REMARK  3 active torsions:
REMARK  status: ('A' for Active; 'I' for Inactive)
REMARK    1  A    between atoms: C_8  and  O_9 
REMARK    2  A    between atoms: O_9  and  C_10 
REMARK    3  A    between atoms: C_11  and  O_12 
ROOT
HETATM    1  C   LIG     1      26.445  24.236  18.617  1.00  0.00     0.109 A 
HETATM    2  C   LIG     1      27.686  23.820  18.101  1.00  0.00     0.101 A 
HETATM    3  C   LIG     1      28.762  24.715  18.059  1.00  0.00     0.063 A 
HETATM    4  C   LIG     1      28.610  26.025  18.524  1.00  0.00     0.036 A 
HETATM    5 CL   LIG     1      29.964  27.139  18.469  1.00  0.00    -0.084 Cl
HETATM    6  C   LIG     1      27.376  26.448  19.026  1.00  0.00     0.027 A 
HETATM    7  C   LIG     1      26.297  25.562  19.070  1.00  0.00     0.042 A 
ENDROOT
BRANCH   1   8
HETATM    8  O   LIG     1      25.375  23.327  18.642  1.00  0.00    -0.306 OA
BRANCH   8   9
HETATM    9  C   LIG     1      24.847  22.750  19.803  1.00  0.00     0.098 A 
HETATM   10  C   LIG     1      23.715  21.908  19.766  1.00  0.00     0.069 A 
HETATM   11 CL   LIG     1      22.853  21.596  18.266  1.00  0.00    -0.081 Cl
HETATM   12  C   LIG     1      23.226  21.349  20.953  1.00  0.00     0.050 A 
HETATM   13  C   LIG     1      23.845  21.633  22.174  1.00  0.00     0.035 A 
HETATM   14  C   LIG     1      24.951  22.487  22.215  1.00  0.00     0.026 A 
HETATM   15 CL   LIG     1      23.225  20.931  23.657  1.00  0.00    -0.084 Cl
HETATM   16  C   LIG     1      25.445  23.049  21.034  1.00  0.00     0.041 A 
ENDBRANCH   8   9
ENDBRANCH   1   8
BRANCH   2  17
HETATM   17  O   LIG     1      27.871  22.521  17.629  1.00  0.00    -0.358 OA
HETATM   18  H   LIG     1      27.097  21.944  17.320  1.00  0.00     0.217 HD
ENDBRANCH   2  17
TORSDOF 3
ENDMDL
MODEL 17
REMARK VINA RESULT:      -4.4     16.250     18.049
REMARK  3 active torsions:
REMARK  status: ('A' for Active; 'I' for Inactive)
REMARK    1  A    between atoms: C_8  and  O_9 
REMARK    2  A    between atoms: O_9  and  C_10 
REMARK    3  A    between atoms: C_11  and  O_12 
ROOT
HETATM    1  C   LIG     1      24.271  21.671  18.594  1.00  0.00     0.109 A 
HETATM    2  C   LIG     1      25.318  21.075  17.866  1.00  0.00     0.101 A 
HETATM    3  C   LIG     1      25.073  19.933  17.095  1.00  0.00     0.063 A 
HETATM    4  C   LIG     1      23.792  19.374  17.047  1.00  0.00     0.036 A 
HETATM    5 CL   LIG     1      23.495  17.943  16.077  1.00  0.00    -0.084 Cl
HETATM    6  C   LIG     1      22.751  19.954  17.777  1.00  0.00     0.027 A 
HETATM    7  C   LIG     1      22.987  21.093  18.550  1.00  0.00     0.042 A 
ENDROOT
BRANCH   1   8
HETATM    8  O   LIG     1      24.538  22.811  19.369  1.00  0.00    -0.306 OA
BRANCH   8   9
HETATM    9  C   LIG     1      24.851  22.792  20.734  1.00  0.00     0.098 A 
HETATM   10  C   LIG     1      23.848  22.810  21.726  1.00  0.00     0.069 A 
HETATM   11 CL   LIG     1      22.145  22.936  21.307  1.00  0.00    -0.081 Cl
HETATM   12  C   LIG     1      24.209  22.784  23.079  1.00  0.00     0.050 A 
HETATM   13  C   LIG     1      25.557  22.755  23.449  1.00  0.00     0.035 A 
HETATM   14  C   LIG     1      26.551  22.763  22.466  1.00  0.00     0.026 A 
HETATM   15 CL   LIG     1      26.002  22.725  25.145  1.00  0.00    -0.084 Cl
HETATM   16  C   LIG     1      26.199  22.788  21.114  1.00  0.00     0.041 A 
ENDBRANCH   8   9
ENDBRANCH   1   8
BRANCH   2  17
HETATM   17  O   LIG     1      26.607  21.608  17.894  1.00  0.00    -0.358 OA
HETATM   18  H   LIG     1      26.998  22.031  18.727  1.00  0.00     0.217 HD
ENDBRANCH   2  17
TORSDOF 3
ENDMDL
MODEL 18
REMARK VINA RESULT:      -4.2     15.903     16.766
REMARK  3 active torsions:
REMARK  status: ('A' for Active; 'I' for Inactive)
REMARK    1  A    between atoms: C_8  and  O_9 
REMARK    2  A    between atoms: O_9  and  C_10 
REMARK    3  A    between atoms: C_11  and  O_12 
ROOT
HETATM    1  C   LIG     1      25.305  22.699  24.466  1.00  0.00     0.109 A 
HETATM    2  C   LIG     1      25.177  23.272  25.746  1.00  0.00     0.101 A 
HETATM    3  C   LIG     1      26.170  24.132  26.230  1.00  0.00     0.063 A 
HETATM    4  C   LIG     1      27.294  24.423  25.451  1.00  0.00     0.036 A 
HETATM    5 CL   LIG     1      28.533  25.503  26.066  1.00  0.00    -0.084 Cl
HETATM    6  C   LIG     1      27.432  23.848  24.185  1.00  0.00     0.027 A 
HETATM    7  C   LIG     1      26.447  22.988  23.694  1.00  0.00     0.042 A 
ENDROOT
BRANCH   1   8
HETATM    8  O   LIG     1      24.303  21.832  24.001  1.00  0.00    -0.306 OA
BRANCH   8   9
HETATM    9  C   LIG     1      23.971  21.647  22.654  1.00  0.00     0.098 A 
HETATM   10  C   LIG     1      24.460  20.552  21.912  1.00  0.00     0.069 A 
HETATM   11 CL   LIG     1      25.580  19.393  22.615  1.00  0.00    -0.081 Cl
HETATM   12  C   LIG     1      24.097  20.406  20.567  1.00  0.00     0.050 A 
HETATM   13  C   LIG     1      23.264  21.348  19.955  1.00  0.00     0.035 A 
HETATM   14  C   LIG     1      22.800  22.447  20.683  1.00  0.00     0.026 A 
HETATM   15 CL   LIG     1      22.815  21.160  18.270  1.00  0.00    -0.084 Cl
HETATM   16  C   LIG     1      23.158  22.599  22.026  1.00  0.00     0.041 A 
ENDBRANCH   8   9
ENDBRANCH   1   8
BRANCH   2  17
HETATM   17  O   LIG     1      24.069  23.001  26.548  1.00  0.00    -0.358 OA
HETATM   18  H   LIG     1      23.523  23.736  26.980  1.00  0.00     0.217 HD
ENDBRANCH   2  17
TORSDOF 3
ENDMDL
MODEL 19
REMARK VINA RESULT:      -4.2     17.700     19.930
REMARK  3 active torsions:
REMARK  status: ('A' for Active; 'I' for Inactive)
REMARK    1  A    between atoms: C_8  and  O_9 
REMARK    2  A    between atoms: O_9  and  C_10 
REMARK    3  A    between atoms: C_11  and  O_12 
ROOT
HETATM    1  C   LIG     1      19.861  21.494  33.046  1.00  0.00     0.109 A 
HETATM    2  C   LIG     1      19.421  22.335  32.006  1.00  0.00     0.101 A 
HETATM    3  C   LIG     1      19.363  21.853  30.693  1.00  0.00     0.063 A 
HETATM    4  C   LIG     1      19.744  20.538  30.406  1.00  0.00     0.036 A 
HETATM    5 CL   LIG     1      19.666  19.942  28.757  1.00  0.00    -0.084 Cl
HETATM    6  C   LIG     1      20.192  19.702  31.432  1.00  0.00     0.027 A 
HETATM    7  C   LIG     1      20.255  20.175  32.744  1.00  0.00     0.042 A 
ENDROOT
BRANCH   1   8
HETATM    8  O   LIG     1      19.921  21.998  34.355  1.00  0.00    -0.306 OA
BRANCH   8   9
HETATM    9  C   LIG     1      21.106  22.263  35.053  1.00  0.00     0.098 A 
HETATM   10  C   LIG     1      21.481  21.516  36.189  1.00  0.00     0.069 A 
HETATM   11 CL   LIG     1      20.443  20.257  36.844  1.00  0.00    -0.081 Cl
HETATM   12  C   LIG     1      22.678  21.814  36.852  1.00  0.00     0.050 A 
HETATM   13  C   LIG     1      23.494  22.855  36.401  1.00  0.00     0.035 A 
HETATM   14  C   LIG     1      23.110  23.612  35.290  1.00  0.00     0.026 A 
HETATM   15 CL   LIG     1      24.991  23.224  37.238  1.00  0.00    -0.084 Cl
HETATM   16  C   LIG     1      21.917  23.321  34.623  1.00  0.00     0.041 A 
ENDBRANCH   8   9
ENDBRANCH   1   8
BRANCH   2  17
HETATM   17  O   LIG     1      19.035  23.651  32.260  1.00  0.00    -0.358 OA
HETATM   18  H   LIG     1      18.485  23.905  33.071  1.00  0.00     0.217 HD
ENDBRANCH   2  17
TORSDOF 3
ENDMDL
MODEL 20
REMARK VINA RESULT:      -4.2     16.863     18.087
REMARK  3 active torsions:
REMARK  status: ('A' for Active; 'I' for Inactive)
REMARK    1  A    between atoms: C_8  and  O_9 
REMARK    2  A    between atoms: O_9  and  C_10 
REMARK    3  A    between atoms: C_11  and  O_12 
ROOT
HETATM    1  C   LIG     1      24.798  20.655  18.532  1.00  0.00     0.109 A 
HETATM    2  C   LIG     1      25.121  19.668  17.582  1.00  0.00     0.101 A 
HETATM    3  C   LIG     1      24.110  19.077  16.816  1.00  0.00     0.063 A 
HETATM    4  C   LIG     1      22.776  19.458  16.991  1.00  0.00     0.036 A 
HETATM    5 CL   LIG     1      21.515  18.712  16.025  1.00  0.00    -0.084 Cl
HETATM    6  C   LIG     1      22.447  20.428  17.941  1.00  0.00     0.027 A 
HETATM    7  C   LIG     1      23.449  21.023  18.711  1.00  0.00     0.042 A 
ENDROOT
BRANCH   1   8
HETATM    8  O   LIG     1      25.825  21.230  19.298  1.00  0.00    -0.306 OA
BRANCH   8   9
HETATM    9  C   LIG     1      26.255  22.558  19.185  1.00  0.00     0.098 A 
HETATM   10  C   LIG     1      25.836  23.554  20.092  1.00  0.00     0.069 A 
HETATM   11 CL   LIG     1      24.686  23.202  21.375  1.00  0.00    -0.081 Cl
HETATM   12  C   LIG     1      26.297  24.868  19.942  1.00  0.00     0.050 A 
HETATM   13  C   LIG     1      27.157  25.198  18.891  1.00  0.00     0.035 A 
HETATM   14  C   LIG     1      27.552  24.217  17.977  1.00  0.00     0.026 A 
HETATM   15 CL   LIG     1      27.729  26.847  18.708  1.00  0.00    -0.084 Cl
HETATM   16  C   LIG     1      27.097  22.903  18.121  1.00  0.00     0.041 A 
ENDBRANCH   8   9
ENDBRANCH   1   8
BRANCH   2  17
HETATM   17  O   LIG     1      26.441  19.266  17.384  1.00  0.00    -0.358 OA
HETATM   18  H   LIG     1      27.185  19.520  18.023  1.00  0.00     0.217 HD
ENDBRANCH   2  17
TORSDOF 3
ENDMDL
