MODEL 1
REMARK VINA RESULT:      -4.8      0.000      0.000
REMARK  1 active torsions:
REMARK  status: ('A' for Active; 'I' for Inactive)
REMARK    1  A    between atoms: C_6  and  C_7 
ROOT
HETATM    1 CL   LIG     1      29.207  26.096  22.529  1.00  0.00    -0.084 Cl
HETATM    2  C   LIG     1      28.065  25.056  21.698  1.00  0.00     0.037 A 
HETATM    3  C   LIG     1      27.760  23.796  22.219  1.00  0.00     0.048 A 
HETATM    4  C   LIG     1      26.851  22.961  21.561  1.00  0.00     0.048 A 
HETATM    5 CL   LIG     1      26.499  21.381  22.256  1.00  0.00    -0.083 Cl
HETATM    6  C   LIG     1      26.237  23.390  20.367  1.00  0.00     0.021 A 
HETATM    7  C   LIG     1      26.547  24.663  19.847  1.00  0.00     0.048 A 
HETATM    8 CL   LIG     1      25.810  25.250  18.360  1.00  0.00    -0.083 Cl
HETATM    9  C   LIG     1      27.459  25.487  20.515  1.00  0.00     0.048 A 
ENDROOT
BRANCH   6  10
HETATM   10  C   LIG     1      25.274  22.513  19.667  1.00  0.00     0.021 A 
HETATM   11  C   LIG     1      25.683  21.761  18.547  1.00  0.00     0.048 A 
HETATM   12  C   LIG     1      24.767  20.934  17.889  1.00  0.00     0.048 A 
HETATM   13 CL   LIG     1      27.337  21.837  17.947  1.00  0.00    -0.083 Cl
HETATM   14  C   LIG     1      23.446  20.848  18.336  1.00  0.00     0.037 A 
HETATM   15  C   LIG     1      23.035  21.591  19.445  1.00  0.00     0.048 A 
HETATM   16 CL   LIG     1      22.304  19.808  17.505  1.00  0.00    -0.084 Cl
HETATM   17  C   LIG     1      23.940  22.422  20.114  1.00  0.00     0.048 A 
HETATM   18 CL   LIG     1      23.376  23.340  21.506  1.00  0.00    -0.083 Cl
ENDBRANCH   6  10
TORSDOF 1
ENDMDL
MODEL 2
REMARK VINA RESULT:      -4.8      0.032      2.171
REMARK  1 active torsions:
REMARK  status: ('A' for Active; 'I' for Inactive)
REMARK    1  A    between atoms: C_6  and  C_7 
ROOT
HETATM    1 CL   LIG     1      29.190  26.147  22.530  1.00  0.00    -0.084 Cl
HETATM    2  C   LIG     1      28.058  25.096  21.699  1.00  0.00     0.037 A 
HETATM    3  C   LIG     1      27.763  23.835  22.220  1.00  0.00     0.048 A 
HETATM    4  C   LIG     1      26.861  22.992  21.562  1.00  0.00     0.048 A 
HETATM    5 CL   LIG     1      26.520  21.411  22.258  1.00  0.00    -0.083 Cl
HETATM    6  C   LIG     1      26.247  23.415  20.366  1.00  0.00     0.021 A 
HETATM    7  C   LIG     1      26.548  24.689  19.845  1.00  0.00     0.048 A 
HETATM    8 CL   LIG     1      25.809  25.268  18.355  1.00  0.00    -0.083 Cl
HETATM    9  C   LIG     1      27.452  25.521  20.513  1.00  0.00     0.048 A 
ENDROOT
BRANCH   6  10
HETATM   10  C   LIG     1      25.292  22.529  19.665  1.00  0.00     0.021 A 
HETATM   11  C   LIG     1      23.957  22.433  20.109  1.00  0.00     0.048 A 
HETATM   12  C   LIG     1      23.059  21.593  19.441  1.00  0.00     0.048 A 
HETATM   13 CL   LIG     1      23.384  23.350  21.499  1.00  0.00    -0.083 Cl
HETATM   14  C   LIG     1      23.476  20.849  18.335  1.00  0.00     0.037 A 
HETATM   15  C   LIG     1      24.798  20.942  17.891  1.00  0.00     0.048 A 
HETATM   16 CL   LIG     1      22.343  19.800  17.504  1.00  0.00    -0.084 Cl
HETATM   17  C   LIG     1      25.708  21.777  18.548  1.00  0.00     0.048 A 
HETATM   18 CL   LIG     1      27.362  21.860  17.952  1.00  0.00    -0.083 Cl
ENDBRANCH   6  10
TORSDOF 1
ENDMDL
MODEL 3
REMARK VINA RESULT:      -4.8      0.011      5.625
REMARK  1 active torsions:
REMARK  status: ('A' for Active; 'I' for Inactive)
REMARK    1  A    between atoms: C_6  and  C_7 
ROOT
HETATM    1 CL   LIG     1      22.294  19.805  17.504  1.00  0.00    -0.084 Cl
HETATM    2  C   LIG     1      23.436  20.845  18.334  1.00  0.00     0.037 A 
HETATM    3  C   LIG     1      23.026  21.591  19.442  1.00  0.00     0.048 A 
HETATM    4  C   LIG     1      23.932  22.423  20.108  1.00  0.00     0.048 A 
HETATM    5 CL   LIG     1      23.368  23.344  21.499  1.00  0.00    -0.083 Cl
HETATM    6  C   LIG     1      25.266  22.512  19.662  1.00  0.00     0.021 A 
HETATM    7  C   LIG     1      25.675  21.756  18.544  1.00  0.00     0.048 A 
HETATM    8 CL   LIG     1      27.329  21.827  17.945  1.00  0.00    -0.083 Cl
HETATM    9  C   LIG     1      24.758  20.929  17.887  1.00  0.00     0.048 A 
ENDROOT
BRANCH   6  10
HETATM   10  C   LIG     1      26.230  23.388  20.362  1.00  0.00     0.021 A 
HETATM   11  C   LIG     1      26.543  24.659  19.838  1.00  0.00     0.048 A 
HETATM   12  C   LIG     1      27.456  25.483  20.505  1.00  0.00     0.048 A 
HETATM   13 CL   LIG     1      25.809  25.243  18.347  1.00  0.00    -0.083 Cl
HETATM   14  C   LIG     1      28.060  25.054  21.689  1.00  0.00     0.037 A 
HETATM   15  C   LIG     1      27.752  23.796  22.214  1.00  0.00     0.048 A 
HETATM   16 CL   LIG     1      29.202  26.095  22.519  1.00  0.00    -0.084 Cl
HETATM   17  C   LIG     1      26.841  22.961  21.558  1.00  0.00     0.048 A 
HETATM   18 CL   LIG     1      26.485  21.384  22.256  1.00  0.00    -0.083 Cl
ENDBRANCH   6  10
TORSDOF 1
ENDMDL
MODEL 4
REMARK VINA RESULT:      -4.8      0.012      5.768
REMARK  1 active torsions:
REMARK  status: ('A' for Active; 'I' for Inactive)
REMARK    1  A    between atoms: C_6  and  C_7 
ROOT
HETATM    1 CL   LIG     1      22.303  19.807  17.503  1.00  0.00    -0.084 Cl
HETATM    2  C   LIG     1      23.445  20.850  18.333  1.00  0.00     0.037 A 
HETATM    3  C   LIG     1      24.767  20.932  17.889  1.00  0.00     0.048 A 
HETATM    4  C   LIG     1      25.682  21.761  18.546  1.00  0.00     0.048 A 
HETATM    5 CL   LIG     1      27.338  21.831  17.950  1.00  0.00    -0.083 Cl
HETATM    6  C   LIG     1      25.272  22.518  19.662  1.00  0.00     0.021 A 
HETATM    7  C   LIG     1      23.936  22.432  20.104  1.00  0.00     0.048 A 
HETATM    8 CL   LIG     1      23.369  23.356  21.492  1.00  0.00    -0.083 Cl
HETATM    9  C   LIG     1      23.031  21.598  19.438  1.00  0.00     0.048 A 
ENDROOT
BRANCH   6  10
HETATM   10  C   LIG     1      26.233  23.398  20.361  1.00  0.00     0.021 A 
HETATM   11  C   LIG     1      26.846  22.970  21.556  1.00  0.00     0.048 A 
HETATM   12  C   LIG     1      27.755  23.807  22.213  1.00  0.00     0.048 A 
HETATM   13 CL   LIG     1      26.493  21.393  22.254  1.00  0.00    -0.083 Cl
HETATM   14  C   LIG     1      28.060  25.066  21.690  1.00  0.00     0.037 A 
HETATM   15  C   LIG     1      27.456  25.494  20.505  1.00  0.00     0.048 A 
HETATM   16 CL   LIG     1      29.201  26.108  22.519  1.00  0.00    -0.084 Cl
HETATM   17  C   LIG     1      26.545  24.668  19.837  1.00  0.00     0.048 A 
HETATM   18 CL   LIG     1      25.809  25.252  18.348  1.00  0.00    -0.083 Cl
ENDBRANCH   6  10
TORSDOF 1
ENDMDL
MODEL 5
REMARK VINA RESULT:      -4.8      0.016      5.694
REMARK  1 active torsions:
REMARK  status: ('A' for Active; 'I' for Inactive)
REMARK    1  A    between atoms: C_6  and  C_7 
ROOT
HETATM    1 CL   LIG     1      22.299  19.805  17.502  1.00  0.00    -0.084 Cl
HETATM    2  C   LIG     1      23.441  20.846  18.333  1.00  0.00     0.037 A 
HETATM    3  C   LIG     1      24.765  20.920  17.894  1.00  0.00     0.048 A 
HETATM    4  C   LIG     1      25.681  21.747  18.552  1.00  0.00     0.048 A 
HETATM    5 CL   LIG     1      27.340  21.808  17.963  1.00  0.00    -0.083 Cl
HETATM    6  C   LIG     1      25.269  22.511  19.663  1.00  0.00     0.021 A 
HETATM    7  C   LIG     1      23.932  22.433  20.100  1.00  0.00     0.048 A 
HETATM    8 CL   LIG     1      23.363  23.365  21.481  1.00  0.00    -0.083 Cl
HETATM    9  C   LIG     1      23.026  21.600  19.433  1.00  0.00     0.048 A 
ENDROOT
BRANCH   6  10
HETATM   10  C   LIG     1      26.232  23.389  20.362  1.00  0.00     0.021 A 
HETATM   11  C   LIG     1      26.544  24.660  19.838  1.00  0.00     0.048 A 
HETATM   12  C   LIG     1      27.456  25.486  20.505  1.00  0.00     0.048 A 
HETATM   13 CL   LIG     1      25.810  25.242  18.347  1.00  0.00    -0.083 Cl
HETATM   14  C   LIG     1      28.059  25.058  21.689  1.00  0.00     0.037 A 
HETATM   15  C   LIG     1      27.753  23.800  22.214  1.00  0.00     0.048 A 
HETATM   16 CL   LIG     1      29.201  26.100  22.519  1.00  0.00    -0.084 Cl
HETATM   17  C   LIG     1      26.843  22.963  21.559  1.00  0.00     0.048 A 
HETATM   18 CL   LIG     1      26.490  21.386  22.258  1.00  0.00    -0.083 Cl
ENDBRANCH   6  10
TORSDOF 1
ENDMDL
MODEL 6
REMARK VINA RESULT:      -4.8      0.042      3.070
REMARK  1 active torsions:
REMARK  status: ('A' for Active; 'I' for Inactive)
REMARK    1  A    between atoms: C_6  and  C_7 
ROOT
HETATM    1 CL   LIG     1      29.185  26.069  22.530  1.00  0.00    -0.084 Cl
HETATM    2  C   LIG     1      28.040  25.034  21.698  1.00  0.00     0.037 A 
HETATM    3  C   LIG     1      27.446  25.462  20.508  1.00  0.00     0.048 A 
HETATM    4  C   LIG     1      26.532  24.641  19.840  1.00  0.00     0.048 A 
HETATM    5 CL   LIG     1      25.810  25.224  18.343  1.00  0.00    -0.083 Cl
HETATM    6  C   LIG     1      26.205  23.375  20.367  1.00  0.00     0.021 A 
HETATM    7  C   LIG     1      26.807  22.949  21.568  1.00  0.00     0.048 A 
HETATM    8 CL   LIG     1      26.436  21.377  22.272  1.00  0.00    -0.083 Cl
HETATM    9  C   LIG     1      27.720  23.780  22.226  1.00  0.00     0.048 A 
ENDROOT
BRANCH   6  10
HETATM   10  C   LIG     1      25.240  22.502  19.666  1.00  0.00     0.021 A 
HETATM   11  C   LIG     1      23.902  22.428  20.104  1.00  0.00     0.048 A 
HETATM   12  C   LIG     1      22.993  21.599  19.436  1.00  0.00     0.048 A 
HETATM   13 CL   LIG     1      23.336  23.361  21.486  1.00  0.00    -0.083 Cl
HETATM   14  C   LIG     1      23.405  20.843  18.336  1.00  0.00     0.037 A 
HETATM   15  C   LIG     1      24.730  20.913  17.897  1.00  0.00     0.048 A 
HETATM   16 CL   LIG     1      22.259  19.807  17.504  1.00  0.00    -0.084 Cl
HETATM   17  C   LIG     1      25.649  21.738  18.555  1.00  0.00     0.048 A 
HETATM   18 CL   LIG     1      27.308  21.792  17.966  1.00  0.00    -0.083 Cl
ENDBRANCH   6  10
TORSDOF 1
ENDMDL
MODEL 7
REMARK VINA RESULT:      -4.8      0.014      5.699
REMARK  1 active torsions:
REMARK  status: ('A' for Active; 'I' for Inactive)
REMARK    1  A    between atoms: C_6  and  C_7 
ROOT
HETATM    1 CL   LIG     1      22.293  19.806  17.501  1.00  0.00    -0.084 Cl
HETATM    2  C   LIG     1      23.436  20.847  18.331  1.00  0.00     0.037 A 
HETATM    3  C   LIG     1      23.024  21.597  19.435  1.00  0.00     0.048 A 
HETATM    4  C   LIG     1      23.930  22.429  20.101  1.00  0.00     0.048 A 
HETATM    5 CL   LIG     1      23.364  23.355  21.488  1.00  0.00    -0.083 Cl
HETATM    6  C   LIG     1      25.265  22.513  19.658  1.00  0.00     0.021 A 
HETATM    7  C   LIG     1      25.675  21.753  18.544  1.00  0.00     0.048 A 
HETATM    8 CL   LIG     1      27.332  21.820  17.949  1.00  0.00    -0.083 Cl
HETATM    9  C   LIG     1      24.759  20.926  17.887  1.00  0.00     0.048 A 
ENDROOT
BRANCH   6  10
HETATM   10  C   LIG     1      26.229  23.390  20.358  1.00  0.00     0.021 A 
HETATM   11  C   LIG     1      26.841  22.960  21.553  1.00  0.00     0.048 A 
HETATM   12  C   LIG     1      27.752  23.794  22.211  1.00  0.00     0.048 A 
HETATM   13 CL   LIG     1      26.484  21.382  22.250  1.00  0.00    -0.083 Cl
HETATM   14  C   LIG     1      28.059  25.052  21.689  1.00  0.00     0.037 A 
HETATM   15  C   LIG     1      27.457  25.483  20.504  1.00  0.00     0.048 A 
HETATM   16 CL   LIG     1      29.203  26.091  22.520  1.00  0.00    -0.084 Cl
HETATM   17  C   LIG     1      26.544  24.660  19.836  1.00  0.00     0.048 A 
HETATM   18 CL   LIG     1      25.809  25.247  18.347  1.00  0.00    -0.083 Cl
ENDBRANCH   6  10
TORSDOF 1
ENDMDL
MODEL 8
REMARK VINA RESULT:      -4.8      0.188      2.177
REMARK  1 active torsions:
REMARK  status: ('A' for Active; 'I' for Inactive)
REMARK    1  A    between atoms: C_6  and  C_7 
ROOT
HETATM    1 CL   LIG     1      29.348  26.012  22.733  1.00  0.00    -0.084 Cl
HETATM    2  C   LIG     1      28.200  25.006  21.868  1.00  0.00     0.037 A 
HETATM    3  C   LIG     1      27.570  25.493  20.721  1.00  0.00     0.048 A 
HETATM    4  C   LIG     1      26.654  24.696  20.027  1.00  0.00     0.048 A 
HETATM    5 CL   LIG     1      25.884  25.353  18.585  1.00  0.00    -0.083 Cl
HETATM    6  C   LIG     1      26.363  23.395  20.485  1.00  0.00     0.021 A 
HETATM    7  C   LIG     1      27.002  22.909  21.643  1.00  0.00     0.048 A 
HETATM    8 CL   LIG     1      26.677  21.292  22.260  1.00  0.00    -0.083 Cl
HETATM    9  C   LIG     1      27.916  23.717  22.328  1.00  0.00     0.048 A 
ENDROOT
BRANCH   6  10
HETATM   10  C   LIG     1      25.396  22.546  19.756  1.00  0.00     0.021 A 
HETATM   11  C   LIG     1      25.806  21.820  18.619  1.00  0.00     0.048 A 
HETATM   12  C   LIG     1      24.886  21.019  17.934  1.00  0.00     0.048 A 
HETATM   13 CL   LIG     1      27.464  21.895  18.032  1.00  0.00    -0.083 Cl
HETATM   14  C   LIG     1      23.561  20.934  18.370  1.00  0.00     0.037 A 
HETATM   15  C   LIG     1      23.150  21.652  19.496  1.00  0.00     0.048 A 
HETATM   16 CL   LIG     1      22.415  19.927  17.504  1.00  0.00    -0.084 Cl
HETATM   17  C   LIG     1      24.058  22.457  20.191  1.00  0.00     0.048 A 
HETATM   18 CL   LIG     1      23.493  23.343  21.604  1.00  0.00    -0.083 Cl
ENDBRANCH   6  10
TORSDOF 1
ENDMDL
MODEL 9
REMARK VINA RESULT:      -4.7      2.341      2.841
REMARK  1 active torsions:
REMARK  status: ('A' for Active; 'I' for Inactive)
REMARK    1  A    between atoms: C_6  and  C_7 
ROOT
HETATM    1 CL   LIG     1      27.886  26.370  18.636  1.00  0.00    -0.084 Cl
HETATM    2  C   LIG     1      26.986  25.030  19.323  1.00  0.00     0.037 A 
HETATM    3  C   LIG     1      27.178  24.671  20.659  1.00  0.00     0.048 A 
HETATM    4  C   LIG     1      26.464  23.604  21.213  1.00  0.00     0.048 A 
HETATM    5 CL   LIG     1      26.739  23.188  22.902  1.00  0.00    -0.083 Cl
HETATM    6  C   LIG     1      25.546  22.884  20.422  1.00  0.00     0.021 A 
HETATM    7  C   LIG     1      25.356  23.251  19.074  1.00  0.00     0.048 A 
HETATM    8 CL   LIG     1      24.222  22.388  18.040  1.00  0.00    -0.083 Cl
HETATM    9  C   LIG     1      26.077  24.321  18.533  1.00  0.00     0.048 A 
ENDROOT
BRANCH   6  10
HETATM   10  C   LIG     1      24.786  21.755  21.000  1.00  0.00     0.021 A 
HETATM   11  C   LIG     1      25.310  20.447  20.949  1.00  0.00     0.048 A 
HETATM   12  C   LIG     1      24.587  19.383  21.499  1.00  0.00     0.048 A 
HETATM   13 CL   LIG     1      26.869  20.113  20.203  1.00  0.00    -0.083 Cl
HETATM   14  C   LIG     1      23.346  19.609  22.099  1.00  0.00     0.037 A 
HETATM   15  C   LIG     1      22.822  20.903  22.153  1.00  0.00     0.048 A 
HETATM   16 CL   LIG     1      22.446  18.269  22.786  1.00  0.00    -0.084 Cl
HETATM   17  C   LIG     1      23.534  21.977  21.608  1.00  0.00     0.048 A 
HETATM   18 CL   LIG     1      22.833  23.590  21.699  1.00  0.00    -0.083 Cl
ENDBRANCH   6  10
TORSDOF 1
ENDMDL
MODEL 10
REMARK VINA RESULT:      -4.7      2.336      3.477
REMARK  1 active torsions:
REMARK  status: ('A' for Active; 'I' for Inactive)
REMARK    1  A    between atoms: C_6  and  C_7 
ROOT
HETATM    1 CL   LIG     1      27.892  26.391  18.646  1.00  0.00    -0.084 Cl
HETATM    2  C   LIG     1      26.994  25.046  19.327  1.00  0.00     0.037 A 
HETATM    3  C   LIG     1      27.187  24.682  20.662  1.00  0.00     0.048 A 
HETATM    4  C   LIG     1      26.475  23.611  21.211  1.00  0.00     0.048 A 
HETATM    5 CL   LIG     1      26.752  23.189  22.898  1.00  0.00    -0.083 Cl
HETATM    6  C   LIG     1      25.558  22.893  20.417  1.00  0.00     0.021 A 
HETATM    7  C   LIG     1      25.367  23.266  19.071  1.00  0.00     0.048 A 
HETATM    8 CL   LIG     1      24.233  22.405  18.034  1.00  0.00    -0.083 Cl
HETATM    9  C   LIG     1      26.086  24.339  18.534  1.00  0.00     0.048 A 
ENDROOT
BRANCH   6  10
HETATM   10  C   LIG     1      24.800  21.760  20.992  1.00  0.00     0.021 A 
HETATM   11  C   LIG     1      23.546  21.980  21.598  1.00  0.00     0.048 A 
HETATM   12  C   LIG     1      22.835  20.904  22.139  1.00  0.00     0.048 A 
HETATM   13 CL   LIG     1      22.844  23.592  21.693  1.00  0.00    -0.083 Cl
HETATM   14  C   LIG     1      23.360  19.611  22.083  1.00  0.00     0.037 A 
HETATM   15  C   LIG     1      24.602  19.387  21.483  1.00  0.00     0.048 A 
HETATM   16 CL   LIG     1      22.461  18.267  22.764  1.00  0.00    -0.084 Cl
HETATM   17  C   LIG     1      25.325  20.454  20.937  1.00  0.00     0.048 A 
HETATM   18 CL   LIG     1      26.886  20.123  20.192  1.00  0.00    -0.083 Cl
ENDBRANCH   6  10
TORSDOF 1
ENDMDL
MODEL 11
REMARK VINA RESULT:      -4.7      2.344      3.845
REMARK  1 active torsions:
REMARK  status: ('A' for Active; 'I' for Inactive)
REMARK    1  A    between atoms: C_6  and  C_7 
ROOT
HETATM    1 CL   LIG     1      27.936  26.344  18.687  1.00  0.00    -0.084 Cl
HETATM    2  C   LIG     1      27.023  25.003  19.355  1.00  0.00     0.037 A 
HETATM    3  C   LIG     1      26.105  24.316  18.557  1.00  0.00     0.048 A 
HETATM    4  C   LIG     1      25.374  23.246  19.083  1.00  0.00     0.048 A 
HETATM    5 CL   LIG     1      24.227  22.411  18.039  1.00  0.00    -0.083 Cl
HETATM    6  C   LIG     1      25.562  22.857  20.425  1.00  0.00     0.021 A 
HETATM    7  C   LIG     1      26.491  23.553  21.225  1.00  0.00     0.048 A 
HETATM    8 CL   LIG     1      26.766  23.109  22.906  1.00  0.00    -0.083 Cl
HETATM    9  C   LIG     1      27.215  24.621  20.686  1.00  0.00     0.048 A 
ENDROOT
BRANCH   6  10
HETATM   10  C   LIG     1      24.793  21.726  20.988  1.00  0.00     0.021 A 
HETATM   11  C   LIG     1      23.545  21.953  21.603  1.00  0.00     0.048 A 
HETATM   12  C   LIG     1      22.823  20.879  22.134  1.00  0.00     0.048 A 
HETATM   13 CL   LIG     1      22.863  23.572  21.723  1.00  0.00    -0.083 Cl
HETATM   14  C   LIG     1      23.332  19.580  22.058  1.00  0.00     0.037 A 
HETATM   15  C   LIG     1      24.568  19.349  21.449  1.00  0.00     0.048 A 
HETATM   16 CL   LIG     1      22.419  18.239  22.726  1.00  0.00    -0.084 Cl
HETATM   17  C   LIG     1      25.301  20.413  20.914  1.00  0.00     0.048 A 
HETATM   18 CL   LIG     1      26.854  20.074  20.157  1.00  0.00    -0.083 Cl
ENDBRANCH   6  10
TORSDOF 1
ENDMDL
MODEL 12
REMARK VINA RESULT:      -4.6      3.123      6.056
REMARK  1 active torsions:
REMARK  status: ('A' for Active; 'I' for Inactive)
REMARK    1  A    between atoms: C_6  and  C_7 
ROOT
HETATM    1 CL   LIG     1      23.262  19.709  17.235  1.00  0.00    -0.084 Cl
HETATM    2  C   LIG     1      23.531  20.197  18.898  1.00  0.00     0.037 A 
HETATM    3  C   LIG     1      24.460  19.513  19.686  1.00  0.00     0.048 A 
HETATM    4  C   LIG     1      24.680  19.896  21.012  1.00  0.00     0.048 A 
HETATM    5 CL   LIG     1      25.861  19.003  21.966  1.00  0.00    -0.083 Cl
HETATM    6  C   LIG     1      23.962  20.978  21.561  1.00  0.00     0.021 A 
HETATM    7  C   LIG     1      23.026  21.665  20.761  1.00  0.00     0.048 A 
HETATM    8 CL   LIG     1      22.102  23.024  21.395  1.00  0.00    -0.083 Cl
HETATM    9  C   LIG     1      22.816  21.270  19.436  1.00  0.00     0.048 A 
ENDROOT
BRANCH   6  10
HETATM   10  C   LIG     1      24.189  21.390  22.963  1.00  0.00     0.021 A 
HETATM   11  C   LIG     1      25.153  22.374  23.265  1.00  0.00     0.048 A 
HETATM   12  C   LIG     1      25.363  22.759  24.594  1.00  0.00     0.048 A 
HETATM   13 CL   LIG     1      26.110  23.139  22.001  1.00  0.00    -0.083 Cl
HETATM   14  C   LIG     1      24.623  22.175  25.624  1.00  0.00     0.037 A 
HETATM   15  C   LIG     1      23.666  21.200  25.330  1.00  0.00     0.048 A 
HETATM   16 CL   LIG     1      24.893  22.664  27.287  1.00  0.00    -0.084 Cl
HETATM   17  C   LIG     1      23.445  20.804  24.006  1.00  0.00     0.048 A 
HETATM   18 CL   LIG     1      22.230  19.571  23.685  1.00  0.00    -0.083 Cl
ENDBRANCH   6  10
TORSDOF 1
ENDMDL
MODEL 13
REMARK VINA RESULT:      -4.6      3.151      6.254
REMARK  1 active torsions:
REMARK  status: ('A' for Active; 'I' for Inactive)
REMARK    1  A    between atoms: C_6  and  C_7 
ROOT
HETATM    1 CL   LIG     1      23.331  19.679  17.178  1.00  0.00    -0.084 Cl
HETATM    2  C   LIG     1      23.571  20.151  18.850  1.00  0.00     0.037 A 
HETATM    3  C   LIG     1      24.474  19.449  19.652  1.00  0.00     0.048 A 
HETATM    4  C   LIG     1      24.670  19.820  20.986  1.00  0.00     0.048 A 
HETATM    5 CL   LIG     1      25.819  18.905  21.958  1.00  0.00    -0.083 Cl
HETATM    6  C   LIG     1      23.954  20.907  21.527  1.00  0.00     0.021 A 
HETATM    7  C   LIG     1      23.045  21.612  20.713  1.00  0.00     0.048 A 
HETATM    8 CL   LIG     1      22.125  22.979  21.337  1.00  0.00    -0.083 Cl
HETATM    9  C   LIG     1      22.858  21.230  19.381  1.00  0.00     0.048 A 
ENDROOT
BRANCH   6  10
HETATM   10  C   LIG     1      24.157  21.306  22.937  1.00  0.00     0.021 A 
HETATM   11  C   LIG     1      23.397  20.706  23.961  1.00  0.00     0.048 A 
HETATM   12  C   LIG     1      23.594  21.088  25.292  1.00  0.00     0.048 A 
HETATM   13 CL   LIG     1      22.190  19.473  23.604  1.00  0.00    -0.083 Cl
HETATM   14  C   LIG     1      24.541  22.062  25.614  1.00  0.00     0.037 A 
HETATM   15  C   LIG     1      25.298  22.660  24.603  1.00  0.00     0.048 A 
HETATM   16 CL   LIG     1      24.781  22.535  27.286  1.00  0.00    -0.084 Cl
HETATM   17  C   LIG     1      25.112  22.288  23.267  1.00  0.00     0.048 A 
HETATM   18 CL   LIG     1      26.089  23.071  22.029  1.00  0.00    -0.083 Cl
ENDBRANCH   6  10
TORSDOF 1
ENDMDL
MODEL 14
REMARK VINA RESULT:      -4.2     14.307     15.775
REMARK  1 active torsions:
REMARK  status: ('A' for Active; 'I' for Inactive)
REMARK    1  A    between atoms: C_6  and  C_7 
ROOT
HETATM    1 CL   LIG     1      29.710  32.823  31.790  1.00  0.00    -0.084 Cl
HETATM    2  C   LIG     1      29.166  31.362  32.596  1.00  0.00     0.037 A 
HETATM    3  C   LIG     1      28.069  31.408  33.459  1.00  0.00     0.048 A 
HETATM    4  C   LIG     1      27.630  30.247  34.105  1.00  0.00     0.048 A 
HETATM    5 CL   LIG     1      26.243  30.354  35.185  1.00  0.00    -0.083 Cl
HETATM    6  C   LIG     1      28.296  29.025  33.886  1.00  0.00     0.021 A 
HETATM    7  C   LIG     1      29.402  28.985  33.012  1.00  0.00     0.048 A 
HETATM    8 CL   LIG     1      30.271  27.485  32.701  1.00  0.00    -0.083 Cl
HETATM    9  C   LIG     1      29.831  30.153  32.374  1.00  0.00     0.048 A 
ENDROOT
BRANCH   6  10
HETATM   10  C   LIG     1      27.838  27.793  34.564  1.00  0.00     0.021 A 
HETATM   11  C   LIG     1      26.924  26.930  33.926  1.00  0.00     0.048 A 
HETATM   12  C   LIG     1      26.494  25.767  34.573  1.00  0.00     0.048 A 
HETATM   13 CL   LIG     1      26.300  27.282  32.317  1.00  0.00    -0.083 Cl
HETATM   14  C   LIG     1      26.965  25.454  35.850  1.00  0.00     0.037 A 
HETATM   15  C   LIG     1      27.872  26.306  36.487  1.00  0.00     0.048 A 
HETATM   16 CL   LIG     1      26.421  23.993  36.654  1.00  0.00    -0.084 Cl
HETATM   17  C   LIG     1      28.311  27.473  35.852  1.00  0.00     0.048 A 
HETATM   18 CL   LIG     1      29.453  28.515  36.695  1.00  0.00    -0.083 Cl
ENDBRANCH   6  10
TORSDOF 1
ENDMDL
MODEL 15
REMARK VINA RESULT:      -4.2      2.280      4.165
REMARK  1 active torsions:
REMARK  status: ('A' for Active; 'I' for Inactive)
REMARK    1  A    between atoms: C_6  and  C_7 
ROOT
HETATM    1 CL   LIG     1      29.607  24.651  15.551  1.00  0.00    -0.084 Cl
HETATM    2  C   LIG     1      28.537  24.072  16.815  1.00  0.00     0.037 A 
HETATM    3  C   LIG     1      27.772  24.979  17.552  1.00  0.00     0.048 A 
HETATM    4  C   LIG     1      26.917  24.525  18.561  1.00  0.00     0.048 A 
HETATM    5 CL   LIG     1      25.972  25.705  19.464  1.00  0.00    -0.083 Cl
HETATM    6  C   LIG     1      26.826  23.146  18.839  1.00  0.00     0.021 A 
HETATM    7  C   LIG     1      27.600  22.235  18.092  1.00  0.00     0.048 A 
HETATM    8 CL   LIG     1      27.525  20.502  18.396  1.00  0.00    -0.083 Cl
HETATM    9  C   LIG     1      28.451  22.704  17.085  1.00  0.00     0.048 A 
ENDROOT
BRANCH   6  10
HETATM   10  C   LIG     1      25.923  22.657  19.904  1.00  0.00     0.021 A 
HETATM   11  C   LIG     1      24.600  22.281  19.596  1.00  0.00     0.048 A 
HETATM   12  C   LIG     1      23.752  21.820  20.608  1.00  0.00     0.048 A 
HETATM   13 CL   LIG     1      23.979  22.377  17.951  1.00  0.00    -0.083 Cl
HETATM   14  C   LIG     1      24.208  21.730  21.926  1.00  0.00     0.037 A 
HETATM   15  C   LIG     1      25.519  22.101  22.237  1.00  0.00     0.048 A 
HETATM   16 CL   LIG     1      23.138  21.151  23.189  1.00  0.00    -0.084 Cl
HETATM   17  C   LIG     1      26.379  22.564  21.235  1.00  0.00     0.048 A 
HETATM   18 CL   LIG     1      28.021  23.021  21.675  1.00  0.00    -0.083 Cl
ENDBRANCH   6  10
TORSDOF 1
ENDMDL
MODEL 16
REMARK VINA RESULT:      -4.2      2.275      4.122
REMARK  1 active torsions:
REMARK  status: ('A' for Active; 'I' for Inactive)
REMARK    1  A    between atoms: C_6  and  C_7 
ROOT
HETATM    1 CL   LIG     1      29.608  24.684  15.575  1.00  0.00    -0.084 Cl
HETATM    2  C   LIG     1      28.532  24.100  16.831  1.00  0.00     0.037 A 
HETATM    3  C   LIG     1      27.753  25.001  17.559  1.00  0.00     0.048 A 
HETATM    4  C   LIG     1      26.892  24.542  18.562  1.00  0.00     0.048 A 
HETATM    5 CL   LIG     1      25.930  25.717  19.454  1.00  0.00    -0.083 Cl
HETATM    6  C   LIG     1      26.809  23.163  18.841  1.00  0.00     0.021 A 
HETATM    7  C   LIG     1      27.597  22.258  18.102  1.00  0.00     0.048 A 
HETATM    8 CL   LIG     1      27.532  20.525  18.409  1.00  0.00    -0.083 Cl
HETATM    9  C   LIG     1      28.454  22.731  17.103  1.00  0.00     0.048 A 
ENDROOT
BRANCH   6  10
HETATM   10  C   LIG     1      25.901  22.670  19.899  1.00  0.00     0.021 A 
HETATM   11  C   LIG     1      26.347  22.584  21.234  1.00  0.00     0.048 A 
HETATM   12  C   LIG     1      25.483  22.116  22.230  1.00  0.00     0.048 A 
HETATM   13 CL   LIG     1      27.983  23.054  21.686  1.00  0.00    -0.083 Cl
HETATM   14  C   LIG     1      24.179  21.734  21.910  1.00  0.00     0.037 A 
HETATM   15  C   LIG     1      23.731  21.818  20.589  1.00  0.00     0.048 A 
HETATM   16 CL   LIG     1      23.102  21.149  23.165  1.00  0.00    -0.084 Cl
HETATM   17  C   LIG     1      24.583  22.283  19.582  1.00  0.00     0.048 A 
HETATM   18 CL   LIG     1      23.975  22.370  17.932  1.00  0.00    -0.083 Cl
ENDBRANCH   6  10
TORSDOF 1
ENDMDL
MODEL 17
REMARK VINA RESULT:      -4.1      3.600      5.518
REMARK  1 active torsions:
REMARK  status: ('A' for Active; 'I' for Inactive)
REMARK    1  A    between atoms: C_6  and  C_7 
ROOT
HETATM    1 CL   LIG     1      26.669  23.121  18.252  1.00  0.00    -0.084 Cl
HETATM    2  C   LIG     1      25.829  22.423  19.624  1.00  0.00     0.037 A 
HETATM    3  C   LIG     1      24.524  22.823  19.922  1.00  0.00     0.048 A 
HETATM    4  C   LIG     1      23.849  22.271  21.015  1.00  0.00     0.048 A 
HETATM    5 CL   LIG     1      22.205  22.807  21.352  1.00  0.00    -0.083 Cl
HETATM    6  C   LIG     1      24.485  21.307  21.822  1.00  0.00     0.021 A 
HETATM    7  C   LIG     1      25.801  20.906  21.516  1.00  0.00     0.048 A 
HETATM    8 CL   LIG     1      26.643  19.704  22.490  1.00  0.00    -0.083 Cl
HETATM    9  C   LIG     1      26.465  21.467  20.421  1.00  0.00     0.048 A 
ENDROOT
BRANCH   6  10
HETATM   10  C   LIG     1      23.776  20.718  22.979  1.00  0.00     0.021 A 
HETATM   11  C   LIG     1      23.888  21.308  24.255  1.00  0.00     0.048 A 
HETATM   12  C   LIG     1      23.215  20.745  25.345  1.00  0.00     0.048 A 
HETATM   13 CL   LIG     1      24.864  22.749  24.516  1.00  0.00    -0.083 Cl
HETATM   14  C   LIG     1      22.432  19.601  25.178  1.00  0.00     0.037 A 
HETATM   15  C   LIG     1      22.317  19.013  23.915  1.00  0.00     0.048 A 
HETATM   16 CL   LIG     1      21.592  18.903  26.550  1.00  0.00    -0.084 Cl
HETATM   17  C   LIG     1      22.984  19.564  22.816  1.00  0.00     0.048 A 
HETATM   18 CL   LIG     1      22.809  18.787  21.245  1.00  0.00    -0.083 Cl
ENDBRANCH   6  10
TORSDOF 1
ENDMDL
MODEL 18
REMARK VINA RESULT:      -4.1      3.500      5.012
REMARK  1 active torsions:
REMARK  status: ('A' for Active; 'I' for Inactive)
REMARK    1  A    between atoms: C_6  and  C_7 
ROOT
HETATM    1 CL   LIG     1      27.077  24.211  19.053  1.00  0.00    -0.084 Cl
HETATM    2  C   LIG     1      26.151  23.257  20.197  1.00  0.00     0.037 A 
HETATM    3  C   LIG     1      24.800  23.539  20.412  1.00  0.00     0.048 A 
HETATM    4  C   LIG     1      24.056  22.782  21.323  1.00  0.00     0.048 A 
HETATM    5 CL   LIG     1      22.356  23.176  21.560  1.00  0.00    -0.083 Cl
HETATM    6  C   LIG     1      24.670  21.729  22.030  1.00  0.00     0.021 A 
HETATM    7  C   LIG     1      26.034  21.448  21.809  1.00  0.00     0.048 A 
HETATM    8 CL   LIG     1      26.851  20.143  22.664  1.00  0.00    -0.083 Cl
HETATM    9  C   LIG     1      26.766  22.213  20.895  1.00  0.00     0.048 A 
ENDROOT
BRANCH   6  10
HETATM   10  C   LIG     1      23.890  20.923  22.994  1.00  0.00     0.021 A 
HETATM   11  C   LIG     1      23.163  19.798  22.554  1.00  0.00     0.048 A 
HETATM   12  C   LIG     1      22.427  19.040  23.472  1.00  0.00     0.048 A 
HETATM   13 CL   LIG     1      23.156  19.316  20.861  1.00  0.00    -0.083 Cl
HETATM   14  C   LIG     1      22.408  19.392  24.823  1.00  0.00     0.037 A 
HETATM   15  C   LIG     1      23.127  20.506  25.265  1.00  0.00     0.048 A 
HETATM   16 CL   LIG     1      21.483  18.436  25.966  1.00  0.00    -0.084 Cl
HETATM   17  C   LIG     1      23.868  21.273  24.359  1.00  0.00     0.048 A 
HETATM   18 CL   LIG     1      24.757  22.668  24.963  1.00  0.00    -0.083 Cl
ENDBRANCH   6  10
TORSDOF 1
ENDMDL
MODEL 19
REMARK VINA RESULT:      -4.1      3.514      5.760
REMARK  1 active torsions:
REMARK  status: ('A' for Active; 'I' for Inactive)
REMARK    1  A    between atoms: C_6  and  C_7 
ROOT
HETATM    1 CL   LIG     1      21.561  18.484  26.080  1.00  0.00    -0.084 Cl
HETATM    2  C   LIG     1      22.453  19.433  24.906  1.00  0.00     0.037 A 
HETATM    3  C   LIG     1      22.441  19.068  23.558  1.00  0.00     0.048 A 
HETATM    4  C   LIG     1      23.151  19.820  22.616  1.00  0.00     0.048 A 
HETATM    5 CL   LIG     1      23.105  19.321  20.927  1.00  0.00    -0.083 Cl
HETATM    6  C   LIG     1      23.883  20.952  23.026  1.00  0.00     0.021 A 
HETATM    7  C   LIG     1      23.891  21.316  24.388  1.00  0.00     0.048 A 
HETATM    8 CL   LIG     1      24.789  22.721  24.956  1.00  0.00    -0.083 Cl
HETATM    9  C   LIG     1      23.178  20.554  25.319  1.00  0.00     0.048 A 
ENDROOT
BRANCH   6  10
HETATM   10  C   LIG     1      24.635  21.753  22.036  1.00  0.00     0.021 A 
HETATM   11  C   LIG     1      25.992  21.468  21.776  1.00  0.00     0.048 A 
HETATM   12  C   LIG     1      26.697  22.229  20.838  1.00  0.00     0.048 A 
HETATM   13 CL   LIG     1      26.831  20.165  22.612  1.00  0.00    -0.083 Cl
HETATM   14  C   LIG     1      26.066  23.272  20.156  1.00  0.00     0.037 A 
HETATM   15  C   LIG     1      24.721  23.558  20.409  1.00  0.00     0.048 A 
HETATM   16 CL   LIG     1      26.958  24.221  18.982  1.00  0.00    -0.084 Cl
HETATM   17  C   LIG     1      24.003  22.805  21.344  1.00  0.00     0.048 A 
HETATM   18 CL   LIG     1      22.312  23.203  21.630  1.00  0.00    -0.083 Cl
ENDBRANCH   6  10
TORSDOF 1
ENDMDL
MODEL 20
REMARK VINA RESULT:      -4.1      3.513      5.993
REMARK  1 active torsions:
REMARK  status: ('A' for Active; 'I' for Inactive)
REMARK    1  A    between atoms: C_6  and  C_7 
ROOT
HETATM    1 CL   LIG     1      21.542  18.469  26.070  1.00  0.00    -0.084 Cl
HETATM    2  C   LIG     1      22.445  19.393  24.882  1.00  0.00     0.037 A 
HETATM    3  C   LIG     1      22.441  19.001  23.542  1.00  0.00     0.048 A 
HETATM    4  C   LIG     1      23.158  19.732  22.590  1.00  0.00     0.048 A 
HETATM    5 CL   LIG     1      23.124  19.199  20.911  1.00  0.00    -0.083 Cl
HETATM    6  C   LIG     1      23.891  20.871  22.982  1.00  0.00     0.021 A 
HETATM    7  C   LIG     1      23.890  21.262  24.336  1.00  0.00     0.048 A 
HETATM    8 CL   LIG     1      24.787  22.677  24.882  1.00  0.00    -0.083 Cl
HETATM    9  C   LIG     1      23.169  20.521  25.278  1.00  0.00     0.048 A 
ENDROOT
BRANCH   6  10
HETATM   10  C   LIG     1      24.651  21.650  21.981  1.00  0.00     0.021 A 
HETATM   11  C   LIG     1      24.018  22.677  21.251  1.00  0.00     0.048 A 
HETATM   12  C   LIG     1      24.743  23.410  20.306  1.00  0.00     0.048 A 
HETATM   13 CL   LIG     1      22.318  23.064  21.500  1.00  0.00    -0.083 Cl
HETATM   14  C   LIG     1      26.093  23.132  20.080  1.00  0.00     0.037 A 
HETATM   15  C   LIG     1      26.726  22.116  20.802  1.00  0.00     0.048 A 
HETATM   16 CL   LIG     1      26.994  24.057  18.893  1.00  0.00    -0.084 Cl
HETATM   17  C   LIG     1      26.013  21.374  21.750  1.00  0.00     0.048 A 
HETATM   18 CL   LIG     1      26.853  20.103  22.634  1.00  0.00    -0.083 Cl
ENDBRANCH   6  10
TORSDOF 1
ENDMDL
