REMARK  1 active torsions:
REMARK  status: ('A' for Active; 'I' for Inactive)
REMARK    1  A    between atoms: C_6  and  C_7 
ROOT
HETATM    1 CL   LIG     1       5.292  -0.284  -0.156  1.00  0.00    -0.084 Cl
HETATM    2  C   LIG     1       3.541  -0.190  -0.104  1.00  0.00     0.037 A 
HETATM    3  C   LIG     1       2.830  -0.919   0.852  1.00  0.00     0.048 A 
HETATM    4  C   LIG     1       1.434  -0.849   0.899  1.00  0.00     0.048 A 
HETATM    5 CL   LIG     1       0.581  -1.786   2.122  1.00  0.00    -0.083 Cl
HETATM    6  C   LIG     1       0.738  -0.040  -0.022  1.00  0.00     0.021 A 
HETATM    7  C   LIG     1       1.461   0.694  -0.984  1.00  0.00     0.048 A 
HETATM    8 CL   LIG     1       0.643   1.721  -2.158  1.00  0.00    -0.083 Cl
HETATM    9  C   LIG     1       2.857   0.614  -1.020  1.00  0.00     0.048 A 
ENDROOT
BRANCH   6  10
HETATM   10  C   LIG     1      -0.738   0.040   0.022  1.00  0.00     0.021 A 
HETATM   11  C   LIG     1      -1.520  -0.862  -0.728  1.00  0.00     0.048 A 
HETATM   12  C   LIG     1      -2.916  -0.781  -0.682  1.00  0.00     0.048 A 
HETATM   13 CL   LIG     1      -0.778  -2.102  -1.734  1.00  0.00    -0.083 Cl
HETATM   14  C   LIG     1      -3.541   0.190   0.104  1.00  0.00     0.037 A 
HETATM   15  C   LIG     1      -2.771   1.086   0.850  1.00  0.00     0.048 A 
HETATM   16 CL   LIG     1      -5.292   0.284   0.156  1.00  0.00    -0.084 Cl
HETATM   17  C   LIG     1      -1.374   1.017   0.814  1.00  0.00     0.048 A 
HETATM   18 CL   LIG     1      -0.446   2.168   1.770  1.00  0.00    -0.083 Cl
ENDBRANCH   6  10
TORSDOF 1
