MODEL 1
REMARK VINA RESULT:      -6.7      0.000      0.000
REMARK  2 active torsions:
REMARK  status: ('A' for Active; 'I' for Inactive)
REMARK    1  A    between atoms: C_2  and  C_4 
REMARK    2  A    between atoms: C_7  and  N_8 
REMARK       I    between atoms: N_8  and  C_9 
REMARK       I    between atoms: C_9  and  N_10 
ROOT
HETATM    1  C   LIG     1      16.228  36.932  22.528  1.00  0.00    -0.055 A 
HETATM    2  C   LIG     1      14.962  36.677  21.976  1.00  0.00     0.010 A 
HETATM    3  C   LIG     1      14.764  35.580  21.132  1.00  0.00     0.030 A 
HETATM    4  C   LIG     1      15.822  34.709  20.835  1.00  0.00     0.036 A 
HETATM    5  C   LIG     1      17.095  34.974  21.369  1.00  0.00     0.030 A 
HETATM    6  C   LIG     1      17.294  36.071  22.212  1.00  0.00     0.010 A 
ENDROOT
BRANCH   4   7
HETATM    7  N   LIG     1      15.596  33.601  19.945  1.00  0.00    -0.309 N 
HETATM    8  C   LIG     1      15.429  33.741  18.523  1.00  0.00     0.322 C 
HETATM    9  N   LIG     1      14.843  32.682  17.737  1.00  0.00    -0.343 N 
HETATM   10  O   LIG     1      15.828  34.792  17.950  1.00  0.00    -0.247 OA
HETATM   11  C   LIG     1      14.773  32.827  16.279  1.00  0.00     0.154 C 
HETATM   12  C   LIG     1      14.283  31.492  18.387  1.00  0.00     0.154 C 
HETATM   13  H   LIG     1      15.658  32.640  20.349  1.00  0.00     0.170 HD
ENDBRANCH   4   7
BRANCH   1  14
HETATM   14  C   LIG     1      16.431  38.126  23.443  1.00  0.00     0.010 C 
HETATM   15  C   LIG     1      17.091  37.706  24.761  1.00  0.00     0.015 C 
HETATM   16  C   LIG     1      17.242  39.225  22.746  1.00  0.00     0.015 C 
ENDBRANCH   1  14
TORSDOF 2
ENDMDL
MODEL 2
REMARK VINA RESULT:      -6.5      6.120      8.154
REMARK  2 active torsions:
REMARK  status: ('A' for Active; 'I' for Inactive)
REMARK    1  A    between atoms: C_2  and  C_4 
REMARK    2  A    between atoms: C_7  and  N_8 
REMARK       I    between atoms: N_8  and  C_9 
REMARK       I    between atoms: C_9  and  N_10 
ROOT
HETATM    1  C   LIG     1      14.988  32.298  15.959  1.00  0.00    -0.055 A 
HETATM    2  C   LIG     1      15.807  33.402  16.250  1.00  0.00     0.010 A 
HETATM    3  C   LIG     1      16.880  33.730  15.415  1.00  0.00     0.030 A 
HETATM    4  C   LIG     1      17.146  32.971  14.267  1.00  0.00     0.036 A 
HETATM    5  C   LIG     1      16.343  31.854  13.985  1.00  0.00     0.030 A 
HETATM    6  C   LIG     1      15.271  31.524  14.819  1.00  0.00     0.010 A 
ENDROOT
BRANCH   4   7
HETATM    7  N   LIG     1      18.270  33.316  13.437  1.00  0.00    -0.309 N 
HETATM    8  C   LIG     1      18.191  34.226  12.325  1.00  0.00     0.322 C 
HETATM    9  N   LIG     1      19.221  34.252  11.313  1.00  0.00    -0.343 N 
HETATM   10  O   LIG     1      17.223  35.033  12.248  1.00  0.00    -0.247 OA
HETATM   11  C   LIG     1      19.150  35.255  10.245  1.00  0.00     0.154 C 
HETATM   12  C   LIG     1      20.303  33.264  11.324  1.00  0.00     0.154 C 
HETATM   13  H   LIG     1      19.208  32.961  13.725  1.00  0.00     0.170 HD
ENDBRANCH   4   7
BRANCH   1  14
HETATM   14  C   LIG     1      13.828  31.953  16.873  1.00  0.00     0.010 C 
HETATM   15  C   LIG     1      13.000  30.796  16.302  1.00  0.00     0.015 C 
HETATM   16  C   LIG     1      14.316  31.633  18.291  1.00  0.00     0.015 C 
ENDBRANCH   1  14
TORSDOF 2
ENDMDL
MODEL 3
REMARK VINA RESULT:      -6.4      1.965      6.775
REMARK  2 active torsions:
REMARK  status: ('A' for Active; 'I' for Inactive)
REMARK    1  A    between atoms: C_2  and  C_4 
REMARK    2  A    between atoms: C_7  and  N_8 
REMARK       I    between atoms: N_8  and  C_9 
REMARK       I    between atoms: C_9  and  N_10 
ROOT
HETATM    1  C   LIG     1      14.445  32.033  17.711  1.00  0.00    -0.055 A 
HETATM    2  C   LIG     1      14.783  33.326  17.276  1.00  0.00     0.010 A 
HETATM    3  C   LIG     1      15.408  34.226  18.145  1.00  0.00     0.030 A 
HETATM    4  C   LIG     1      15.720  33.849  19.458  1.00  0.00     0.036 A 
HETATM    5  C   LIG     1      15.364  32.565  19.903  1.00  0.00     0.030 A 
HETATM    6  C   LIG     1      14.738  31.664  19.037  1.00  0.00     0.010 A 
ENDROOT
BRANCH   4   7
HETATM    7  N   LIG     1      16.342  34.803  20.338  1.00  0.00    -0.309 N 
HETATM    8  C   LIG     1      15.614  35.625  21.267  1.00  0.00     0.322 C 
HETATM    9  N   LIG     1      16.214  36.804  21.844  1.00  0.00    -0.343 N 
HETATM   10  O   LIG     1      14.443  35.295  21.605  1.00  0.00    -0.247 OA
HETATM   11  C   LIG     1      15.472  37.564  22.855  1.00  0.00     0.154 C 
HETATM   12  C   LIG     1      17.532  37.265  21.397  1.00  0.00     0.154 C 
HETATM   13  H   LIG     1      17.386  34.820  20.368  1.00  0.00     0.170 HD
ENDBRANCH   4   7
BRANCH   1  14
HETATM   14  C   LIG     1      13.767  31.066  16.760  1.00  0.00     0.010 C 
HETATM   15  C   LIG     1      12.302  31.451  16.531  1.00  0.00     0.015 C 
HETATM   16  C   LIG     1      14.527  30.973  15.431  1.00  0.00     0.015 C 
ENDBRANCH   1  14
TORSDOF 2
ENDMDL
MODEL 4
REMARK VINA RESULT:      -6.4      6.060      8.273
REMARK  2 active torsions:
REMARK  status: ('A' for Active; 'I' for Inactive)
REMARK    1  A    between atoms: C_2  and  C_4 
REMARK    2  A    between atoms: C_7  and  N_8 
REMARK       I    between atoms: N_8  and  C_9 
REMARK       I    between atoms: C_9  and  N_10 
ROOT
HETATM    1  C   LIG     1      14.977  31.784  15.819  1.00  0.00    -0.055 A 
HETATM    2  C   LIG     1      15.037  31.087  14.601  1.00  0.00     0.010 A 
HETATM    3  C   LIG     1      15.853  31.542  13.562  1.00  0.00     0.030 A 
HETATM    4  C   LIG     1      16.636  32.694  13.723  1.00  0.00     0.036 A 
HETATM    5  C   LIG     1      16.563  33.406  14.933  1.00  0.00     0.030 A 
HETATM    6  C   LIG     1      15.746  32.952  15.972  1.00  0.00     0.010 A 
ENDROOT
BRANCH   4   7
HETATM    7  N   LIG     1      17.450  33.154  12.630  1.00  0.00    -0.309 N 
HETATM    8  C   LIG     1      18.841  33.501  12.760  1.00  0.00     0.322 C 
HETATM    9  N   LIG     1      19.504  34.297  11.756  1.00  0.00    -0.343 N 
HETATM   10  O   LIG     1      19.497  33.078  13.753  1.00  0.00    -0.247 OA
HETATM   11  C   LIG     1      20.943  34.553  11.881  1.00  0.00     0.154 C 
HETATM   12  C   LIG     1      18.746  34.882  10.646  1.00  0.00     0.154 C 
HETATM   13  H   LIG     1      17.028  33.137  11.675  1.00  0.00     0.170 HD
ENDBRANCH   4   7
BRANCH   1  14
HETATM   14  C   LIG     1      14.087  31.279  16.939  1.00  0.00     0.010 C 
HETATM   15  C   LIG     1      14.500  31.883  18.287  1.00  0.00     0.015 C 
HETATM   16  C   LIG     1      12.609  31.557  16.641  1.00  0.00     0.015 C 
ENDBRANCH   1  14
TORSDOF 2
ENDMDL
MODEL 5
REMARK VINA RESULT:      -6.0      2.557      7.952
REMARK  2 active torsions:
REMARK  status: ('A' for Active; 'I' for Inactive)
REMARK    1  A    between atoms: C_2  and  C_4 
REMARK    2  A    between atoms: C_7  and  N_8 
REMARK       I    between atoms: N_8  and  C_9 
REMARK       I    between atoms: C_9  and  N_10 
ROOT
HETATM    1  C   LIG     1      14.477  30.927  15.268  1.00  0.00    -0.055 A 
HETATM    2  C   LIG     1      15.545  31.835  15.178  1.00  0.00     0.010 A 
HETATM    3  C   LIG     1      15.751  32.790  16.178  1.00  0.00     0.030 A 
HETATM    4  C   LIG     1      14.905  32.846  17.295  1.00  0.00     0.036 A 
HETATM    5  C   LIG     1      13.823  31.953  17.378  1.00  0.00     0.030 A 
HETATM    6  C   LIG     1      13.615  30.999  16.377  1.00  0.00     0.010 A 
ENDROOT
BRANCH   4   7
HETATM    7  N   LIG     1      15.126  33.853  18.299  1.00  0.00    -0.309 N 
HETATM    8  C   LIG     1      15.585  33.564  19.631  1.00  0.00     0.322 C 
HETATM    9  N   LIG     1      15.434  34.528  20.694  1.00  0.00    -0.343 N 
HETATM   10  O   LIG     1      16.155  32.462  19.868  1.00  0.00    -0.247 OA
HETATM   11  C   LIG     1      15.997  34.232  22.016  1.00  0.00     0.154 C 
HETATM   12  C   LIG     1      14.691  35.773  20.472  1.00  0.00     0.154 C 
HETATM   13  H   LIG     1      15.041  34.851  18.006  1.00  0.00     0.170 HD
ENDBRANCH   4   7
BRANCH   1  14
HETATM   14  C   LIG     1      14.264  29.896  14.176  1.00  0.00     0.010 C 
HETATM   15  C   LIG     1      15.456  28.937  14.081  1.00  0.00     0.015 C 
HETATM   16  C   LIG     1      12.954  29.127  14.388  1.00  0.00     0.015 C 
ENDBRANCH   1  14
TORSDOF 2
ENDMDL
MODEL 6
REMARK VINA RESULT:      -6.0      6.219      8.639
REMARK  2 active torsions:
REMARK  status: ('A' for Active; 'I' for Inactive)
REMARK    1  A    between atoms: C_2  and  C_4 
REMARK    2  A    between atoms: C_7  and  N_8 
REMARK       I    between atoms: N_8  and  C_9 
REMARK       I    between atoms: C_9  and  N_10 
ROOT
HETATM    1  C   LIG     1      15.187  31.782  15.617  1.00  0.00    -0.055 A 
HETATM    2  C   LIG     1      14.010  31.462  16.314  1.00  0.00     0.010 A 
HETATM    3  C   LIG     1      13.162  30.452  15.850  1.00  0.00     0.030 A 
HETATM    4  C   LIG     1      13.481  29.731  14.690  1.00  0.00     0.036 A 
HETATM    5  C   LIG     1      14.647  30.063  13.978  1.00  0.00     0.030 A 
HETATM    6  C   LIG     1      15.494  31.074  14.441  1.00  0.00     0.010 A 
ENDROOT
BRANCH   4   7
HETATM    7  N   LIG     1      12.580  28.712  14.221  1.00  0.00    -0.309 N 
HETATM    8  C   LIG     1      13.000  27.563  13.463  1.00  0.00     0.322 C 
HETATM    9  N   LIG     1      12.049  26.785  12.707  1.00  0.00    -0.343 N 
HETATM   10  O   LIG     1      14.213  27.213  13.484  1.00  0.00    -0.247 OA
HETATM   11  C   LIG     1      12.501  25.570  12.022  1.00  0.00     0.154 C 
HETATM   12  C   LIG     1      10.655  27.223  12.586  1.00  0.00     0.154 C 
HETATM   13  H   LIG     1      11.587  28.765  14.537  1.00  0.00     0.170 HD
ENDBRANCH   4   7
BRANCH   1  14
HETATM   14  C   LIG     1      16.098  32.880  16.131  1.00  0.00     0.010 C 
HETATM   15  C   LIG     1      17.033  33.385  15.026  1.00  0.00     0.015 C 
HETATM   16  C   LIG     1      15.288  34.033  16.737  1.00  0.00     0.015 C 
ENDBRANCH   1  14
TORSDOF 2
ENDMDL
MODEL 7
REMARK VINA RESULT:      -5.5      6.950      9.607
REMARK  2 active torsions:
REMARK  status: ('A' for Active; 'I' for Inactive)
REMARK    1  A    between atoms: C_2  and  C_4 
REMARK    2  A    between atoms: C_7  and  N_8 
REMARK       I    between atoms: N_8  and  C_9 
REMARK       I    between atoms: C_9  and  N_10 
ROOT
HETATM    1  C   LIG     1      14.494  30.864  15.271  1.00  0.00    -0.055 A 
HETATM    2  C   LIG     1      13.228  30.256  15.231  1.00  0.00     0.010 A 
HETATM    3  C   LIG     1      13.028  29.079  14.505  1.00  0.00     0.030 A 
HETATM    4  C   LIG     1      14.091  28.477  13.816  1.00  0.00     0.036 A 
HETATM    5  C   LIG     1      15.353  29.094  13.835  1.00  0.00     0.030 A 
HETATM    6  C   LIG     1      15.554  30.272  14.561  1.00  0.00     0.010 A 
ENDROOT
BRANCH   4   7
HETATM    7  N   LIG     1      13.853  27.278  13.056  1.00  0.00    -0.309 N 
HETATM    8  C   LIG     1      14.715  26.818  12.000  1.00  0.00     0.322 C 
HETATM    9  N   LIG     1      14.254  25.847  11.037  1.00  0.00    -0.343 N 
HETATM   10  O   LIG     1      15.900  27.248  11.933  1.00  0.00    -0.247 OA
HETATM   11  C   LIG     1      15.192  25.337  10.031  1.00  0.00     0.154 C 
HETATM   12  C   LIG     1      12.856  25.405  11.032  1.00  0.00     0.154 C 
HETATM   13  H   LIG     1      13.066  26.664  13.362  1.00  0.00     0.170 HD
ENDBRANCH   4   7
BRANCH   1  14
HETATM   14  C   LIG     1      14.698  32.141  16.063  1.00  0.00     0.010 C 
HETATM   15  C   LIG     1      14.314  31.946  17.534  1.00  0.00     0.015 C 
HETATM   16  C   LIG     1      16.139  32.649  15.933  1.00  0.00     0.015 C 
ENDBRANCH   1  14
TORSDOF 2
ENDMDL
MODEL 8
REMARK VINA RESULT:      -5.3      5.668      9.321
REMARK  2 active torsions:
REMARK  status: ('A' for Active; 'I' for Inactive)
REMARK    1  A    between atoms: C_2  and  C_4 
REMARK    2  A    between atoms: C_7  and  N_8 
REMARK       I    between atoms: N_8  and  C_9 
REMARK       I    between atoms: C_9  and  N_10 
ROOT
HETATM    1  C   LIG     1      19.624  34.094  11.503  1.00  0.00    -0.055 A 
HETATM    2  C   LIG     1      18.295  34.550  11.520  1.00  0.00     0.010 A 
HETATM    3  C   LIG     1      17.515  34.421  12.673  1.00  0.00     0.030 A 
HETATM    4  C   LIG     1      18.050  33.849  13.836  1.00  0.00     0.036 A 
HETATM    5  C   LIG     1      19.372  33.372  13.816  1.00  0.00     0.030 A 
HETATM    6  C   LIG     1      20.153  33.499  12.663  1.00  0.00     0.010 A 
ENDROOT
BRANCH   4   7
HETATM    7  N   LIG     1      17.219  33.708  15.001  1.00  0.00    -0.309 N 
HETATM    8  C   LIG     1      16.301  32.618  15.200  1.00  0.00     0.322 C 
HETATM    9  N   LIG     1      15.240  32.709  16.174  1.00  0.00    -0.343 N 
HETATM   10  O   LIG     1      16.443  31.555  14.533  1.00  0.00    -0.247 OA
HETATM   11  C   LIG     1      14.382  31.543  16.409  1.00  0.00     0.154 C 
HETATM   12  C   LIG     1      14.991  33.963  16.891  1.00  0.00     0.154 C 
HETATM   13  H   LIG     1      17.369  34.383  15.784  1.00  0.00     0.170 HD
ENDBRANCH   4   7
BRANCH   1  14
HETATM   14  C   LIG     1      20.460  34.239  10.246  1.00  0.00     0.010 C 
HETATM   15  C   LIG     1      21.329  35.500  10.303  1.00  0.00     0.015 C 
HETATM   16  C   LIG     1      21.317  32.990  10.005  1.00  0.00     0.015 C 
ENDBRANCH   1  14
TORSDOF 2
ENDMDL
MODEL 9
REMARK VINA RESULT:      -5.2      4.304      6.442
REMARK  2 active torsions:
REMARK  status: ('A' for Active; 'I' for Inactive)
REMARK    1  A    between atoms: C_2  and  C_4 
REMARK    2  A    between atoms: C_7  and  N_8 
REMARK       I    between atoms: N_8  and  C_9 
REMARK       I    between atoms: C_9  and  N_10 
ROOT
HETATM    1  C   LIG     1      18.601  38.305  19.460  1.00  0.00    -0.055 A 
HETATM    2  C   LIG     1      18.342  39.123  20.572  1.00  0.00     0.010 A 
HETATM    3  C   LIG     1      17.910  38.565  21.779  1.00  0.00     0.030 A 
HETATM    4  C   LIG     1      17.743  37.178  21.903  1.00  0.00     0.036 A 
HETATM    5  C   LIG     1      17.981  36.359  20.786  1.00  0.00     0.030 A 
HETATM    6  C   LIG     1      18.411  36.916  19.578  1.00  0.00     0.010 A 
ENDROOT
BRANCH   4   7
HETATM    7  N   LIG     1      17.275  36.631  23.149  1.00  0.00    -0.309 N 
HETATM    8  C   LIG     1      17.839  36.966  24.429  1.00  0.00     0.322 C 
HETATM    9  N   LIG     1      17.604  36.134  25.585  1.00  0.00    -0.343 N 
HETATM   10  O   LIG     1      18.526  38.019  24.550  1.00  0.00    -0.247 OA
HETATM   11  C   LIG     1      18.121  36.559  26.890  1.00  0.00     0.154 C 
HETATM   12  C   LIG     1      16.894  34.858  25.453  1.00  0.00     0.154 C 
HETATM   13  H   LIG     1      16.417  36.037  23.122  1.00  0.00     0.170 HD
ENDBRANCH   4   7
BRANCH   1  14
HETATM   14  C   LIG     1      19.069  38.923  18.156  1.00  0.00     0.010 C 
HETATM   15  C   LIG     1      18.120  40.037  17.701  1.00  0.00     0.015 C 
HETATM   16  C   LIG     1      20.508  39.440  18.273  1.00  0.00     0.015 C 
ENDBRANCH   1  14
TORSDOF 2
ENDMDL
MODEL 10
REMARK VINA RESULT:      -5.1      4.075      5.222
REMARK  2 active torsions:
REMARK  status: ('A' for Active; 'I' for Inactive)
REMARK    1  A    between atoms: C_2  and  C_4 
REMARK    2  A    between atoms: C_7  and  N_8 
REMARK       I    between atoms: N_8  and  C_9 
REMARK       I    between atoms: C_9  and  N_10 
ROOT
HETATM    1  C   LIG     1      17.524  36.900  24.135  1.00  0.00    -0.055 A 
HETATM    2  C   LIG     1      17.110  36.109  23.050  1.00  0.00     0.010 A 
HETATM    3  C   LIG     1      17.188  36.600  21.743  1.00  0.00     0.030 A 
HETATM    4  C   LIG     1      17.695  37.883  21.493  1.00  0.00     0.036 A 
HETATM    5  C   LIG     1      18.090  38.685  22.577  1.00  0.00     0.030 A 
HETATM    6  C   LIG     1      18.011  38.196  23.884  1.00  0.00     0.010 A 
ENDROOT
BRANCH   4   7
HETATM    7  N   LIG     1      17.743  38.372  20.140  1.00  0.00    -0.309 N 
HETATM    8  C   LIG     1      18.954  38.468  19.369  1.00  0.00     0.322 C 
HETATM    9  N   LIG     1      19.018  39.295  18.188  1.00  0.00    -0.343 N 
HETATM   10  O   LIG     1      19.967  37.798  19.715  1.00  0.00    -0.247 OA
HETATM   11  C   LIG     1      20.242  39.296  17.380  1.00  0.00     0.154 C 
HETATM   12  C   LIG     1      17.892  40.158  17.820  1.00  0.00     0.154 C 
HETATM   13  H   LIG     1      16.834  38.571  19.668  1.00  0.00     0.170 HD
ENDBRANCH   4   7
BRANCH   1  14
HETATM   14  C   LIG     1      17.434  36.357  25.548  1.00  0.00     0.010 C 
HETATM   15  C   LIG     1      17.361  34.826  25.548  1.00  0.00     0.015 C 
HETATM   16  C   LIG     1      18.603  36.853  26.407  1.00  0.00     0.015 C 
ENDBRANCH   1  14
TORSDOF 2
ENDMDL
MODEL 11
REMARK VINA RESULT:      -4.5     17.836     19.604
REMARK  2 active torsions:
REMARK  status: ('A' for Active; 'I' for Inactive)
REMARK    1  A    between atoms: C_2  and  C_4 
REMARK    2  A    between atoms: C_7  and  N_8 
REMARK       I    between atoms: N_8  and  C_9 
REMARK       I    between atoms: C_9  and  N_10 
ROOT
HETATM    1  C   LIG     1      27.358  27.596  31.348  1.00  0.00    -0.055 A 
HETATM    2  C   LIG     1      26.403  27.049  32.221  1.00  0.00     0.010 A 
HETATM    3  C   LIG     1      26.401  27.392  33.576  1.00  0.00     0.030 A 
HETATM    4  C   LIG     1      27.342  28.300  34.083  1.00  0.00     0.036 A 
HETATM    5  C   LIG     1      28.312  28.832  33.217  1.00  0.00     0.030 A 
HETATM    6  C   LIG     1      28.316  28.488  31.862  1.00  0.00     0.010 A 
ENDROOT
BRANCH   4   7
HETATM    7  N   LIG     1      27.332  28.619  35.486  1.00  0.00    -0.309 N 
HETATM    8  C   LIG     1      26.712  29.797  36.032  1.00  0.00     0.322 C 
HETATM    9  N   LIG     1      27.043  30.263  37.358  1.00  0.00    -0.343 N 
HETATM   10  O   LIG     1      25.846  30.416  35.354  1.00  0.00    -0.247 OA
HETATM   11  C   LIG     1      26.323  31.414  37.912  1.00  0.00     0.154 C 
HETATM   12  C   LIG     1      28.113  29.622  38.128  1.00  0.00     0.154 C 
HETATM   13  H   LIG     1      27.709  27.902  36.145  1.00  0.00     0.170 HD
ENDBRANCH   4   7
BRANCH   1  14
HETATM   14  C   LIG     1      27.350  27.215  29.880  1.00  0.00     0.010 C 
HETATM   15  C   LIG     1      28.566  27.799  29.151  1.00  0.00     0.015 C 
HETATM   16  C   LIG     1      27.281  25.693  29.703  1.00  0.00     0.015 C 
ENDBRANCH   1  14
TORSDOF 2
ENDMDL
MODEL 12
REMARK VINA RESULT:      -4.3     15.198     17.553
REMARK  2 active torsions:
REMARK  status: ('A' for Active; 'I' for Inactive)
REMARK    1  A    between atoms: C_2  and  C_4 
REMARK    2  A    between atoms: C_7  and  N_8 
REMARK       I    between atoms: N_8  and  C_9 
REMARK       I    between atoms: C_9  and  N_10 
ROOT
HETATM    1  C   LIG     1      23.173  19.742  17.669  1.00  0.00    -0.055 A 
HETATM    2  C   LIG     1      24.536  19.686  17.332  1.00  0.00     0.010 A 
HETATM    3  C   LIG     1      25.378  20.771  17.594  1.00  0.00     0.030 A 
HETATM    4  C   LIG     1      24.879  21.927  18.211  1.00  0.00     0.036 A 
HETATM    5  C   LIG     1      23.512  21.995  18.530  1.00  0.00     0.030 A 
HETATM    6  C   LIG     1      22.669  20.912  18.267  1.00  0.00     0.010 A 
ENDROOT
BRANCH   4   7
HETATM    7  N   LIG     1      25.762  23.038  18.449  1.00  0.00    -0.309 N 
HETATM    8  C   LIG     1      26.440  23.265  19.698  1.00  0.00     0.322 C 
HETATM    9  N   LIG     1      27.000  24.557  20.014  1.00  0.00    -0.343 N 
HETATM   10  O   LIG     1      26.574  22.313  20.516  1.00  0.00    -0.247 OA
HETATM   11  C   LIG     1      27.762  24.723  21.256  1.00  0.00     0.154 C 
HETATM   12  C   LIG     1      26.776  25.704  19.129  1.00  0.00     0.154 C 
HETATM   13  H   LIG     1      25.994  23.651  17.636  1.00  0.00     0.170 HD
ENDBRANCH   4   7
BRANCH   1  14
HETATM   14  C   LIG     1      22.270  18.559  17.379  1.00  0.00     0.010 C 
HETATM   15  C   LIG     1      21.654  18.005  18.669  1.00  0.00     0.015 C 
HETATM   16  C   LIG     1      21.182  18.928  16.363  1.00  0.00     0.015 C 
ENDBRANCH   1  14
TORSDOF 2
ENDMDL
MODEL 13
REMARK VINA RESULT:      -4.2     15.207     17.200
REMARK  2 active torsions:
REMARK  status: ('A' for Active; 'I' for Inactive)
REMARK    1  A    between atoms: C_2  and  C_4 
REMARK    2  A    between atoms: C_7  and  N_8 
REMARK       I    between atoms: N_8  and  C_9 
REMARK       I    between atoms: C_9  and  N_10 
ROOT
HETATM    1  C   LIG     1      23.372  20.287  17.866  1.00  0.00    -0.055 A 
HETATM    2  C   LIG     1      22.768  21.180  18.767  1.00  0.00     0.010 A 
HETATM    3  C   LIG     1      23.528  22.156  19.417  1.00  0.00     0.030 A 
HETATM    4  C   LIG     1      24.904  22.269  19.170  1.00  0.00     0.036 A 
HETATM    5  C   LIG     1      25.516  21.364  18.286  1.00  0.00     0.030 A 
HETATM    6  C   LIG     1      24.757  20.387  17.636  1.00  0.00     0.010 A 
ENDROOT
BRANCH   4   7
HETATM    7  N   LIG     1      25.668  23.268  19.870  1.00  0.00    -0.309 N 
HETATM    8  C   LIG     1      26.272  24.405  19.228  1.00  0.00     0.322 C 
HETATM    9  N   LIG     1      27.318  25.156  19.880  1.00  0.00    -0.343 N 
HETATM   10  O   LIG     1      25.861  24.769  18.091  1.00  0.00    -0.247 OA
HETATM   11  C   LIG     1      27.845  26.361  19.231  1.00  0.00     0.154 C 
HETATM   12  C   LIG     1      27.881  24.700  21.154  1.00  0.00     0.154 C 
HETATM   13  H   LIG     1      25.695  23.210  20.912  1.00  0.00     0.170 HD
ENDBRANCH   4   7
BRANCH   1  14
HETATM   14  C   LIG     1      22.536  19.232  17.167  1.00  0.00     0.010 C 
HETATM   15  C   LIG     1      23.399  18.368  16.240  1.00  0.00     0.015 C 
HETATM   16  C   LIG     1      21.778  18.366  18.180  1.00  0.00     0.015 C 
ENDBRANCH   1  14
TORSDOF 2
ENDMDL
MODEL 14
REMARK VINA RESULT:      -4.1     15.148     16.335
REMARK  2 active torsions:
REMARK  status: ('A' for Active; 'I' for Inactive)
REMARK    1  A    between atoms: C_2  and  C_4 
REMARK    2  A    between atoms: C_7  and  N_8 
REMARK       I    between atoms: N_8  and  C_9 
REMARK       I    between atoms: C_9  and  N_10 
ROOT
HETATM    1  C   LIG     1      28.114  25.517  18.119  1.00  0.00    -0.055 A 
HETATM    2  C   LIG     1      28.018  24.202  17.634  1.00  0.00     0.010 A 
HETATM    3  C   LIG     1      27.002  23.353  18.084  1.00  0.00     0.030 A 
HETATM    4  C   LIG     1      26.055  23.804  19.014  1.00  0.00     0.036 A 
HETATM    5  C   LIG     1      26.161  25.112  19.516  1.00  0.00     0.030 A 
HETATM    6  C   LIG     1      27.177  25.962  19.069  1.00  0.00     0.010 A 
ENDROOT
BRANCH   4   7
HETATM    7  N   LIG     1      25.034  22.902  19.477  1.00  0.00    -0.309 N 
HETATM    8  C   LIG     1      25.247  21.914  20.501  1.00  0.00     0.322 C 
HETATM    9  N   LIG     1      24.335  20.808  20.665  1.00  0.00    -0.343 N 
HETATM   10  O   LIG     1      26.229  22.032  21.285  1.00  0.00    -0.247 OA
HETATM   11  C   LIG     1      24.536  19.872  21.776  1.00  0.00     0.154 C 
HETATM   12  C   LIG     1      23.243  20.592  19.709  1.00  0.00     0.154 C 
HETATM   13  H   LIG     1      24.065  23.048  19.117  1.00  0.00     0.170 HD
ENDBRANCH   4   7
BRANCH   1  14
HETATM   14  C   LIG     1      29.221  26.429  17.623  1.00  0.00     0.010 C 
HETATM   15  C   LIG     1      29.382  26.326  16.103  1.00  0.00     0.015 C 
HETATM   16  C   LIG     1      28.977  27.880  18.055  1.00  0.00     0.015 C 
ENDBRANCH   1  14
TORSDOF 2
ENDMDL
MODEL 15
REMARK VINA RESULT:      -4.1     14.717     16.271
REMARK  2 active torsions:
REMARK  status: ('A' for Active; 'I' for Inactive)
REMARK    1  A    between atoms: C_2  and  C_4 
REMARK    2  A    between atoms: C_7  and  N_8 
REMARK       I    between atoms: N_8  and  C_9 
REMARK       I    between atoms: C_9  and  N_10 
ROOT
HETATM    1  C   LIG     1      24.282  22.455  20.136  1.00  0.00    -0.055 A 
HETATM    2  C   LIG     1      25.180  22.945  21.099  1.00  0.00     0.010 A 
HETATM    3  C   LIG     1      26.376  23.553  20.709  1.00  0.00     0.030 A 
HETATM    4  C   LIG     1      26.693  23.697  19.351  1.00  0.00     0.036 A 
HETATM    5  C   LIG     1      25.808  23.189  18.385  1.00  0.00     0.030 A 
HETATM    6  C   LIG     1      24.611  22.579  18.774  1.00  0.00     0.010 A 
ENDROOT
BRANCH   4   7
HETATM    7  N   LIG     1      27.942  24.307  18.977  1.00  0.00    -0.309 N 
HETATM    8  C   LIG     1      28.103  25.717  18.742  1.00  0.00     0.322 C 
HETATM    9  N   LIG     1      29.245  26.223  18.019  1.00  0.00    -0.343 N 
HETATM   10  O   LIG     1      27.248  26.525  19.199  1.00  0.00    -0.247 OA
HETATM   11  C   LIG     1      29.419  27.673  17.879  1.00  0.00     0.154 C 
HETATM   12  C   LIG     1      30.201  25.303  17.394  1.00  0.00     0.154 C 
HETATM   13  H   LIG     1      28.792  23.700  18.976  1.00  0.00     0.170 HD
ENDBRANCH   4   7
BRANCH   1  14
HETATM   14  C   LIG     1      22.987  21.796  20.572  1.00  0.00     0.010 C 
HETATM   15  C   LIG     1      23.257  20.597  21.487  1.00  0.00     0.015 C 
HETATM   16  C   LIG     1      22.053  22.807  21.249  1.00  0.00     0.015 C 
ENDBRANCH   1  14
TORSDOF 2
ENDMDL
MODEL 16
REMARK VINA RESULT:      -4.0     15.047     16.016
REMARK  2 active torsions:
REMARK  status: ('A' for Active; 'I' for Inactive)
REMARK    1  A    between atoms: C_2  and  C_4 
REMARK    2  A    between atoms: C_7  and  N_8 
REMARK       I    between atoms: N_8  and  C_9 
REMARK       I    between atoms: C_9  and  N_10 
ROOT
HETATM    1  C   LIG     1      28.364  26.112  18.127  1.00  0.00    -0.055 A 
HETATM    2  C   LIG     1      28.589  24.762  17.807  1.00  0.00     0.010 A 
HETATM    3  C   LIG     1      27.790  23.758  18.363  1.00  0.00     0.030 A 
HETATM    4  C   LIG     1      26.743  24.083  19.236  1.00  0.00     0.036 A 
HETATM    5  C   LIG     1      26.528  25.430  19.575  1.00  0.00     0.030 A 
HETATM    6  C   LIG     1      27.327  26.435  19.021  1.00  0.00     0.010 A 
ENDROOT
BRANCH   4   7
HETATM    7  N   LIG     1      25.950  23.029  19.812  1.00  0.00    -0.309 N 
HETATM    8  C   LIG     1      24.847  22.399  19.136  1.00  0.00     0.322 C 
HETATM    9  N   LIG     1      23.867  21.635  19.868  1.00  0.00    -0.343 N 
HETATM   10  O   LIG     1      24.752  22.493  17.880  1.00  0.00    -0.247 OA
HETATM   11  C   LIG     1      22.810  20.934  19.131  1.00  0.00     0.154 C 
HETATM   12  C   LIG     1      23.897  21.590  21.333  1.00  0.00     0.154 C 
HETATM   13  H   LIG     1      26.261  22.639  20.729  1.00  0.00     0.170 HD
ENDBRANCH   4   7
BRANCH   1  14
HETATM   14  C   LIG     1      29.238  27.191  17.518  1.00  0.00     0.010 C 
HETATM   15  C   LIG     1      30.265  27.709  18.532  1.00  0.00     0.015 C 
HETATM   16  C   LIG     1      29.927  26.692  16.242  1.00  0.00     0.015 C 
ENDBRANCH   1  14
TORSDOF 2
ENDMDL
MODEL 17
REMARK VINA RESULT:      -3.9     15.538     17.300
REMARK  2 active torsions:
REMARK  status: ('A' for Active; 'I' for Inactive)
REMARK    1  A    between atoms: C_2  and  C_4 
REMARK    2  A    between atoms: C_7  and  N_8 
REMARK       I    between atoms: N_8  and  C_9 
REMARK       I    between atoms: C_9  and  N_10 
ROOT
HETATM    1  C   LIG     1      23.184  21.396  20.038  1.00  0.00    -0.055 A 
HETATM    2  C   LIG     1      23.747  20.228  20.580  1.00  0.00     0.010 A 
HETATM    3  C   LIG     1      23.900  20.091  21.963  1.00  0.00     0.030 A 
HETATM    4  C   LIG     1      23.481  21.109  22.832  1.00  0.00     0.036 A 
HETATM    5  C   LIG     1      22.938  22.287  22.291  1.00  0.00     0.030 A 
HETATM    6  C   LIG     1      22.785  22.426  20.909  1.00  0.00     0.010 A 
ENDROOT
BRANCH   4   7
HETATM    7  N   LIG     1      23.672  20.951  24.249  1.00  0.00    -0.309 N 
HETATM    8  C   LIG     1      22.811  20.159  25.087  1.00  0.00     0.322 C 
HETATM    9  N   LIG     1      22.810  20.328  26.520  1.00  0.00    -0.343 N 
HETATM   10  O   LIG     1      22.067  19.284  24.563  1.00  0.00    -0.247 OA
HETATM   11  C   LIG     1      21.984  19.440  27.345  1.00  0.00     0.154 C 
HETATM   12  C   LIG     1      23.589  21.401  27.146  1.00  0.00     0.154 C 
HETATM   13  H   LIG     1      24.540  21.355  24.666  1.00  0.00     0.170 HD
ENDBRANCH   4   7
BRANCH   1  14
HETATM   14  C   LIG     1      23.023  21.533  18.536  1.00  0.00     0.010 C 
HETATM   15  C   LIG     1      24.219  22.265  17.917  1.00  0.00     0.015 C 
HETATM   16  C   LIG     1      22.810  20.166  17.874  1.00  0.00     0.015 C 
ENDBRANCH   1  14
TORSDOF 2
ENDMDL
MODEL 18
REMARK VINA RESULT:      -3.8     15.040     16.339
REMARK  2 active torsions:
REMARK  status: ('A' for Active; 'I' for Inactive)
REMARK    1  A    between atoms: C_2  and  C_4 
REMARK    2  A    between atoms: C_7  and  N_8 
REMARK       I    between atoms: N_8  and  C_9 
REMARK       I    between atoms: C_9  and  N_10 
ROOT
HETATM    1  C   LIG     1      23.289  21.152  23.102  1.00  0.00    -0.055 A 
HETATM    2  C   LIG     1      22.609  21.704  22.003  1.00  0.00     0.010 A 
HETATM    3  C   LIG     1      23.250  22.611  21.155  1.00  0.00     0.030 A 
HETATM    4  C   LIG     1      24.586  22.975  21.379  1.00  0.00     0.036 A 
HETATM    5  C   LIG     1      25.262  22.442  22.490  1.00  0.00     0.030 A 
HETATM    6  C   LIG     1      24.622  21.535  23.339  1.00  0.00     0.010 A 
ENDROOT
BRANCH   4   7
HETATM    7  N   LIG     1      25.215  23.929  20.504  1.00  0.00    -0.309 N 
HETATM    8  C   LIG     1      26.036  23.562  19.381  1.00  0.00     0.322 C 
HETATM    9  N   LIG     1      26.933  24.515  18.774  1.00  0.00    -0.343 N 
HETATM   10  O   LIG     1      25.949  22.397  18.901  1.00  0.00    -0.247 OA
HETATM   11  C   LIG     1      27.685  24.129  17.576  1.00  0.00     0.154 C 
HETATM   12  C   LIG     1      27.126  25.842  19.369  1.00  0.00     0.154 C 
HETATM   13  H   LIG     1      24.976  24.936  20.639  1.00  0.00     0.170 HD
ENDBRANCH   4   7
BRANCH   1  14
HETATM   14  C   LIG     1      22.583  20.168  24.015  1.00  0.00     0.010 C 
HETATM   15  C   LIG     1      22.435  18.799  23.343  1.00  0.00     0.015 C 
HETATM   16  C   LIG     1      23.305  20.046  25.362  1.00  0.00     0.015 C 
ENDBRANCH   1  14
TORSDOF 2
ENDMDL
MODEL 19
REMARK VINA RESULT:      -3.7     15.498     17.053
REMARK  2 active torsions:
REMARK  status: ('A' for Active; 'I' for Inactive)
REMARK    1  A    between atoms: C_2  and  C_4 
REMARK    2  A    between atoms: C_7  and  N_8 
REMARK       I    between atoms: N_8  and  C_9 
REMARK       I    between atoms: C_9  and  N_10 
ROOT
HETATM    1  C   LIG     1      23.709  21.915  20.418  1.00  0.00    -0.055 A 
HETATM    2  C   LIG     1      25.110  21.935  20.524  1.00  0.00     0.010 A 
HETATM    3  C   LIG     1      25.726  22.327  21.716  1.00  0.00     0.030 A 
HETATM    4  C   LIG     1      24.956  22.692  22.829  1.00  0.00     0.036 A 
HETATM    5  C   LIG     1      23.555  22.694  22.720  1.00  0.00     0.030 A 
HETATM    6  C   LIG     1      22.938  22.303  21.528  1.00  0.00     0.010 A 
ENDROOT
BRANCH   4   7
HETATM    7  N   LIG     1      25.616  23.114  24.037  1.00  0.00    -0.309 N 
HETATM    8  C   LIG     1      25.384  22.514  25.324  1.00  0.00     0.322 C 
HETATM    9  N   LIG     1      25.765  23.193  26.539  1.00  0.00    -0.343 N 
HETATM   10  O   LIG     1      24.866  21.365  25.390  1.00  0.00    -0.247 OA
HETATM   11  C   LIG     1      25.595  22.509  27.825  1.00  0.00     0.154 C 
HETATM   12  C   LIG     1      26.278  24.566  26.497  1.00  0.00     0.154 C 
HETATM   13  H   LIG     1      26.374  23.826  23.948  1.00  0.00     0.170 HD
ENDBRANCH   4   7
BRANCH   1  14
HETATM   14  C   LIG     1      23.053  21.488  19.119  1.00  0.00     0.010 C 
HETATM   15  C   LIG     1      23.760  22.112  17.911  1.00  0.00     0.015 C 
HETATM   16  C   LIG     1      23.004  19.960  19.000  1.00  0.00     0.015 C 
ENDBRANCH   1  14
TORSDOF 2
ENDMDL
