REMARK  2 active torsions:
REMARK  status: ('A' for Active; 'I' for Inactive)
REMARK    1  A    between atoms: C_2  and  C_4 
REMARK    2  A    between atoms: C_7  and  N_8 
REMARK       I    between atoms: N_8  and  C_9 
REMARK       I    between atoms: C_9  and  N_10 
ROOT
HETATM    1  C   LIG     1      -2.352  -0.230   0.386  1.00  0.00    -0.055 A 
HETATM    2  C   LIG     1      -1.690  -1.083   1.285  1.00  0.00     0.010 A 
HETATM    3  C   LIG     1      -0.296  -1.186   1.270  1.00  0.00     0.030 A 
HETATM    4  C   LIG     1       0.465  -0.429   0.368  1.00  0.00     0.036 A 
HETATM    5  C   LIG     1      -0.195   0.409  -0.547  1.00  0.00     0.030 A 
HETATM    6  C   LIG     1      -1.589   0.512  -0.534  1.00  0.00     0.010 A 
ENDROOT
BRANCH   4   7
HETATM    7  N   LIG     1       1.897  -0.571   0.358  1.00  0.00    -0.309 N 
HETATM    8  C   LIG     1       2.802   0.493   0.013  1.00  0.00     0.322 C 
HETATM    9  N   LIG     1       4.172   0.215  -0.345  1.00  0.00    -0.343 N 
HETATM   10  O   LIG     1       2.400   1.689   0.052  1.00  0.00    -0.247 OA
HETATM   11  C   LIG     1       5.086   1.333  -0.602  1.00  0.00     0.154 C 
HETATM   12  C   LIG     1       4.639  -1.167  -0.493  1.00  0.00     0.154 C 
HETATM   13  H   LIG     1       2.294  -1.467   0.718  1.00  0.00     0.170 HD
ENDBRANCH   4   7
BRANCH   1  14
HETATM   14  C   LIG     1      -3.865  -0.127   0.412  1.00  0.00     0.010 C 
HETATM   15  C   LIG     1      -4.316   1.299   0.748  1.00  0.00     0.015 C 
HETATM   16  C   LIG     1      -4.475  -0.600  -0.913  1.00  0.00     0.015 C 
ENDBRANCH   1  14
TORSDOF 2
