MODEL 1
REMARK VINA RESULT:      -7.2      0.000      0.000
REMARK  2 active torsions:
REMARK  status: ('A' for Active; 'I' for Inactive)
REMARK    1  A    between atoms: C_4  and  C_5 
REMARK    2  A    between atoms: C_4  and  C_12 
ROOT
HETATM    1 CL   LIG     1      15.617  35.482  19.344  1.00  0.00    -0.070 Cl
HETATM    2  C   LIG     1      15.943  35.398  21.072  1.00  0.00     0.115 C 
HETATM    3 CL   LIG     1      14.867  34.371  22.015  1.00  0.00    -0.070 Cl
HETATM    4  C   LIG     1      16.939  36.102  21.653  1.00  0.00     0.019 C 
ENDROOT
BRANCH   4   5
HETATM    5  C   LIG     1      17.886  36.919  20.855  1.00  0.00    -0.022 A 
HETATM    6  C   LIG     1      18.822  36.309  20.001  1.00  0.00     0.014 A 
HETATM    7  C   LIG     1      19.733  37.086  19.281  1.00  0.00     0.024 A 
HETATM    8  C   LIG     1      19.726  38.478  19.413  1.00  0.00     0.034 A 
HETATM    9  C   LIG     1      18.809  39.092  20.273  1.00  0.00     0.024 A 
HETATM   10 CL   LIG     1      20.872  39.452  18.510  1.00  0.00    -0.084 Cl
HETATM   11  C   LIG     1      17.897  38.317  20.995  1.00  0.00     0.014 A 
ENDBRANCH   4   5
BRANCH   4  12
HETATM   12  C   LIG     1      17.090  36.121  23.127  1.00  0.00    -0.001 A 
HETATM   13  C   LIG     1      17.465  34.944  23.798  1.00  0.00     0.014 A 
HETATM   14  C   LIG     1      17.584  34.932  25.190  1.00  0.00     0.001 A 
HETATM   15  C   LIG     1      17.328  36.090  25.925  1.00  0.00     0.002 A 
HETATM   16  C   LIG     1      16.951  37.265  25.270  1.00  0.00     0.024 A 
HETATM   17  C   LIG     1      16.827  37.289  23.875  1.00  0.00     0.045 A 
HETATM   18 CL   LIG     1      16.375  38.801  23.096  1.00  0.00    -0.083 Cl
ENDBRANCH   4  12
TORSDOF 2
ENDMDL
MODEL 2
REMARK VINA RESULT:      -7.0      6.181      9.014
REMARK  2 active torsions:
REMARK  status: ('A' for Active; 'I' for Inactive)
REMARK    1  A    between atoms: C_4  and  C_5 
REMARK    2  A    between atoms: C_4  and  C_12 
ROOT
HETATM    1 CL   LIG     1      17.229  34.549  15.270  1.00  0.00    -0.070 Cl
HETATM    2  C   LIG     1      16.399  33.052  14.856  1.00  0.00     0.115 C 
HETATM    3 CL   LIG     1      16.617  32.475  13.207  1.00  0.00    -0.070 Cl
HETATM    4  C   LIG     1      15.614  32.395  15.738  1.00  0.00     0.019 C 
ENDROOT
BRANCH   4   5
HETATM    5  C   LIG     1      15.477  32.843  17.145  1.00  0.00    -0.022 A 
HETATM    6  C   LIG     1      15.320  34.205  17.458  1.00  0.00     0.014 A 
HETATM    7  C   LIG     1      15.228  34.619  18.789  1.00  0.00     0.024 A 
HETATM    8  C   LIG     1      15.302  33.680  19.822  1.00  0.00     0.034 A 
HETATM    9  C   LIG     1      15.474  32.324  19.522  1.00  0.00     0.024 A 
HETATM   10 CL   LIG     1      15.188  34.201  21.493  1.00  0.00    -0.084 Cl
HETATM   11  C   LIG     1      15.567  31.908  18.191  1.00  0.00     0.014 A 
ENDBRANCH   4   5
BRANCH   4  12
HETATM   12  C   LIG     1      14.816  31.222  15.310  1.00  0.00    -0.001 A 
HETATM   13  C   LIG     1      15.425  30.217  14.540  1.00  0.00     0.014 A 
HETATM   14  C   LIG     1      14.685  29.116  14.101  1.00  0.00     0.001 A 
HETATM   15  C   LIG     1      13.331  29.010  14.423  1.00  0.00     0.002 A 
HETATM   16  C   LIG     1      12.713  30.005  15.186  1.00  0.00     0.024 A 
HETATM   17  C   LIG     1      13.446  31.113  15.630  1.00  0.00     0.045 A 
HETATM   18 CL   LIG     1      12.627  32.324  16.610  1.00  0.00    -0.083 Cl
ENDBRANCH   4  12
TORSDOF 2
ENDMDL
MODEL 3
REMARK VINA RESULT:      -6.6     15.207     16.324
REMARK  2 active torsions:
REMARK  status: ('A' for Active; 'I' for Inactive)
REMARK    1  A    between atoms: C_4  and  C_5 
REMARK    2  A    between atoms: C_4  and  C_12 
ROOT
HETATM    1 CL   LIG     1      28.931  21.673  20.463  1.00  0.00    -0.070 Cl
HETATM    2  C   LIG     1      27.185  21.674  20.689  1.00  0.00     0.115 C 
HETATM    3 CL   LIG     1      26.498  20.229  21.426  1.00  0.00    -0.070 Cl
HETATM    4  C   LIG     1      26.407  22.705  20.294  1.00  0.00     0.019 C 
ENDROOT
BRANCH   4   5
HETATM    5  C   LIG     1      26.987  23.949  19.731  1.00  0.00    -0.022 A 
HETATM    6  C   LIG     1      27.267  24.056  18.357  1.00  0.00     0.014 A 
HETATM    7  C   LIG     1      27.846  25.220  17.842  1.00  0.00     0.024 A 
HETATM    8  C   LIG     1      28.160  26.282  18.695  1.00  0.00     0.034 A 
HETATM    9  C   LIG     1      27.900  26.178  20.065  1.00  0.00     0.024 A 
HETATM   10 CL   LIG     1      28.889  27.741  18.048  1.00  0.00    -0.084 Cl
HETATM   11  C   LIG     1      27.321  25.015  20.582  1.00  0.00     0.014 A 
ENDBRANCH   4   5
BRANCH   4  12
HETATM   12  C   LIG     1      24.930  22.607  20.366  1.00  0.00    -0.001 A 
HETATM   13  C   LIG     1      24.261  23.088  21.504  1.00  0.00     0.014 A 
HETATM   14  C   LIG     1      22.872  22.980  21.606  1.00  0.00     0.001 A 
HETATM   15  C   LIG     1      22.139  22.388  20.577  1.00  0.00     0.002 A 
HETATM   16  C   LIG     1      22.793  21.903  19.442  1.00  0.00     0.024 A 
HETATM   17  C   LIG     1      24.185  22.005  19.330  1.00  0.00     0.045 A 
HETATM   18 CL   LIG     1      24.957  21.402  17.867  1.00  0.00    -0.083 Cl
ENDBRANCH   4  12
TORSDOF 2
ENDMDL
MODEL 4
REMARK VINA RESULT:      -6.2     15.575     16.751
REMARK  2 active torsions:
REMARK  status: ('A' for Active; 'I' for Inactive)
REMARK    1  A    between atoms: C_4  and  C_5 
REMARK    2  A    between atoms: C_4  and  C_12 
ROOT
HETATM    1 CL   LIG     1      28.847  22.097  21.547  1.00  0.00    -0.070 Cl
HETATM    2  C   LIG     1      27.257  21.662  20.930  1.00  0.00     0.115 C 
HETATM    3 CL   LIG     1      26.580  20.149  21.527  1.00  0.00    -0.070 Cl
HETATM    4  C   LIG     1      26.600  22.423  20.027  1.00  0.00     0.019 C 
ENDROOT
BRANCH   4   5
HETATM    5  C   LIG     1      27.137  23.728  19.570  1.00  0.00    -0.022 A 
HETATM    6  C   LIG     1      26.892  24.905  20.299  1.00  0.00     0.014 A 
HETATM    7  C   LIG     1      27.373  26.134  19.840  1.00  0.00     0.024 A 
HETATM    8  C   LIG     1      28.093  26.203  18.644  1.00  0.00     0.034 A 
HETATM    9  C   LIG     1      28.328  25.040  17.903  1.00  0.00     0.024 A 
HETATM   10 CL   LIG     1      28.694  27.747  18.068  1.00  0.00    -0.084 Cl
HETATM   11  C   LIG     1      27.848  23.809  18.360  1.00  0.00     0.014 A 
ENDBRANCH   4   5
BRANCH   4  12
HETATM   12  C   LIG     1      25.333  21.952  19.421  1.00  0.00    -0.001 A 
HETATM   13  C   LIG     1      25.373  21.202  18.233  1.00  0.00     0.014 A 
HETATM   14  C   LIG     1      24.189  20.773  17.629  1.00  0.00     0.001 A 
HETATM   15  C   LIG     1      22.956  21.090  18.201  1.00  0.00     0.002 A 
HETATM   16  C   LIG     1      22.903  21.837  19.380  1.00  0.00     0.024 A 
HETATM   17  C   LIG     1      24.084  22.274  19.994  1.00  0.00     0.045 A 
HETATM   18 CL   LIG     1      23.964  23.190  21.492  1.00  0.00    -0.083 Cl
ENDBRANCH   4  12
TORSDOF 2
ENDMDL
MODEL 5
REMARK VINA RESULT:      -6.1     17.985     19.821
REMARK  2 active torsions:
REMARK  status: ('A' for Active; 'I' for Inactive)
REMARK    1  A    between atoms: C_4  and  C_5 
REMARK    2  A    between atoms: C_4  and  C_12 
ROOT
HETATM    1 CL   LIG     1      18.551  18.457  33.713  1.00  0.00    -0.070 Cl
HETATM    2  C   LIG     1      19.712  19.592  34.396  1.00  0.00     0.115 C 
HETATM    3 CL   LIG     1      19.858  19.588  36.152  1.00  0.00    -0.070 Cl
HETATM    4  C   LIG     1      20.429  20.440  33.628  1.00  0.00     0.019 C 
ENDROOT
BRANCH   4   5
HETATM    5  C   LIG     1      20.356  20.403  32.147  1.00  0.00    -0.022 A 
HETATM    6  C   LIG     1      19.454  21.226  31.448  1.00  0.00     0.014 A 
HETATM    7  C   LIG     1      19.369  21.157  30.055  1.00  0.00     0.024 A 
HETATM    8  C   LIG     1      20.174  20.260  29.347  1.00  0.00     0.034 A 
HETATM    9  C   LIG     1      21.062  19.426  30.034  1.00  0.00     0.024 A 
HETATM   10 CL   LIG     1      20.064  20.175  27.598  1.00  0.00    -0.084 Cl
HETATM   11  C   LIG     1      21.149  19.493  31.428  1.00  0.00     0.014 A 
ENDBRANCH   4   5
BRANCH   4  12
HETATM   12  C   LIG     1      21.285  21.479  34.247  1.00  0.00    -0.001 A 
HETATM   13  C   LIG     1      22.659  21.234  34.410  1.00  0.00     0.014 A 
HETATM   14  C   LIG     1      23.480  22.188  35.018  1.00  0.00     0.001 A 
HETATM   15  C   LIG     1      22.937  23.391  35.472  1.00  0.00     0.002 A 
HETATM   16  C   LIG     1      21.572  23.645  35.319  1.00  0.00     0.024 A 
HETATM   17  C   LIG     1      20.740  22.695  34.712  1.00  0.00     0.045 A 
HETATM   18 CL   LIG     1      19.032  23.075  34.519  1.00  0.00    -0.083 Cl
ENDBRANCH   4  12
TORSDOF 2
ENDMDL
MODEL 6
REMARK VINA RESULT:      -6.1      2.002      4.168
REMARK  2 active torsions:
REMARK  status: ('A' for Active; 'I' for Inactive)
REMARK    1  A    between atoms: C_4  and  C_5 
REMARK    2  A    between atoms: C_4  and  C_12 
ROOT
HETATM    1 CL   LIG     1      18.344  36.971  18.677  1.00  0.00    -0.070 Cl
HETATM    2  C   LIG     1      18.074  37.100  20.413  1.00  0.00     0.115 C 
HETATM    3 CL   LIG     1      18.942  38.390  21.239  1.00  0.00    -0.070 Cl
HETATM    4  C   LIG     1      17.274  36.243  21.083  1.00  0.00     0.019 C 
ENDROOT
BRANCH   4   5
HETATM    5  C   LIG     1      16.492  35.195  20.383  1.00  0.00    -0.022 A 
HETATM    6  C   LIG     1      16.246  33.951  20.991  1.00  0.00     0.014 A 
HETATM    7  C   LIG     1      15.539  32.957  20.308  1.00  0.00     0.024 A 
HETATM    8  C   LIG     1      15.079  33.192  19.008  1.00  0.00     0.034 A 
HETATM    9  C   LIG     1      15.333  34.420  18.389  1.00  0.00     0.024 A 
HETATM   10 CL   LIG     1      14.193  31.944  18.152  1.00  0.00    -0.084 Cl
HETATM   11  C   LIG     1      16.041  35.415  19.070  1.00  0.00     0.014 A 
ENDBRANCH   4   5
BRANCH   4  12
HETATM   12  C   LIG     1      17.187  36.291  22.562  1.00  0.00    -0.001 A 
HETATM   13  C   LIG     1      17.546  35.159  23.312  1.00  0.00     0.014 A 
HETATM   14  C   LIG     1      17.444  35.172  24.705  1.00  0.00     0.001 A 
HETATM   15  C   LIG     1      16.979  36.312  25.362  1.00  0.00     0.002 A 
HETATM   16  C   LIG     1      16.615  37.444  24.627  1.00  0.00     0.024 A 
HETATM   17  C   LIG     1      16.713  37.440  23.230  1.00  0.00     0.045 A 
HETATM   18 CL   LIG     1      16.267  38.900  22.353  1.00  0.00    -0.083 Cl
ENDBRANCH   4  12
TORSDOF 2
ENDMDL
MODEL 7
REMARK VINA RESULT:      -6.0     17.623     19.875
REMARK  2 active torsions:
REMARK  status: ('A' for Active; 'I' for Inactive)
REMARK    1  A    between atoms: C_4  and  C_5 
REMARK    2  A    between atoms: C_4  and  C_12 
ROOT
HETATM    1 CL   LIG     1      18.589  18.140  33.820  1.00  0.00    -0.070 Cl
HETATM    2  C   LIG     1      19.519  19.432  34.572  1.00  0.00     0.115 C 
HETATM    3 CL   LIG     1      19.698  19.341  36.322  1.00  0.00    -0.070 Cl
HETATM    4  C   LIG     1      20.043  20.454  33.860  1.00  0.00     0.019 C 
ENDROOT
BRANCH   4   5
HETATM    5  C   LIG     1      19.949  20.501  32.380  1.00  0.00    -0.022 A 
HETATM    6  C   LIG     1      20.485  19.469  31.589  1.00  0.00     0.014 A 
HETATM    7  C   LIG     1      20.423  19.542  30.195  1.00  0.00     0.024 A 
HETATM    8  C   LIG     1      19.835  20.649  29.576  1.00  0.00     0.034 A 
HETATM    9  C   LIG     1      19.313  21.688  30.354  1.00  0.00     0.024 A 
HETATM   10 CL   LIG     1      19.759  20.739  27.826  1.00  0.00    -0.084 Cl
HETATM   11  C   LIG     1      19.375  21.618  31.749  1.00  0.00     0.014 A 
ENDBRANCH   4   5
BRANCH   4  12
HETATM   12  C   LIG     1      20.692  21.597  34.544  1.00  0.00    -0.001 A 
HETATM   13  C   LIG     1      19.898  22.535  35.225  1.00  0.00     0.014 A 
HETATM   14  C   LIG     1      20.486  23.636  35.852  1.00  0.00     0.001 A 
HETATM   15  C   LIG     1      21.869  23.814  35.802  1.00  0.00     0.002 A 
HETATM   16  C   LIG     1      22.669  22.890  35.124  1.00  0.00     0.024 A 
HETATM   17  C   LIG     1      22.090  21.783  34.491  1.00  0.00     0.045 A 
HETATM   18 CL   LIG     1      23.144  20.635  33.674  1.00  0.00    -0.083 Cl
ENDBRANCH   4  12
TORSDOF 2
ENDMDL
MODEL 8
REMARK VINA RESULT:      -5.9     16.132     18.025
REMARK  2 active torsions:
REMARK  status: ('A' for Active; 'I' for Inactive)
REMARK    1  A    between atoms: C_4  and  C_5 
REMARK    2  A    between atoms: C_4  and  C_12 
ROOT
HETATM    1 CL   LIG     1      21.752  23.088  21.311  1.00  0.00    -0.070 Cl
HETATM    2  C   LIG     1      22.958  22.025  20.593  1.00  0.00     0.115 C 
HETATM    3 CL   LIG     1      22.889  21.844  18.843  1.00  0.00    -0.070 Cl
HETATM    4  C   LIG     1      23.867  21.359  21.338  1.00  0.00     0.019 C 
ENDROOT
BRANCH   4   5
HETATM    5  C   LIG     1      23.969  21.556  22.805  1.00  0.00    -0.022 A 
HETATM    6  C   LIG     1      24.781  22.572  23.341  1.00  0.00     0.014 A 
HETATM    7  C   LIG     1      24.898  22.727  24.726  1.00  0.00     0.024 A 
HETATM    8  C   LIG     1      24.215  21.863  25.587  1.00  0.00     0.034 A 
HETATM    9  C   LIG     1      23.418  20.840  25.063  1.00  0.00     0.024 A 
HETATM   10 CL   LIG     1      24.364  22.058  27.324  1.00  0.00    -0.084 Cl
HETATM   11  C   LIG     1      23.300  20.683  23.679  1.00  0.00     0.014 A 
ENDBRANCH   4   5
BRANCH   4  12
HETATM   12  C   LIG     1      24.769  20.362  20.715  1.00  0.00    -0.001 A 
HETATM   13  C   LIG     1      26.068  20.744  20.342  1.00  0.00     0.014 A 
HETATM   14  C   LIG     1      26.926  19.829  19.727  1.00  0.00     0.001 A 
HETATM   15  C   LIG     1      26.494  18.526  19.475  1.00  0.00     0.002 A 
HETATM   16  C   LIG     1      25.203  18.134  19.838  1.00  0.00     0.024 A 
HETATM   17  C   LIG     1      24.335  19.044  20.454  1.00  0.00     0.045 A 
HETATM   18 CL   LIG     1      22.728  18.493  20.916  1.00  0.00    -0.083 Cl
ENDBRANCH   4  12
TORSDOF 2
ENDMDL
MODEL 9
REMARK VINA RESULT:      -5.8     15.712     17.300
REMARK  2 active torsions:
REMARK  status: ('A' for Active; 'I' for Inactive)
REMARK    1  A    between atoms: C_4  and  C_5 
REMARK    2  A    between atoms: C_4  and  C_12 
ROOT
HETATM    1 CL   LIG     1      28.171  20.418  24.903  1.00  0.00    -0.070 Cl
HETATM    2  C   LIG     1      26.779  20.654  23.851  1.00  0.00     0.115 C 
HETATM    3 CL   LIG     1      26.546  19.446  22.591  1.00  0.00    -0.070 Cl
HETATM    4  C   LIG     1      25.952  21.714  23.977  1.00  0.00     0.019 C 
ENDROOT
BRANCH   4   5
HETATM    5  C   LIG     1      26.107  22.699  25.075  1.00  0.00    -0.022 A 
HETATM    6  C   LIG     1      26.869  23.868  24.894  1.00  0.00     0.014 A 
HETATM    7  C   LIG     1      27.038  24.772  25.946  1.00  0.00     0.024 A 
HETATM    8  C   LIG     1      26.458  24.514  27.192  1.00  0.00     0.034 A 
HETATM    9  C   LIG     1      25.713  23.347  27.387  1.00  0.00     0.024 A 
HETATM   10 CL   LIG     1      26.673  25.649  28.512  1.00  0.00    -0.084 Cl
HETATM   11  C   LIG     1      25.542  22.441  26.335  1.00  0.00     0.014 A 
ENDBRANCH   4   5
BRANCH   4  12
HETATM   12  C   LIG     1      24.879  21.957  22.984  1.00  0.00    -0.001 A 
HETATM   13  C   LIG     1      25.136  22.791  21.882  1.00  0.00     0.014 A 
HETATM   14  C   LIG     1      24.131  23.058  20.949  1.00  0.00     0.001 A 
HETATM   15  C   LIG     1      22.862  22.499  21.108  1.00  0.00     0.002 A 
HETATM   16  C   LIG     1      22.594  21.671  22.201  1.00  0.00     0.024 A 
HETATM   17  C   LIG     1      23.594  21.398  23.143  1.00  0.00     0.045 A 
HETATM   18 CL   LIG     1      23.212  20.328  24.487  1.00  0.00    -0.083 Cl
ENDBRANCH   4  12
TORSDOF 2
ENDMDL
MODEL 10
REMARK VINA RESULT:      -5.7     16.084     17.869
REMARK  2 active torsions:
REMARK  status: ('A' for Active; 'I' for Inactive)
REMARK    1  A    between atoms: C_4  and  C_5 
REMARK    2  A    between atoms: C_4  and  C_12 
ROOT
HETATM    1 CL   LIG     1      21.720  22.943  21.338  1.00  0.00    -0.070 Cl
HETATM    2  C   LIG     1      22.972  21.974  20.568  1.00  0.00     0.115 C 
HETATM    3 CL   LIG     1      22.870  21.827  18.816  1.00  0.00    -0.070 Cl
HETATM    4  C   LIG     1      23.939  21.351  21.275  1.00  0.00     0.019 C 
ENDROOT
BRANCH   4   5
HETATM    5  C   LIG     1      24.066  21.523  22.743  1.00  0.00    -0.022 A 
HETATM    6  C   LIG     1      23.386  20.670  23.631  1.00  0.00     0.014 A 
HETATM    7  C   LIG     1      23.484  20.863  25.012  1.00  0.00     0.024 A 
HETATM    8  C   LIG     1      24.253  21.914  25.520  1.00  0.00     0.034 A 
HETATM    9  C   LIG     1      24.920  22.777  24.644  1.00  0.00     0.024 A 
HETATM   10 CL   LIG     1      24.374  22.156  27.253  1.00  0.00    -0.084 Cl
HETATM   11  C   LIG     1      24.823  22.587  23.263  1.00  0.00     0.014 A 
ENDBRANCH   4   5
BRANCH   4  12
HETATM   12  C   LIG     1      24.886  20.427  20.608  1.00  0.00    -0.001 A 
HETATM   13  C   LIG     1      24.583  19.057  20.542  1.00  0.00     0.014 A 
HETATM   14  C   LIG     1      25.475  18.163  19.944  1.00  0.00     0.001 A 
HETATM   15  C   LIG     1      26.678  18.627  19.410  1.00  0.00     0.002 A 
HETATM   16  C   LIG     1      26.993  19.987  19.473  1.00  0.00     0.024 A 
HETATM   17  C   LIG     1      26.106  20.891  20.071  1.00  0.00     0.045 A 
HETATM   18 CL   LIG     1      26.538  22.597  20.100  1.00  0.00    -0.083 Cl
ENDBRANCH   4  12
TORSDOF 2
ENDMDL
MODEL 11
REMARK VINA RESULT:      -5.7     16.172     17.758
REMARK  2 active torsions:
REMARK  status: ('A' for Active; 'I' for Inactive)
REMARK    1  A    between atoms: C_4  and  C_5 
REMARK    2  A    between atoms: C_4  and  C_12 
ROOT
HETATM    1 CL   LIG     1      25.780  20.315  21.851  1.00  0.00    -0.070 Cl
HETATM    2  C   LIG     1      26.571  21.684  21.075  1.00  0.00     0.115 C 
HETATM    3 CL   LIG     1      27.894  22.424  21.971  1.00  0.00    -0.070 Cl
HETATM    4  C   LIG     1      26.172  22.164  19.877  1.00  0.00     0.019 C 
ENDROOT
BRANCH   4   5
HETATM    5  C   LIG     1      25.100  21.505  19.091  1.00  0.00    -0.022 A 
HETATM    6  C   LIG     1      23.761  21.919  19.208  1.00  0.00     0.014 A 
HETATM    7  C   LIG     1      22.755  21.268  18.489  1.00  0.00     0.024 A 
HETATM    8  C   LIG     1      23.073  20.192  17.655  1.00  0.00     0.034 A 
HETATM    9  C   LIG     1      24.400  19.763  17.544  1.00  0.00     0.024 A 
HETATM   10 CL   LIG     1      21.808  19.375  16.754  1.00  0.00    -0.084 Cl
HETATM   11  C   LIG     1      25.408  20.412  18.263  1.00  0.00     0.014 A 
ENDBRANCH   4   5
BRANCH   4  12
HETATM   12  C   LIG     1      26.764  23.405  19.326  1.00  0.00    -0.001 A 
HETATM   13  C   LIG     1      26.184  24.645  19.641  1.00  0.00     0.014 A 
HETATM   14  C   LIG     1      26.708  25.826  19.109  1.00  0.00     0.001 A 
HETATM   15  C   LIG     1      27.811  25.780  18.255  1.00  0.00     0.002 A 
HETATM   16  C   LIG     1      28.394  24.552  17.931  1.00  0.00     0.024 A 
HETATM   17  C   LIG     1      27.876  23.362  18.458  1.00  0.00     0.045 A 
HETATM   18 CL   LIG     1      28.663  21.845  18.040  1.00  0.00    -0.083 Cl
ENDBRANCH   4  12
TORSDOF 2
ENDMDL
MODEL 12
REMARK VINA RESULT:      -5.7     15.225     16.942
REMARK  2 active torsions:
REMARK  status: ('A' for Active; 'I' for Inactive)
REMARK    1  A    between atoms: C_4  and  C_5 
REMARK    2  A    between atoms: C_4  and  C_12 
ROOT
HETATM    1 CL   LIG     1      28.538  20.910  23.137  1.00  0.00    -0.070 Cl
HETATM    2  C   LIG     1      28.188  22.053  21.844  1.00  0.00     0.115 C 
HETATM    3 CL   LIG     1      28.535  21.502  20.208  1.00  0.00    -0.070 Cl
HETATM    4  C   LIG     1      27.711  23.293  22.087  1.00  0.00     0.019 C 
ENDROOT
BRANCH   4   5
HETATM    5  C   LIG     1      27.359  23.739  23.458  1.00  0.00    -0.022 A 
HETATM    6  C   LIG     1      28.206  24.600  24.177  1.00  0.00     0.014 A 
HETATM    7  C   LIG     1      27.882  24.985  25.481  1.00  0.00     0.024 A 
HETATM    8  C   LIG     1      26.714  24.506  26.083  1.00  0.00     0.034 A 
HETATM    9  C   LIG     1      25.873  23.637  25.382  1.00  0.00     0.024 A 
HETATM   10 CL   LIG     1      26.310  24.990  27.720  1.00  0.00    -0.084 Cl
HETATM   11  C   LIG     1      26.196  23.250  24.077  1.00  0.00     0.014 A 
ENDBRANCH   4   5
BRANCH   4  12
HETATM   12  C   LIG     1      27.568  24.277  20.988  1.00  0.00    -0.001 A 
HETATM   13  C   LIG     1      28.652  25.110  20.663  1.00  0.00     0.014 A 
HETATM   14  C   LIG     1      28.530  26.064  19.649  1.00  0.00     0.001 A 
HETATM   15  C   LIG     1      27.326  26.198  18.955  1.00  0.00     0.002 A 
HETATM   16  C   LIG     1      26.241  25.378  19.272  1.00  0.00     0.024 A 
HETATM   17  C   LIG     1      26.352  24.419  20.287  1.00  0.00     0.045 A 
HETATM   18 CL   LIG     1      24.963  23.392  20.629  1.00  0.00    -0.083 Cl
ENDBRANCH   4  12
TORSDOF 2
ENDMDL
MODEL 13
REMARK VINA RESULT:      -5.5     15.548     17.135
REMARK  2 active torsions:
REMARK  status: ('A' for Active; 'I' for Inactive)
REMARK    1  A    between atoms: C_4  and  C_5 
REMARK    2  A    between atoms: C_4  and  C_12 
ROOT
HETATM    1 CL   LIG     1      28.892  21.219  23.952  1.00  0.00    -0.070 Cl
HETATM    2  C   LIG     1      27.324  21.217  23.152  1.00  0.00     0.115 C 
HETATM    3 CL   LIG     1      27.165  20.151  21.759  1.00  0.00    -0.070 Cl
HETATM    4  C   LIG     1      26.306  22.007  23.558  1.00  0.00     0.019 C 
ENDROOT
BRANCH   4   5
HETATM    5  C   LIG     1      26.414  22.858  24.768  1.00  0.00    -0.022 A 
HETATM    6  C   LIG     1      25.839  22.457  25.987  1.00  0.00     0.014 A 
HETATM    7  C   LIG     1      25.916  23.284  27.111  1.00  0.00     0.024 A 
HETATM    8  C   LIG     1      26.559  24.523  27.027  1.00  0.00     0.034 A 
HETATM    9  C   LIG     1      27.120  24.937  25.815  1.00  0.00     0.024 A 
HETATM   10 CL   LIG     1      26.654  25.559  28.439  1.00  0.00    -0.084 Cl
HETATM   11  C   LIG     1      27.044  24.112  24.689  1.00  0.00     0.014 A 
ENDBRANCH   4   5
BRANCH   4  12
HETATM   12  C   LIG     1      25.052  22.086  22.772  1.00  0.00    -0.001 A 
HETATM   13  C   LIG     1      23.933  21.342  23.182  1.00  0.00     0.014 A 
HETATM   14  C   LIG     1      22.749  21.379  22.440  1.00  0.00     0.001 A 
HETATM   15  C   LIG     1      22.673  22.155  21.282  1.00  0.00     0.002 A 
HETATM   16  C   LIG     1      23.781  22.896  20.863  1.00  0.00     0.024 A 
HETATM   17  C   LIG     1      24.972  22.865  21.598  1.00  0.00     0.045 A 
HETATM   18 CL   LIG     1      26.329  23.839  21.042  1.00  0.00    -0.083 Cl
ENDBRANCH   4  12
TORSDOF 2
ENDMDL
MODEL 14
REMARK VINA RESULT:      -5.5     16.269     17.957
REMARK  2 active torsions:
REMARK  status: ('A' for Active; 'I' for Inactive)
REMARK    1  A    between atoms: C_4  and  C_5 
REMARK    2  A    between atoms: C_4  and  C_12 
ROOT
HETATM    1 CL   LIG     1      29.472  22.318  27.092  1.00  0.00    -0.070 Cl
HETATM    2  C   LIG     1      29.145  23.674  28.166  1.00  0.00     0.115 C 
HETATM    3 CL   LIG     1      30.553  24.551  28.759  1.00  0.00    -0.070 Cl
HETATM    4  C   LIG     1      27.892  24.010  28.543  1.00  0.00     0.019 C 
ENDROOT
BRANCH   4   5
HETATM    5  C   LIG     1      26.700  23.316  27.996  1.00  0.00    -0.022 A 
HETATM    6  C   LIG     1      26.158  22.193  28.647  1.00  0.00     0.014 A 
HETATM    7  C   LIG     1      25.057  21.525  28.105  1.00  0.00     0.024 A 
HETATM    8  C   LIG     1      24.493  21.964  26.903  1.00  0.00     0.034 A 
HETATM    9  C   LIG     1      25.035  23.070  26.241  1.00  0.00     0.024 A 
HETATM   10 CL   LIG     1      23.112  21.123  26.223  1.00  0.00    -0.084 Cl
HETATM   11  C   LIG     1      26.137  23.739  26.781  1.00  0.00     0.014 A 
ENDBRANCH   4   5
BRANCH   4  12
HETATM   12  C   LIG     1      27.666  25.063  29.561  1.00  0.00    -0.001 A 
HETATM   13  C   LIG     1      27.353  26.368  29.147  1.00  0.00     0.014 A 
HETATM   14  C   LIG     1      27.165  27.383  30.089  1.00  0.00     0.001 A 
HETATM   15  C   LIG     1      27.291  27.105  31.451  1.00  0.00     0.002 A 
HETATM   16  C   LIG     1      27.606  25.811  31.875  1.00  0.00     0.024 A 
HETATM   17  C   LIG     1      27.798  24.787  30.939  1.00  0.00     0.045 A 
HETATM   18 CL   LIG     1      28.166  23.170  31.527  1.00  0.00    -0.083 Cl
ENDBRANCH   4  12
TORSDOF 2
ENDMDL
MODEL 15
REMARK VINA RESULT:      -5.4     15.384     17.058
REMARK  2 active torsions:
REMARK  status: ('A' for Active; 'I' for Inactive)
REMARK    1  A    between atoms: C_4  and  C_5 
REMARK    2  A    between atoms: C_4  and  C_12 
ROOT
HETATM    1 CL   LIG     1      28.606  20.885  23.201  1.00  0.00    -0.070 Cl
HETATM    2  C   LIG     1      28.235  22.042  21.927  1.00  0.00     0.115 C 
HETATM    3 CL   LIG     1      28.578  21.519  20.281  1.00  0.00    -0.070 Cl
HETATM    4  C   LIG     1      27.745  23.273  22.191  1.00  0.00     0.019 C 
ENDROOT
BRANCH   4   5
HETATM    5  C   LIG     1      27.395  23.694  23.570  1.00  0.00    -0.022 A 
HETATM    6  C   LIG     1      26.182  23.297  24.160  1.00  0.00     0.014 A 
HETATM    7  C   LIG     1      25.846  23.729  25.446  1.00  0.00     0.024 A 
HETATM    8  C   LIG     1      26.713  24.570  26.151  1.00  0.00     0.034 A 
HETATM    9  C   LIG     1      27.915  24.983  25.566  1.00  0.00     0.024 A 
HETATM   10 CL   LIG     1      26.290  25.112  27.765  1.00  0.00    -0.084 Cl
HETATM   11  C   LIG     1      28.252  24.552  24.280  1.00  0.00     0.014 A 
ENDBRANCH   4   5
BRANCH   4  12
HETATM   12  C   LIG     1      27.584  24.270  21.107  1.00  0.00    -0.001 A 
HETATM   13  C   LIG     1      26.341  24.397  20.464  1.00  0.00     0.014 A 
HETATM   14  C   LIG     1      26.175  25.310  19.420  1.00  0.00     0.001 A 
HETATM   15  C   LIG     1      27.247  26.101  19.005  1.00  0.00     0.002 A 
HETATM   16  C   LIG     1      28.489  25.982  19.633  1.00  0.00     0.024 A 
HETATM   17  C   LIG     1      28.667  25.069  20.681  1.00  0.00     0.045 A 
HETATM   18 CL   LIG     1      30.244  24.976  21.457  1.00  0.00    -0.083 Cl
ENDBRANCH   4  12
TORSDOF 2
ENDMDL
MODEL 16
REMARK VINA RESULT:      -5.3     18.741     20.734
REMARK  2 active torsions:
REMARK  status: ('A' for Active; 'I' for Inactive)
REMARK    1  A    between atoms: C_4  and  C_5 
REMARK    2  A    between atoms: C_4  and  C_12 
ROOT
HETATM    1 CL   LIG     1      20.061  23.495  32.521  1.00  0.00    -0.070 Cl
HETATM    2  C   LIG     1      19.915  22.540  33.994  1.00  0.00     0.115 C 
HETATM    3 CL   LIG     1      19.454  23.422  35.447  1.00  0.00    -0.070 Cl
HETATM    4  C   LIG     1      20.171  21.214  34.022  1.00  0.00     0.019 C 
ENDROOT
BRANCH   4   5
HETATM    5  C   LIG     1      20.498  20.456  32.789  1.00  0.00    -0.022 A 
HETATM    6  C   LIG     1      21.790  19.940  32.581  1.00  0.00     0.014 A 
HETATM    7  C   LIG     1      22.097  19.259  31.400  1.00  0.00     0.024 A 
HETATM    8  C   LIG     1      21.122  19.094  30.412  1.00  0.00     0.034 A 
HETATM    9  C   LIG     1      19.839  19.617  30.603  1.00  0.00     0.024 A 
HETATM   10 CL   LIG     1      21.510  18.239  28.930  1.00  0.00    -0.084 Cl
HETATM   11  C   LIG     1      19.530  20.300  31.783  1.00  0.00     0.014 A 
ENDBRANCH   4   5
BRANCH   4  12
HETATM   12  C   LIG     1      20.180  20.474  35.306  1.00  0.00    -0.001 A 
HETATM   13  C   LIG     1      19.029  19.776  35.708  1.00  0.00     0.014 A 
HETATM   14  C   LIG     1      19.006  19.095  36.928  1.00  0.00     0.001 A 
HETATM   15  C   LIG     1      20.128  19.109  37.759  1.00  0.00     0.002 A 
HETATM   16  C   LIG     1      21.277  19.802  37.371  1.00  0.00     0.024 A 
HETATM   17  C   LIG     1      21.311  20.489  36.150  1.00  0.00     0.045 A 
HETATM   18 CL   LIG     1      22.792  21.325  35.696  1.00  0.00    -0.083 Cl
ENDBRANCH   4  12
TORSDOF 2
ENDMDL
MODEL 17
REMARK VINA RESULT:      -5.3     16.044     17.571
REMARK  2 active torsions:
REMARK  status: ('A' for Active; 'I' for Inactive)
REMARK    1  A    between atoms: C_4  and  C_5 
REMARK    2  A    between atoms: C_4  and  C_12 
ROOT
HETATM    1 CL   LIG     1      27.036  19.398  22.837  1.00  0.00    -0.070 Cl
HETATM    2  C   LIG     1      26.014  19.819  24.208  1.00  0.00     0.115 C 
HETATM    3 CL   LIG     1      26.661  19.442  25.802  1.00  0.00    -0.070 Cl
HETATM    4  C   LIG     1      24.791  20.370  24.053  1.00  0.00     0.019 C 
ENDROOT
BRANCH   4   5
HETATM    5  C   LIG     1      24.268  20.747  22.717  1.00  0.00    -0.022 A 
HETATM    6  C   LIG     1      23.709  19.780  21.862  1.00  0.00     0.014 A 
HETATM    7  C   LIG     1      23.252  20.139  20.591  1.00  0.00     0.024 A 
HETATM    8  C   LIG     1      23.358  21.464  20.157  1.00  0.00     0.034 A 
HETATM    9  C   LIG     1      23.927  22.430  20.994  1.00  0.00     0.024 A 
HETATM   10 CL   LIG     1      22.785  21.913  18.561  1.00  0.00    -0.084 Cl
HETATM   11  C   LIG     1      24.385  22.072  22.265  1.00  0.00     0.014 A 
ENDBRANCH   4   5
BRANCH   4  12
HETATM   12  C   LIG     1      23.901  20.575  25.220  1.00  0.00    -0.001 A 
HETATM   13  C   LIG     1      22.920  19.613  25.517  1.00  0.00     0.014 A 
HETATM   14  C   LIG     1      22.051  19.800  26.595  1.00  0.00     0.001 A 
HETATM   15  C   LIG     1      22.151  20.947  27.384  1.00  0.00     0.002 A 
HETATM   16  C   LIG     1      23.120  21.912  27.097  1.00  0.00     0.024 A 
HETATM   17  C   LIG     1      23.995  21.735  26.018  1.00  0.00     0.045 A 
HETATM   18 CL   LIG     1      25.215  22.967  25.715  1.00  0.00    -0.083 Cl
ENDBRANCH   4  12
TORSDOF 2
ENDMDL
MODEL 18
REMARK VINA RESULT:      -5.3     18.986     21.068
REMARK  2 active torsions:
REMARK  status: ('A' for Active; 'I' for Inactive)
REMARK    1  A    between atoms: C_4  and  C_5 
REMARK    2  A    between atoms: C_4  and  C_12 
ROOT
HETATM    1 CL   LIG     1      20.158  23.478  32.853  1.00  0.00    -0.070 Cl
HETATM    2  C   LIG     1      20.315  22.593  34.367  1.00  0.00     0.115 C 
HETATM    3 CL   LIG     1      20.002  23.511  35.837  1.00  0.00    -0.070 Cl
HETATM    4  C   LIG     1      20.682  21.294  34.409  1.00  0.00     0.019 C 
ENDROOT
BRANCH   4   5
HETATM    5  C   LIG     1      20.885  20.500  33.172  1.00  0.00    -0.022 A 
HETATM    6  C   LIG     1      19.797  20.147  32.354  1.00  0.00     0.014 A 
HETATM    7  C   LIG     1      19.995  19.369  31.210  1.00  0.00     0.024 A 
HETATM    8  C   LIG     1      21.278  18.927  30.877  1.00  0.00     0.034 A 
HETATM    9  C   LIG     1      22.365  19.259  31.693  1.00  0.00     0.024 A 
HETATM   10 CL   LIG     1      21.525  17.949  29.442  1.00  0.00    -0.084 Cl
HETATM   11  C   LIG     1      22.169  20.037  32.838  1.00  0.00     0.014 A 
ENDBRANCH   4   5
BRANCH   4  12
HETATM   12  C   LIG     1      20.946  20.625  35.704  1.00  0.00    -0.001 A 
HETATM   13  C   LIG     1      22.217  20.737  36.293  1.00  0.00     0.014 A 
HETATM   14  C   LIG     1      22.497  20.090  37.500  1.00  0.00     0.001 A 
HETATM   15  C   LIG     1      21.514  19.324  38.127  1.00  0.00     0.002 A 
HETATM   16  C   LIG     1      20.247  19.202  37.550  1.00  0.00     0.024 A 
HETATM   17  C   LIG     1      19.956  19.845  36.340  1.00  0.00     0.045 A 
HETATM   18 CL   LIG     1      18.337  19.682  35.669  1.00  0.00    -0.083 Cl
ENDBRANCH   4  12
TORSDOF 2
ENDMDL
MODEL 19
REMARK VINA RESULT:      -5.2     18.363     20.540
REMARK  2 active torsions:
REMARK  status: ('A' for Active; 'I' for Inactive)
REMARK    1  A    between atoms: C_4  and  C_5 
REMARK    2  A    between atoms: C_4  and  C_12 
ROOT
HETATM    1 CL   LIG     1      19.226  23.427  32.493  1.00  0.00    -0.070 Cl
HETATM    2  C   LIG     1      20.462  22.544  33.383  1.00  0.00     0.115 C 
HETATM    3 CL   LIG     1      21.401  23.481  34.542  1.00  0.00    -0.070 Cl
HETATM    4  C   LIG     1      20.703  21.232  33.173  1.00  0.00     0.019 C 
ENDROOT
BRANCH   4   5
HETATM    5  C   LIG     1      19.874  20.425  32.245  1.00  0.00    -0.022 A 
HETATM    6  C   LIG     1      19.552  20.904  30.962  1.00  0.00     0.014 A 
HETATM    7  C   LIG     1      18.741  20.151  30.109  1.00  0.00     0.024 A 
HETATM    8  C   LIG     1      18.234  18.918  30.531  1.00  0.00     0.034 A 
HETATM    9  C   LIG     1      18.535  18.441  31.811  1.00  0.00     0.024 A 
HETATM   10 CL   LIG     1      17.215  17.975  29.460  1.00  0.00    -0.084 Cl
HETATM   11  C   LIG     1      19.347  19.193  32.666  1.00  0.00     0.014 A 
ENDBRANCH   4   5
BRANCH   4  12
HETATM   12  C   LIG     1      21.847  20.559  33.833  1.00  0.00    -0.001 A 
HETATM   13  C   LIG     1      23.027  20.332  33.105  1.00  0.00     0.014 A 
HETATM   14  C   LIG     1      24.107  19.673  33.699  1.00  0.00     0.001 A 
HETATM   15  C   LIG     1      24.018  19.233  35.020  1.00  0.00     0.002 A 
HETATM   16  C   LIG     1      22.849  19.450  35.753  1.00  0.00     0.024 A 
HETATM   17  C   LIG     1      21.760  20.108  35.167  1.00  0.00     0.045 A 
HETATM   18 CL   LIG     1      20.319  20.381  36.142  1.00  0.00    -0.083 Cl
ENDBRANCH   4  12
TORSDOF 2
ENDMDL
MODEL 20
REMARK VINA RESULT:      -5.2     15.559     17.299
REMARK  2 active torsions:
REMARK  status: ('A' for Active; 'I' for Inactive)
REMARK    1  A    between atoms: C_4  and  C_5 
REMARK    2  A    between atoms: C_4  and  C_12 
ROOT
HETATM    1 CL   LIG     1      27.692  19.972  21.758  1.00  0.00    -0.070 Cl
HETATM    2  C   LIG     1      27.641  21.484  20.857  1.00  0.00     0.115 C 
HETATM    3 CL   LIG     1      28.460  21.484  19.298  1.00  0.00    -0.070 Cl
HETATM    4  C   LIG     1      27.039  22.592  21.340  1.00  0.00     0.019 C 
ENDROOT
BRANCH   4   5
HETATM    5  C   LIG     1      26.294  22.578  22.623  1.00  0.00    -0.022 A 
HETATM    6  C   LIG     1      26.888  23.052  23.807  1.00  0.00     0.014 A 
HETATM    7  C   LIG     1      26.190  23.002  25.017  1.00  0.00     0.024 A 
HETATM    8  C   LIG     1      24.898  22.470  25.059  1.00  0.00     0.034 A 
HETATM    9  C   LIG     1      24.306  21.981  23.890  1.00  0.00     0.024 A 
HETATM   10 CL   LIG     1      24.025  22.407  26.579  1.00  0.00    -0.084 Cl
HETATM   11  C   LIG     1      25.002  22.030  22.679  1.00  0.00     0.014 A 
ENDBRANCH   4   5
BRANCH   4  12
HETATM   12  C   LIG     1      27.143  23.883  20.621  1.00  0.00    -0.001 A 
HETATM   13  C   LIG     1      26.106  24.279  19.760  1.00  0.00     0.014 A 
HETATM   14  C   LIG     1      26.197  25.479  19.049  1.00  0.00     0.001 A 
HETATM   15  C   LIG     1      27.324  26.291  19.187  1.00  0.00     0.002 A 
HETATM   16  C   LIG     1      28.364  25.906  20.038  1.00  0.00     0.024 A 
HETATM   17  C   LIG     1      28.283  24.705  20.754  1.00  0.00     0.045 A 
HETATM   18 CL   LIG     1      29.607  24.278  21.832  1.00  0.00    -0.083 Cl
ENDBRANCH   4  12
TORSDOF 2
ENDMDL
