REMARK  2 active torsions:
REMARK  status: ('A' for Active; 'I' for Inactive)
REMARK    1  A    between atoms: C_4  and  C_5 
REMARK    2  A    between atoms: C_4  and  C_12 
ROOT
HETATM    1 CL   LIG     1       1.588  -3.422   0.091  1.00  0.00    -0.070 Cl
HETATM    2  C   LIG     1       0.174  -2.476   0.545  1.00  0.00     0.115 C 
HETATM    3 CL   LIG     1      -1.136  -3.363   1.319  1.00  0.00    -0.070 Cl
HETATM    4  C   LIG     1       0.079  -1.153   0.290  1.00  0.00     0.019 C 
ENDROOT
BRANCH   4   5
HETATM    5  C   LIG     1       1.204  -0.390  -0.304  1.00  0.00    -0.022 A 
HETATM    6  C   LIG     1       2.468  -0.371   0.312  1.00  0.00     0.014 A 
HETATM    7  C   LIG     1       3.511   0.380  -0.237  1.00  0.00     0.024 A 
HETATM    8  C   LIG     1       3.300   1.127  -1.400  1.00  0.00     0.034 A 
HETATM    9  C   LIG     1       2.042   1.127  -2.011  1.00  0.00     0.024 A 
HETATM   10 CL   LIG     1       4.610   2.070  -2.087  1.00  0.00    -0.084 Cl
HETATM   11  C   LIG     1       0.997   0.377  -1.463  1.00  0.00     0.014 A 
ENDBRANCH   4   5
BRANCH   4  12
HETATM   12  C   LIG     1      -1.183  -0.422   0.553  1.00  0.00    -0.001 A 
HETATM   13  C   LIG     1      -2.316  -0.697  -0.231  1.00  0.00     0.014 A 
HETATM   14  C   LIG     1      -3.508   0.001  -0.020  1.00  0.00     0.001 A 
HETATM   15  C   LIG     1      -3.579   0.981   0.971  1.00  0.00     0.002 A 
HETATM   16  C   LIG     1      -2.458   1.266   1.755  1.00  0.00     0.024 A 
HETATM   17  C   LIG     1      -1.258   0.573   1.551  1.00  0.00     0.045 A 
HETATM   18 CL   LIG     1       0.117   0.951   2.583  1.00  0.00    -0.083 Cl
ENDBRANCH   4  12
TORSDOF 2
