MODEL 1
REMARK VINA RESULT:      -6.0      0.000      0.000
REMARK  5 active torsions:
REMARK  status: ('A' for Active; 'I' for Inactive)
REMARK    1  A    between atoms: C_3  and  C_4 
REMARK    2  A    between atoms: C_4  and  C_5 
REMARK    3  A    between atoms: C_5  and  C_6 
REMARK    4  A    between atoms: C_6  and  C_7 
REMARK    5  A    between atoms: C_7  and  C_8 
ROOT
HETATM    1  C   LIG     1      20.151  38.859  19.630  1.00  0.00     0.012 C 
HETATM    2  C   LIG     1      19.401  39.041  20.555  1.00  0.00    -0.117 C 
HETATM    3  C   LIG     1      18.488  39.261  21.682  1.00  0.00     0.093 C 
ENDROOT
BRANCH   3   4
HETATM    4  C   LIG     1      17.550  38.063  21.855  1.00  0.00     0.012 C 
BRANCH   4   5
HETATM    5  C   LIG     1      16.923  38.054  23.256  1.00  0.00     0.001 C 
BRANCH   5   6
HETATM    6  C   LIG     1      17.971  38.109  24.381  1.00  0.00     0.000 C 
BRANCH   6   7
HETATM    7  C   LIG     1      17.496  37.571  25.746  1.00  0.00    -0.000 C 
BRANCH   7   8
HETATM    8  C   LIG     1      18.455  36.576  26.422  1.00  0.00    -0.005 C 
HETATM    9  C   LIG     1      18.070  35.117  26.176  1.00  0.00     0.005 C 
ENDBRANCH   7   8
ENDBRANCH   6   7
ENDBRANCH   5   6
ENDBRANCH   4   5
ENDBRANCH   3   4
TORSDOF 5
ENDMDL
MODEL 2
REMARK VINA RESULT:      -5.8      1.749      4.806
REMARK  5 active torsions:
REMARK  status: ('A' for Active; 'I' for Inactive)
REMARK    1  A    between atoms: C_3  and  C_4 
REMARK    2  A    between atoms: C_4  and  C_5 
REMARK    3  A    between atoms: C_5  and  C_6 
REMARK    4  A    between atoms: C_6  and  C_7 
REMARK    5  A    between atoms: C_7  and  C_8 
ROOT
HETATM    1  C   LIG     1      17.936  34.706  26.181  1.00  0.00     0.012 C 
HETATM    2  C   LIG     1      18.102  35.895  26.077  1.00  0.00    -0.117 C 
HETATM    3  C   LIG     1      18.302  37.344  25.950  1.00  0.00     0.093 C 
ENDROOT
BRANCH   3   4
HETATM    4  C   LIG     1      17.212  37.960  25.069  1.00  0.00     0.012 C 
BRANCH   4   5
HETATM    5  C   LIG     1      17.792  38.433  23.728  1.00  0.00     0.001 C 
BRANCH   5   6
HETATM    6  C   LIG     1      16.890  38.089  22.531  1.00  0.00     0.000 C 
BRANCH   6   7
HETATM    7  C   LIG     1      17.574  37.286  21.406  1.00  0.00    -0.000 C 
BRANCH   7   8
HETATM    8  C   LIG     1      17.064  35.845  21.234  1.00  0.00    -0.005 C 
HETATM    9  C   LIG     1      16.931  35.098  22.561  1.00  0.00     0.005 C 
ENDBRANCH   7   8
ENDBRANCH   6   7
ENDBRANCH   5   6
ENDBRANCH   4   5
ENDBRANCH   3   4
TORSDOF 5
ENDMDL
MODEL 3
REMARK VINA RESULT:      -5.8      0.766      5.312
REMARK  5 active torsions:
REMARK  status: ('A' for Active; 'I' for Inactive)
REMARK    1  A    between atoms: C_3  and  C_4 
REMARK    2  A    between atoms: C_4  and  C_5 
REMARK    3  A    between atoms: C_5  and  C_6 
REMARK    4  A    between atoms: C_6  and  C_7 
REMARK    5  A    between atoms: C_7  and  C_8 
ROOT
HETATM    1  C   LIG     1      17.537  34.761  26.088  1.00  0.00     0.012 C 
HETATM    2  C   LIG     1      17.943  35.880  25.896  1.00  0.00    -0.117 C 
HETATM    3  C   LIG     1      18.437  37.241  25.663  1.00  0.00     0.093 C 
ENDROOT
BRANCH   3   4
HETATM    4  C   LIG     1      17.381  38.076  24.932  1.00  0.00     0.012 C 
BRANCH   4   5
HETATM    5  C   LIG     1      17.063  37.474  23.556  1.00  0.00     0.001 C 
BRANCH   5   6
HETATM    6  C   LIG     1      17.169  38.500  22.414  1.00  0.00     0.000 C 
BRANCH   6   7
HETATM    7  C   LIG     1      18.593  39.022  22.133  1.00  0.00    -0.000 C 
BRANCH   7   8
HETATM    8  C   LIG     1      18.815  39.572  20.714  1.00  0.00    -0.005 C 
HETATM    9  C   LIG     1      19.759  38.706  19.880  1.00  0.00     0.005 C 
ENDBRANCH   7   8
ENDBRANCH   6   7
ENDBRANCH   5   6
ENDBRANCH   4   5
ENDBRANCH   3   4
TORSDOF 5
ENDMDL
MODEL 4
REMARK VINA RESULT:      -5.7      1.635      2.177
REMARK  5 active torsions:
REMARK  status: ('A' for Active; 'I' for Inactive)
REMARK    1  A    between atoms: C_3  and  C_4 
REMARK    2  A    between atoms: C_4  and  C_5 
REMARK    3  A    between atoms: C_5  and  C_6 
REMARK    4  A    between atoms: C_6  and  C_7 
REMARK    5  A    between atoms: C_7  and  C_8 
ROOT
HETATM    1  C   LIG     1      18.902  39.103  20.752  1.00  0.00     0.012 C 
HETATM    2  C   LIG     1      18.461  37.982  20.716  1.00  0.00    -0.117 C 
HETATM    3  C   LIG     1      17.924  36.617  20.673  1.00  0.00     0.093 C 
ENDROOT
BRANCH   3   4
HETATM    4  C   LIG     1      16.754  36.471  21.650  1.00  0.00     0.012 C 
BRANCH   4   5
HETATM    5  C   LIG     1      17.031  35.361  22.674  1.00  0.00     0.001 C 
BRANCH   5   6
HETATM    6  C   LIG     1      17.011  35.868  24.127  1.00  0.00     0.000 C 
BRANCH   6   7
HETATM    7  C   LIG     1      17.425  34.829  25.188  1.00  0.00    -0.000 C 
BRANCH   7   8
HETATM    8  C   LIG     1      18.124  35.411  26.430  1.00  0.00    -0.005 C 
HETATM    9  C   LIG     1      18.563  36.862  26.240  1.00  0.00     0.005 C 
ENDBRANCH   7   8
ENDBRANCH   6   7
ENDBRANCH   5   6
ENDBRANCH   4   5
ENDBRANCH   3   4
TORSDOF 5
ENDMDL
MODEL 5
REMARK VINA RESULT:      -5.5      2.462      3.067
REMARK  5 active torsions:
REMARK  status: ('A' for Active; 'I' for Inactive)
REMARK    1  A    between atoms: C_3  and  C_4 
REMARK    2  A    between atoms: C_4  and  C_5 
REMARK    3  A    between atoms: C_5  and  C_6 
REMARK    4  A    between atoms: C_6  and  C_7 
REMARK    5  A    between atoms: C_7  and  C_8 
ROOT
HETATM    1  C   LIG     1      15.781  35.118  20.060  1.00  0.00     0.012 C 
HETATM    2  C   LIG     1      16.210  35.212  21.182  1.00  0.00    -0.117 C 
HETATM    3  C   LIG     1      16.732  35.328  22.548  1.00  0.00     0.093 C 
ENDROOT
BRANCH   3   4
HETATM    4  C   LIG     1      17.161  36.770  22.838  1.00  0.00     0.012 C 
BRANCH   4   5
HETATM    5  C   LIG     1      16.487  37.296  24.113  1.00  0.00     0.001 C 
BRANCH   5   6
HETATM    6  C   LIG     1      17.452  38.080  25.019  1.00  0.00     0.000 C 
BRANCH   6   7
HETATM    7  C   LIG     1      18.605  37.251  25.620  1.00  0.00    -0.000 C 
BRANCH   7   8
HETATM    8  C   LIG     1      18.188  36.258  26.719  1.00  0.00    -0.005 C 
HETATM    9  C   LIG     1      18.430  34.801  26.326  1.00  0.00     0.005 C 
ENDBRANCH   7   8
ENDBRANCH   6   7
ENDBRANCH   5   6
ENDBRANCH   4   5
ENDBRANCH   3   4
TORSDOF 5
ENDMDL
MODEL 6
REMARK VINA RESULT:      -5.2      1.991      3.101
REMARK  5 active torsions:
REMARK  status: ('A' for Active; 'I' for Inactive)
REMARK    1  A    between atoms: C_3  and  C_4 
REMARK    2  A    between atoms: C_4  and  C_5 
REMARK    3  A    between atoms: C_5  and  C_6 
REMARK    4  A    between atoms: C_6  and  C_7 
REMARK    5  A    between atoms: C_7  and  C_8 
ROOT
HETATM    1  C   LIG     1      19.285  37.757  19.337  1.00  0.00     0.012 C 
HETATM    2  C   LIG     1      19.051  38.411  20.322  1.00  0.00    -0.117 C 
HETATM    3  C   LIG     1      18.766  39.207  21.522  1.00  0.00     0.093 C 
ENDROOT
BRANCH   3   4
HETATM    4  C   LIG     1      17.383  38.858  22.079  1.00  0.00     0.012 C 
BRANCH   4   5
HETATM    5  C   LIG     1      17.503  38.061  23.386  1.00  0.00     0.001 C 
BRANCH   5   6
HETATM    6  C   LIG     1      16.569  36.840  23.431  1.00  0.00     0.000 C 
BRANCH   6   7
HETATM    7  C   LIG     1      17.128  35.564  22.769  1.00  0.00    -0.000 C 
BRANCH   7   8
HETATM    8  C   LIG     1      16.733  35.370  21.295  1.00  0.00    -0.005 C 
HETATM    9  C   LIG     1      15.238  35.565  21.048  1.00  0.00     0.005 C 
ENDBRANCH   7   8
ENDBRANCH   6   7
ENDBRANCH   5   6
ENDBRANCH   4   5
ENDBRANCH   3   4
TORSDOF 5
ENDMDL
MODEL 7
REMARK VINA RESULT:      -5.0      2.426      4.739
REMARK  5 active torsions:
REMARK  status: ('A' for Active; 'I' for Inactive)
REMARK    1  A    between atoms: C_3  and  C_4 
REMARK    2  A    between atoms: C_4  and  C_5 
REMARK    3  A    between atoms: C_5  and  C_6 
REMARK    4  A    between atoms: C_6  and  C_7 
REMARK    5  A    between atoms: C_7  and  C_8 
ROOT
HETATM    1  C   LIG     1      15.728  34.975  19.570  1.00  0.00     0.012 C 
HETATM    2  C   LIG     1      15.980  35.017  20.747  1.00  0.00    -0.117 C 
HETATM    3  C   LIG     1      16.286  35.069  22.181  1.00  0.00     0.093 C 
ENDROOT
BRANCH   3   4
HETATM    4  C   LIG     1      17.162  36.284  22.498  1.00  0.00     0.012 C 
BRANCH   4   5
HETATM    5  C   LIG     1      16.302  37.491  22.900  1.00  0.00     0.001 C 
BRANCH   5   6
HETATM    6  C   LIG     1      16.811  38.814  22.303  1.00  0.00     0.000 C 
BRANCH   6   7
HETATM    7  C   LIG     1      18.330  38.872  22.040  1.00  0.00    -0.000 C 
BRANCH   7   8
HETATM    8  C   LIG     1      18.726  39.143  20.578  1.00  0.00    -0.005 C 
HETATM    9  C   LIG     1      19.012  37.864  19.792  1.00  0.00     0.005 C 
ENDBRANCH   7   8
ENDBRANCH   6   7
ENDBRANCH   5   6
ENDBRANCH   4   5
ENDBRANCH   3   4
TORSDOF 5
ENDMDL
MODEL 8
REMARK VINA RESULT:      -4.9      3.774      5.487
REMARK  5 active torsions:
REMARK  status: ('A' for Active; 'I' for Inactive)
REMARK    1  A    between atoms: C_3  and  C_4 
REMARK    2  A    between atoms: C_4  and  C_5 
REMARK    3  A    between atoms: C_5  and  C_6 
REMARK    4  A    between atoms: C_6  and  C_7 
REMARK    5  A    between atoms: C_7  and  C_8 
ROOT
HETATM    1  C   LIG     1      15.100  31.902  19.766  1.00  0.00     0.012 C 
HETATM    2  C   LIG     1      15.401  33.052  19.965  1.00  0.00    -0.117 C 
HETATM    3  C   LIG     1      15.769  34.451  20.207  1.00  0.00     0.093 C 
ENDROOT
BRANCH   3   4
HETATM    4  C   LIG     1      15.971  34.700  21.705  1.00  0.00     0.012 C 
BRANCH   4   5
HETATM    5  C   LIG     1      17.216  35.564  21.954  1.00  0.00     0.001 C 
BRANCH   5   6
HETATM    6  C   LIG     1      17.651  36.360  20.712  1.00  0.00     0.000 C 
BRANCH   6   7
HETATM    7  C   LIG     1      18.157  37.789  20.994  1.00  0.00    -0.000 C 
BRANCH   7   8
HETATM    8  C   LIG     1      17.832  38.328  22.398  1.00  0.00    -0.005 C 
HETATM    9  C   LIG     1      16.437  38.946  22.489  1.00  0.00     0.005 C 
ENDBRANCH   7   8
ENDBRANCH   6   7
ENDBRANCH   5   6
ENDBRANCH   4   5
ENDBRANCH   3   4
TORSDOF 5
ENDMDL
MODEL 9
REMARK VINA RESULT:      -4.7      8.930     10.962
REMARK  5 active torsions:
REMARK  status: ('A' for Active; 'I' for Inactive)
REMARK    1  A    between atoms: C_3  and  C_4 
REMARK    2  A    between atoms: C_4  and  C_5 
REMARK    3  A    between atoms: C_5  and  C_6 
REMARK    4  A    between atoms: C_6  and  C_7 
REMARK    5  A    between atoms: C_7  and  C_8 
ROOT
HETATM    1  C   LIG     1      15.286  32.082  19.741  1.00  0.00     0.012 C 
HETATM    2  C   LIG     1      14.965  32.279  18.596  1.00  0.00    -0.117 C 
HETATM    3  C   LIG     1      14.574  32.519  17.202  1.00  0.00     0.093 C 
ENDROOT
BRANCH   3   4
HETATM    4  C   LIG     1      13.488  31.527  16.772  1.00  0.00     0.012 C 
BRANCH   4   5
HETATM    5  C   LIG     1      13.955  30.689  15.573  1.00  0.00     0.001 C 
BRANCH   5   6
HETATM    6  C   LIG     1      15.395  31.014  15.140  1.00  0.00     0.000 C 
BRANCH   6   7
HETATM    7  C   LIG     1      15.554  31.448  13.669  1.00  0.00    -0.000 C 
BRANCH   7   8
HETATM    8  C   LIG     1      16.615  32.534  13.423  1.00  0.00    -0.005 C 
HETATM    9  C   LIG     1      17.275  33.024  14.711  1.00  0.00     0.005 C 
ENDBRANCH   7   8
ENDBRANCH   6   7
ENDBRANCH   5   6
ENDBRANCH   4   5
ENDBRANCH   3   4
TORSDOF 5
ENDMDL
MODEL 10
REMARK VINA RESULT:      -4.5      3.020      5.967
REMARK  5 active torsions:
REMARK  status: ('A' for Active; 'I' for Inactive)
REMARK    1  A    between atoms: C_3  and  C_4 
REMARK    2  A    between atoms: C_4  and  C_5 
REMARK    3  A    between atoms: C_5  and  C_6 
REMARK    4  A    between atoms: C_6  and  C_7 
REMARK    5  A    between atoms: C_7  and  C_8 
ROOT
HETATM    1  C   LIG     1      15.475  34.484  19.396  1.00  0.00     0.012 C 
HETATM    2  C   LIG     1      15.553  35.142  20.402  1.00  0.00    -0.117 C 
HETATM    3  C   LIG     1      15.648  35.945  21.627  1.00  0.00     0.093 C 
ENDROOT
BRANCH   3   4
HETATM    4  C   LIG     1      17.114  36.211  21.981  1.00  0.00     0.012 C 
BRANCH   4   5
HETATM    5  C   LIG     1      17.684  37.355  21.130  1.00  0.00     0.001 C 
BRANCH   5   6
HETATM    6  C   LIG     1      18.590  36.859  19.990  1.00  0.00     0.000 C 
BRANCH   6   7
HETATM    7  C   LIG     1      19.634  37.879  19.492  1.00  0.00    -0.000 C 
BRANCH   7   8
HETATM    8  C   LIG     1      19.051  39.209  18.983  1.00  0.00    -0.005 C 
HETATM    9  C   LIG     1      18.868  39.238  17.466  1.00  0.00     0.005 C 
ENDBRANCH   7   8
ENDBRANCH   6   7
ENDBRANCH   5   6
ENDBRANCH   4   5
ENDBRANCH   3   4
TORSDOF 5
ENDMDL
MODEL 11
REMARK VINA RESULT:      -4.5      4.266      5.699
REMARK  5 active torsions:
REMARK  status: ('A' for Active; 'I' for Inactive)
REMARK    1  A    between atoms: C_3  and  C_4 
REMARK    2  A    between atoms: C_4  and  C_5 
REMARK    3  A    between atoms: C_5  and  C_6 
REMARK    4  A    between atoms: C_6  and  C_7 
REMARK    5  A    between atoms: C_7  and  C_8 
ROOT
HETATM    1  C   LIG     1      18.899  38.818  20.891  1.00  0.00     0.012 C 
HETATM    2  C   LIG     1      18.348  37.749  20.821  1.00  0.00    -0.117 C 
HETATM    3  C   LIG     1      17.676  36.447  20.735  1.00  0.00     0.093 C 
ENDROOT
BRANCH   3   4
HETATM    4  C   LIG     1      16.688  36.277  21.892  1.00  0.00     0.012 C 
BRANCH   4   5
HETATM    5  C   LIG     1      15.944  34.938  21.786  1.00  0.00     0.001 C 
BRANCH   5   6
HETATM    6  C   LIG     1      15.910  34.384  20.351  1.00  0.00     0.000 C 
BRANCH   6   7
HETATM    7  C   LIG     1      15.284  32.982  20.206  1.00  0.00    -0.000 C 
BRANCH   7   8
HETATM    8  C   LIG     1      15.108  32.496  18.756  1.00  0.00    -0.005 C 
HETATM    9  C   LIG     1      15.035  33.643  17.749  1.00  0.00     0.005 C 
ENDBRANCH   7   8
ENDBRANCH   6   7
ENDBRANCH   5   6
ENDBRANCH   4   5
ENDBRANCH   3   4
TORSDOF 5
ENDMDL
MODEL 12
REMARK VINA RESULT:      -4.4      1.796      2.714
REMARK  5 active torsions:
REMARK  status: ('A' for Active; 'I' for Inactive)
REMARK    1  A    between atoms: C_3  and  C_4 
REMARK    2  A    between atoms: C_4  and  C_5 
REMARK    3  A    between atoms: C_5  and  C_6 
REMARK    4  A    between atoms: C_6  and  C_7 
REMARK    5  A    between atoms: C_7  and  C_8 
ROOT
HETATM    1  C   LIG     1      18.810  37.938  20.293  1.00  0.00     0.012 C 
HETATM    2  C   LIG     1      18.138  36.944  20.409  1.00  0.00    -0.117 C 
HETATM    3  C   LIG     1      17.320  35.734  20.550  1.00  0.00     0.093 C 
ENDROOT
BRANCH   3   4
HETATM    4  C   LIG     1      16.654  35.695  21.928  1.00  0.00     0.012 C 
BRANCH   4   5
HETATM    5  C   LIG     1      15.602  36.806  22.060  1.00  0.00     0.001 C 
BRANCH   5   6
HETATM    6  C   LIG     1      15.909  37.788  23.204  1.00  0.00     0.000 C 
BRANCH   6   7
HETATM    7  C   LIG     1      16.717  37.195  24.377  1.00  0.00    -0.000 C 
BRANCH   7   8
HETATM    8  C   LIG     1      17.815  38.114  24.940  1.00  0.00    -0.005 C 
HETATM    9  C   LIG     1      18.828  38.548  23.881  1.00  0.00     0.005 C 
ENDBRANCH   7   8
ENDBRANCH   6   7
ENDBRANCH   5   6
ENDBRANCH   4   5
ENDBRANCH   3   4
TORSDOF 5
ENDMDL
MODEL 13
REMARK VINA RESULT:      -4.4      6.952      7.954
REMARK  5 active torsions:
REMARK  status: ('A' for Active; 'I' for Inactive)
REMARK    1  A    between atoms: C_3  and  C_4 
REMARK    2  A    between atoms: C_4  and  C_5 
REMARK    3  A    between atoms: C_5  and  C_6 
REMARK    4  A    between atoms: C_6  and  C_7 
REMARK    5  A    between atoms: C_7  and  C_8 
ROOT
HETATM    1  C   LIG     1      12.938  30.628  16.198  1.00  0.00     0.012 C 
HETATM    2  C   LIG     1      13.451  31.608  16.674  1.00  0.00    -0.117 C 
HETATM    3  C   LIG     1      14.077  32.802  17.254  1.00  0.00     0.093 C 
ENDROOT
BRANCH   3   4
HETATM    4  C   LIG     1      15.396  32.436  17.940  1.00  0.00     0.012 C 
BRANCH   4   5
HETATM    5  C   LIG     1      15.143  31.845  19.335  1.00  0.00     0.001 C 
BRANCH   5   6
HETATM    6  C   LIG     1      14.831  32.918  20.392  1.00  0.00     0.000 C 
BRANCH   6   7
HETATM    7  C   LIG     1      15.890  34.031  20.527  1.00  0.00    -0.000 C 
BRANCH   7   8
HETATM    8  C   LIG     1      15.661  35.008  21.693  1.00  0.00    -0.005 C 
HETATM    9  C   LIG     1      16.937  35.306  22.479  1.00  0.00     0.005 C 
ENDBRANCH   7   8
ENDBRANCH   6   7
ENDBRANCH   5   6
ENDBRANCH   4   5
ENDBRANCH   3   4
TORSDOF 5
ENDMDL
MODEL 14
REMARK VINA RESULT:      -4.3      4.512      6.117
REMARK  5 active torsions:
REMARK  status: ('A' for Active; 'I' for Inactive)
REMARK    1  A    between atoms: C_3  and  C_4 
REMARK    2  A    between atoms: C_4  and  C_5 
REMARK    3  A    between atoms: C_5  and  C_6 
REMARK    4  A    between atoms: C_6  and  C_7 
REMARK    5  A    between atoms: C_7  and  C_8 
ROOT
HETATM    1  C   LIG     1      14.940  33.817  17.180  1.00  0.00     0.012 C 
HETATM    2  C   LIG     1      15.204  33.326  18.248  1.00  0.00    -0.117 C 
HETATM    3  C   LIG     1      15.524  32.729  19.550  1.00  0.00     0.093 C 
ENDROOT
BRANCH   3   4
HETATM    4  C   LIG     1      15.164  33.692  20.684  1.00  0.00     0.012 C 
BRANCH   4   5
HETATM    5  C   LIG     1      15.604  35.125  20.348  1.00  0.00     0.001 C 
BRANCH   5   6
HETATM    6  C   LIG     1      17.013  35.456  20.867  1.00  0.00     0.000 C 
BRANCH   6   7
HETATM    7  C   LIG     1      17.199  36.898  21.383  1.00  0.00    -0.000 C 
BRANCH   7   8
HETATM    8  C   LIG     1      18.375  37.666  20.756  1.00  0.00    -0.005 C 
HETATM    9  C   LIG     1      18.954  36.967  19.526  1.00  0.00     0.005 C 
ENDBRANCH   7   8
ENDBRANCH   6   7
ENDBRANCH   5   6
ENDBRANCH   4   5
ENDBRANCH   3   4
TORSDOF 5
ENDMDL
MODEL 15
REMARK VINA RESULT:      -4.3      1.624      5.280
REMARK  5 active torsions:
REMARK  status: ('A' for Active; 'I' for Inactive)
REMARK    1  A    between atoms: C_3  and  C_4 
REMARK    2  A    between atoms: C_4  and  C_5 
REMARK    3  A    between atoms: C_5  and  C_6 
REMARK    4  A    between atoms: C_6  and  C_7 
REMARK    5  A    between atoms: C_7  and  C_8 
ROOT
HETATM    1  C   LIG     1      17.234  38.173  25.759  1.00  0.00     0.012 C 
HETATM    2  C   LIG     1      17.543  37.668  24.709  1.00  0.00    -0.117 C 
HETATM    3  C   LIG     1      17.919  37.054  23.431  1.00  0.00     0.093 C 
ENDROOT
BRANCH   3   4
HETATM    4  C   LIG     1      16.718  36.335  22.808  1.00  0.00     0.012 C 
BRANCH   4   5
HETATM    5  C   LIG     1      16.909  36.157  21.295  1.00  0.00     0.001 C 
BRANCH   5   6
HETATM    6  C   LIG     1      17.782  37.258  20.669  1.00  0.00     0.000 C 
BRANCH   6   7
HETATM    7  C   LIG     1      18.840  36.762  19.662  1.00  0.00    -0.000 C 
BRANCH   7   8
HETATM    8  C   LIG     1      20.081  37.660  19.528  1.00  0.00    -0.005 C 
HETATM    9  C   LIG     1      19.857  39.071  20.071  1.00  0.00     0.005 C 
ENDBRANCH   7   8
ENDBRANCH   6   7
ENDBRANCH   5   6
ENDBRANCH   4   5
ENDBRANCH   3   4
TORSDOF 5
ENDMDL
MODEL 16
REMARK VINA RESULT:      -4.3     10.797     12.232
REMARK  5 active torsions:
REMARK  status: ('A' for Active; 'I' for Inactive)
REMARK    1  A    between atoms: C_3  and  C_4 
REMARK    2  A    between atoms: C_4  and  C_5 
REMARK    3  A    between atoms: C_5  and  C_6 
REMARK    4  A    between atoms: C_6  and  C_7 
REMARK    5  A    between atoms: C_7  and  C_8 
ROOT
HETATM    1  C   LIG     1      14.910  34.063  16.903  1.00  0.00     0.012 C 
HETATM    2  C   LIG     1      14.565  32.913  17.009  1.00  0.00    -0.117 C 
HETATM    3  C   LIG     1      14.146  31.513  17.137  1.00  0.00     0.093 C 
ENDROOT
BRANCH   3   4
HETATM    4  C   LIG     1      13.796  30.931  15.765  1.00  0.00     0.012 C 
BRANCH   4   5
HETATM    5  C   LIG     1      14.900  31.236  14.742  1.00  0.00     0.001 C 
BRANCH   5   6
HETATM    6  C   LIG     1      15.027  30.153  13.657  1.00  0.00     0.000 C 
BRANCH   6   7
HETATM    7  C   LIG     1      15.516  28.779  14.157  1.00  0.00    -0.000 C 
BRANCH   7   8
HETATM    8  C   LIG     1      14.681  27.578  13.677  1.00  0.00    -0.005 C 
HETATM    9  C   LIG     1      13.176  27.809  13.806  1.00  0.00     0.005 C 
ENDBRANCH   7   8
ENDBRANCH   6   7
ENDBRANCH   5   6
ENDBRANCH   4   5
ENDBRANCH   3   4
TORSDOF 5
ENDMDL
MODEL 17
REMARK VINA RESULT:      -4.1      9.850     11.433
REMARK  5 active torsions:
REMARK  status: ('A' for Active; 'I' for Inactive)
REMARK    1  A    between atoms: C_3  and  C_4 
REMARK    2  A    between atoms: C_4  and  C_5 
REMARK    3  A    between atoms: C_5  and  C_6 
REMARK    4  A    between atoms: C_6  and  C_7 
REMARK    5  A    between atoms: C_7  and  C_8 
ROOT
HETATM    1  C   LIG     1      15.401  32.516  19.938  1.00  0.00     0.012 C 
HETATM    2  C   LIG     1      15.138  32.443  18.764  1.00  0.00    -0.117 C 
HETATM    3  C   LIG     1      14.817  32.355  17.335  1.00  0.00     0.093 C 
ENDROOT
BRANCH   3   4
HETATM    4  C   LIG     1      13.326  32.062  17.138  1.00  0.00     0.012 C 
BRANCH   4   5
HETATM    5  C   LIG     1      13.081  31.335  15.808  1.00  0.00     0.001 C 
BRANCH   5   6
HETATM    6  C   LIG     1      14.078  30.190  15.559  1.00  0.00     0.000 C 
BRANCH   6   7
HETATM    7  C   LIG     1      15.208  30.512  14.560  1.00  0.00    -0.000 C 
BRANCH   7   8
HETATM    8  C   LIG     1      15.298  29.564  13.352  1.00  0.00    -0.005 C 
HETATM    9  C   LIG     1      15.329  28.090  13.753  1.00  0.00     0.005 C 
ENDBRANCH   7   8
ENDBRANCH   6   7
ENDBRANCH   5   6
ENDBRANCH   4   5
ENDBRANCH   3   4
TORSDOF 5
ENDMDL
MODEL 18
REMARK VINA RESULT:      -4.0     10.092     12.591
REMARK  5 active torsions:
REMARK  status: ('A' for Active; 'I' for Inactive)
REMARK    1  A    between atoms: C_3  and  C_4 
REMARK    2  A    between atoms: C_4  and  C_5 
REMARK    3  A    between atoms: C_5  and  C_6 
REMARK    4  A    between atoms: C_6  and  C_7 
REMARK    5  A    between atoms: C_7  and  C_8 
ROOT
HETATM    1  C   LIG     1      26.111  38.146  17.612  1.00  0.00     0.012 C 
HETATM    2  C   LIG     1      26.986  38.048  18.435  1.00  0.00    -0.117 C 
HETATM    3  C   LIG     1      28.051  37.929  19.436  1.00  0.00     0.093 C 
ENDROOT
BRANCH   3   4
HETATM    4  C   LIG     1      28.224  39.248  20.194  1.00  0.00     0.012 C 
BRANCH   4   5
HETATM    5  C   LIG     1      28.736  40.354  19.260  1.00  0.00     0.001 C 
BRANCH   5   6
HETATM    6  C   LIG     1      30.207  40.162  18.854  1.00  0.00     0.000 C 
BRANCH   6   7
HETATM    7  C   LIG     1      30.601  40.794  17.504  1.00  0.00    -0.000 C 
BRANCH   7   8
HETATM    8  C   LIG     1      30.310  39.924  16.269  1.00  0.00    -0.005 C 
HETATM    9  C   LIG     1      30.453  38.428  16.548  1.00  0.00     0.005 C 
ENDBRANCH   7   8
ENDBRANCH   6   7
ENDBRANCH   5   6
ENDBRANCH   4   5
ENDBRANCH   3   4
TORSDOF 5
ENDMDL
MODEL 19
REMARK VINA RESULT:      -3.9     12.992     14.373
REMARK  5 active torsions:
REMARK  status: ('A' for Active; 'I' for Inactive)
REMARK    1  A    between atoms: C_3  and  C_4 
REMARK    2  A    between atoms: C_4  and  C_5 
REMARK    3  A    between atoms: C_5  and  C_6 
REMARK    4  A    between atoms: C_6  and  C_7 
REMARK    5  A    between atoms: C_7  and  C_8 
ROOT
HETATM    1  C   LIG     1      12.876  31.694  16.755  1.00  0.00     0.012 C 
HETATM    2  C   LIG     1      13.744  31.202  16.079  1.00  0.00    -0.117 C 
HETATM    3  C   LIG     1      14.800  30.602  15.256  1.00  0.00     0.093 C 
ENDROOT
BRANCH   3   4
HETATM    4  C   LIG     1      14.189  29.773  14.122  1.00  0.00     0.012 C 
BRANCH   4   5
HETATM    5  C   LIG     1      15.052  28.540  13.819  1.00  0.00     0.001 C 
BRANCH   5   6
HETATM    6  C   LIG     1      14.232  27.351  13.290  1.00  0.00     0.000 C 
BRANCH   6   7
HETATM    7  C   LIG     1      12.763  27.308  13.758  1.00  0.00    -0.000 C 
BRANCH   7   8
HETATM    8  C   LIG     1      11.759  26.811  12.705  1.00  0.00    -0.005 C 
HETATM    9  C   LIG     1      12.338  25.728  11.795  1.00  0.00     0.005 C 
ENDBRANCH   7   8
ENDBRANCH   6   7
ENDBRANCH   5   6
ENDBRANCH   4   5
ENDBRANCH   3   4
TORSDOF 5
ENDMDL
MODEL 20
REMARK VINA RESULT:      -3.9      9.387     11.517
REMARK  5 active torsions:
REMARK  status: ('A' for Active; 'I' for Inactive)
REMARK    1  A    between atoms: C_3  and  C_4 
REMARK    2  A    between atoms: C_4  and  C_5 
REMARK    3  A    between atoms: C_5  and  C_6 
REMARK    4  A    between atoms: C_6  and  C_7 
REMARK    5  A    between atoms: C_7  and  C_8 
ROOT
HETATM    1  C   LIG     1      13.780  31.368  17.384  1.00  0.00     0.012 C 
HETATM    2  C   LIG     1      14.553  32.139  16.872  1.00  0.00    -0.117 C 
HETATM    3  C   LIG     1      15.493  33.077  16.247  1.00  0.00     0.093 C 
ENDROOT
BRANCH   3   4
HETATM    4  C   LIG     1      16.542  32.318  15.429  1.00  0.00     0.012 C 
BRANCH   4   5
HETATM    5  C   LIG     1      16.148  32.264  13.946  1.00  0.00     0.001 C 
BRANCH   5   6
HETATM    6  C   LIG     1      17.098  33.071  13.045  1.00  0.00     0.000 C 
BRANCH   6   7
HETATM    7  C   LIG     1      18.387  33.568  13.730  1.00  0.00    -0.000 C 
BRANCH   7   8
HETATM    8  C   LIG     1      19.597  33.736  12.795  1.00  0.00    -0.005 C 
HETATM    9  C   LIG     1      19.379  33.106  11.420  1.00  0.00     0.005 C 
ENDBRANCH   7   8
ENDBRANCH   6   7
ENDBRANCH   5   6
ENDBRANCH   4   5
ENDBRANCH   3   4
TORSDOF 5
ENDMDL
