REMARK  5 active torsions:
REMARK  status: ('A' for Active; 'I' for Inactive)
REMARK    1  A    between atoms: C_3  and  C_4 
REMARK    2  A    between atoms: C_4  and  C_5 
REMARK    3  A    between atoms: C_5  and  C_6 
REMARK    4  A    between atoms: C_6  and  C_7 
REMARK    5  A    between atoms: C_7  and  C_8 
ROOT
HETATM    1  C   LIG     1       4.673   1.232   0.034  1.00  0.00     0.012 C 
HETATM    2  C   LIG     1       3.730   0.582   0.409  1.00  0.00    -0.117 C 
HETATM    3  C   LIG     1       2.582  -0.210   0.865  1.00  0.00     0.093 C 
ENDROOT
BRANCH   3   4
HETATM    4  C   LIG     1       1.472  -0.201  -0.190  1.00  0.00     0.012 C 
BRANCH   4   5
HETATM    5  C   LIG     1       0.259  -1.015   0.283  1.00  0.00     0.001 C 
BRANCH   5   6
HETATM    6  C   LIG     1      -0.817  -1.173  -0.805  1.00  0.00     0.000 C 
BRANCH   6   7
HETATM    7  C   LIG     1      -1.437   0.146  -1.309  1.00  0.00    -0.000 C 
BRANCH   7   8
HETATM    8  C   LIG     1      -2.077   1.022  -0.218  1.00  0.00    -0.005 C 
HETATM    9  C   LIG     1      -3.234   0.328   0.500  1.00  0.00     0.005 C 
ENDBRANCH   7   8
ENDBRANCH   6   7
ENDBRANCH   5   6
ENDBRANCH   4   5
ENDBRANCH   3   4
TORSDOF 5
