MODEL 1
REMARK VINA RESULT:      -8.0      0.000      0.000
REMARK  1 active torsions:
REMARK  status: ('A' for Active; 'I' for Inactive)
REMARK    1  A    between atoms: C_7  and  C_8 
ROOT
HETATM    1 CL   LIG     1      17.109  38.663  23.409  1.00  0.00    -0.083 Cl
HETATM    2  C   LIG     1      17.367  37.261  24.445  1.00  0.00     0.045 A 
HETATM    3  C   LIG     1      17.776  37.484  25.765  1.00  0.00     0.024 A 
HETATM    4  C   LIG     1      18.047  36.405  26.611  1.00  0.00     0.002 A 
HETATM    5  C   LIG     1      17.918  35.097  26.140  1.00  0.00     0.001 A 
HETATM    6  C   LIG     1      17.510  34.865  24.825  1.00  0.00     0.014 A 
HETATM    7  C   LIG     1      17.222  35.940  23.966  1.00  0.00    -0.004 A 
ENDROOT
BRANCH   7   8
HETATM    8  C   LIG     1      16.778  35.658  22.582  1.00  0.00    -0.024 A 
HETATM    9  C   LIG     1      17.475  36.205  21.492  1.00  0.00     0.014 A 
HETATM   10  C   LIG     1      17.069  35.926  20.183  1.00  0.00     0.024 A 
HETATM   11  C   LIG     1      15.970  35.094  19.952  1.00  0.00     0.034 A 
HETATM   12  C   LIG     1      15.278  34.536  21.031  1.00  0.00     0.024 A 
HETATM   13 CL   LIG     1      15.463  34.745  18.309  1.00  0.00    -0.084 Cl
HETATM   14  C   LIG     1      15.682  34.812  22.341  1.00  0.00     0.014 A 
ENDBRANCH   7   8
TORSDOF 1
ENDMDL
MODEL 2
REMARK VINA RESULT:      -7.3      4.810      8.776
REMARK  1 active torsions:
REMARK  status: ('A' for Active; 'I' for Inactive)
REMARK    1  A    between atoms: C_7  and  C_8 
ROOT
HETATM    1 CL   LIG     1      17.085  32.345  15.383  1.00  0.00    -0.083 Cl
HETATM    2  C   LIG     1      15.527  31.523  15.434  1.00  0.00     0.045 A 
HETATM    3  C   LIG     1      15.183  30.694  14.361  1.00  0.00     0.024 A 
HETATM    4  C   LIG     1      13.936  30.064  14.327  1.00  0.00     0.002 A 
HETATM    5  C   LIG     1      13.023  30.265  15.364  1.00  0.00     0.001 A 
HETATM    6  C   LIG     1      13.356  31.091  16.439  1.00  0.00     0.014 A 
HETATM    7  C   LIG     1      14.611  31.722  16.492  1.00  0.00    -0.004 A 
ENDROOT
BRANCH   7   8
HETATM    8  C   LIG     1      14.938  32.579  17.654  1.00  0.00    -0.024 A 
HETATM    9  C   LIG     1      15.121  32.006  18.924  1.00  0.00     0.014 A 
HETATM   10  C   LIG     1      15.447  32.810  20.021  1.00  0.00     0.024 A 
HETATM   11  C   LIG     1      15.603  34.190  19.857  1.00  0.00     0.034 A 
HETATM   12  C   LIG     1      15.435  34.766  18.594  1.00  0.00     0.024 A 
HETATM   13 CL   LIG     1      16.013  35.198  21.234  1.00  0.00    -0.084 Cl
HETATM   14  C   LIG     1      15.108  33.965  17.496  1.00  0.00     0.014 A 
ENDBRANCH   7   8
TORSDOF 1
ENDMDL
MODEL 3
REMARK VINA RESULT:      -7.0      2.765      3.657
REMARK  1 active torsions:
REMARK  status: ('A' for Active; 'I' for Inactive)
REMARK    1  A    between atoms: C_7  and  C_8 
ROOT
HETATM    1 CL   LIG     1      16.745  35.035  21.569  1.00  0.00    -0.083 Cl
HETATM    2  C   LIG     1      17.234  36.076  22.903  1.00  0.00     0.045 A 
HETATM    3  C   LIG     1      16.956  35.652  24.207  1.00  0.00     0.024 A 
HETATM    4  C   LIG     1      17.273  36.467  25.297  1.00  0.00     0.002 A 
HETATM    5  C   LIG     1      17.865  37.714  25.089  1.00  0.00     0.001 A 
HETATM    6  C   LIG     1      18.148  38.146  23.791  1.00  0.00     0.014 A 
HETATM    7  C   LIG     1      17.845  37.332  22.686  1.00  0.00    -0.004 A 
ENDROOT
BRANCH   7   8
HETATM    8  C   LIG     1      18.171  37.815  21.325  1.00  0.00    -0.024 A 
HETATM    9  C   LIG     1      18.299  39.192  21.076  1.00  0.00     0.014 A 
HETATM   10  C   LIG     1      18.624  39.650  19.796  1.00  0.00     0.024 A 
HETATM   11  C   LIG     1      18.834  38.738  18.757  1.00  0.00     0.034 A 
HETATM   12  C   LIG     1      18.721  37.366  18.999  1.00  0.00     0.024 A 
HETATM   13 CL   LIG     1      19.243  39.316  17.151  1.00  0.00    -0.084 Cl
HETATM   14  C   LIG     1      18.396  36.905  20.278  1.00  0.00     0.014 A 
ENDBRANCH   7   8
TORSDOF 1
ENDMDL
MODEL 4
REMARK VINA RESULT:      -6.5      4.801      8.873
REMARK  1 active torsions:
REMARK  status: ('A' for Active; 'I' for Inactive)
REMARK    1  A    between atoms: C_7  and  C_8 
ROOT
HETATM    1 CL   LIG     1      13.075  30.592  16.987  1.00  0.00    -0.083 Cl
HETATM    2  C   LIG     1      14.287  31.116  15.821  1.00  0.00     0.045 A 
HETATM    3  C   LIG     1      14.290  30.516  14.557  1.00  0.00     0.024 A 
HETATM    4  C   LIG     1      15.265  30.857  13.616  1.00  0.00     0.002 A 
HETATM    5  C   LIG     1      16.248  31.795  13.936  1.00  0.00     0.001 A 
HETATM    6  C   LIG     1      16.254  32.400  15.194  1.00  0.00     0.014 A 
HETATM    7  C   LIG     1      15.272  32.076  16.147  1.00  0.00    -0.004 A 
ENDROOT
BRANCH   7   8
HETATM    8  C   LIG     1      15.299  32.747  17.466  1.00  0.00    -0.024 A 
HETATM    9  C   LIG     1      15.384  31.985  18.644  1.00  0.00     0.014 A 
HETATM   10  C   LIG     1      15.427  32.616  19.891  1.00  0.00     0.024 A 
HETATM   11  C   LIG     1      15.395  34.012  19.972  1.00  0.00     0.034 A 
HETATM   12  C   LIG     1      15.323  34.777  18.804  1.00  0.00     0.024 A 
HETATM   13 CL   LIG     1      15.450  34.802  21.538  1.00  0.00    -0.084 Cl
HETATM   14  C   LIG     1      15.280  34.149  17.556  1.00  0.00     0.014 A 
ENDBRANCH   7   8
TORSDOF 1
ENDMDL
MODEL 5
REMARK VINA RESULT:      -6.5      4.695      7.278
REMARK  1 active torsions:
REMARK  status: ('A' for Active; 'I' for Inactive)
REMARK    1  A    between atoms: C_7  and  C_8 
ROOT
HETATM    1 CL   LIG     1      14.898  30.918  20.089  1.00  0.00    -0.083 Cl
HETATM    2  C   LIG     1      15.235  32.576  19.598  1.00  0.00     0.045 A 
HETATM    3  C   LIG     1      15.643  33.485  20.581  1.00  0.00     0.024 A 
HETATM    4  C   LIG     1      15.869  34.825  20.253  1.00  0.00     0.002 A 
HETATM    5  C   LIG     1      15.683  35.264  18.942  1.00  0.00     0.001 A 
HETATM    6  C   LIG     1      15.276  34.366  17.954  1.00  0.00     0.014 A 
HETATM    7  C   LIG     1      15.056  33.013  18.266  1.00  0.00    -0.004 A 
ENDROOT
BRANCH   7   8
HETATM    8  C   LIG     1      14.640  32.084  17.191  1.00  0.00    -0.024 A 
HETATM    9  C   LIG     1      13.388  31.448  17.254  1.00  0.00     0.014 A 
HETATM   10  C   LIG     1      12.984  30.583  16.232  1.00  0.00     0.024 A 
HETATM   11  C   LIG     1      13.821  30.353  15.136  1.00  0.00     0.034 A 
HETATM   12  C   LIG     1      15.064  30.991  15.061  1.00  0.00     0.024 A 
HETATM   13 CL   LIG     1      13.313  29.268  13.854  1.00  0.00    -0.084 Cl
HETATM   14  C   LIG     1      15.470  31.856  16.081  1.00  0.00     0.014 A 
ENDBRANCH   7   8
TORSDOF 1
ENDMDL
MODEL 6
REMARK VINA RESULT:      -6.4      8.232      9.615
REMARK  1 active torsions:
REMARK  status: ('A' for Active; 'I' for Inactive)
REMARK    1  A    between atoms: C_7  and  C_8 
ROOT
HETATM    1 CL   LIG     1      15.109  33.882  17.035  1.00  0.00    -0.083 Cl
HETATM    2  C   LIG     1      14.502  32.415  16.271  1.00  0.00     0.045 A 
HETATM    3  C   LIG     1      13.357  31.816  16.810  1.00  0.00     0.024 A 
HETATM    4  C   LIG     1      12.869  30.621  16.275  1.00  0.00     0.002 A 
HETATM    5  C   LIG     1      13.526  30.014  15.204  1.00  0.00     0.001 A 
HETATM    6  C   LIG     1      14.669  30.603  14.660  1.00  0.00     0.014 A 
HETATM    7  C   LIG     1      15.165  31.811  15.179  1.00  0.00    -0.004 A 
ENDROOT
BRANCH   7   8
HETATM    8  C   LIG     1      16.370  32.416  14.569  1.00  0.00    -0.024 A 
HETATM    9  C   LIG     1      17.524  32.627  15.343  1.00  0.00     0.014 A 
HETATM   10  C   LIG     1      18.669  33.183  14.766  1.00  0.00     0.024 A 
HETATM   11  C   LIG     1      18.677  33.523  13.410  1.00  0.00     0.034 A 
HETATM   12  C   LIG     1      17.538  33.306  12.630  1.00  0.00     0.024 A 
HETATM   13 CL   LIG     1      20.117  34.220  12.688  1.00  0.00    -0.084 Cl
HETATM   14  C   LIG     1      16.391  32.751  13.204  1.00  0.00     0.014 A 
ENDBRANCH   7   8
TORSDOF 1
ENDMDL
MODEL 7
REMARK VINA RESULT:      -6.3      8.693     10.027
REMARK  1 active torsions:
REMARK  status: ('A' for Active; 'I' for Inactive)
REMARK    1  A    between atoms: C_7  and  C_8 
ROOT
HETATM    1 CL   LIG     1      15.288  29.730  13.371  1.00  0.00    -0.083 Cl
HETATM    2  C   LIG     1      14.635  30.594  14.761  1.00  0.00     0.045 A 
HETATM    3  C   LIG     1      13.495  30.074  15.386  1.00  0.00     0.024 A 
HETATM    4  C   LIG     1      12.906  30.751  16.456  1.00  0.00     0.002 A 
HETATM    5  C   LIG     1      13.449  31.957  16.904  1.00  0.00     0.001 A 
HETATM    6  C   LIG     1      14.586  32.484  16.288  1.00  0.00     0.014 A 
HETATM    7  C   LIG     1      15.196  31.808  15.218  1.00  0.00    -0.004 A 
ENDROOT
BRANCH   7   8
HETATM    8  C   LIG     1      16.408  32.388  14.596  1.00  0.00    -0.024 A 
HETATM    9  C   LIG     1      16.409  32.727  13.233  1.00  0.00     0.014 A 
HETATM   10  C   LIG     1      17.546  33.291  12.647  1.00  0.00     0.024 A 
HETATM   11  C   LIG     1      18.688  33.529  13.418  1.00  0.00     0.034 A 
HETATM   12  C   LIG     1      18.691  33.204  14.778  1.00  0.00     0.024 A 
HETATM   13 CL   LIG     1      20.114  34.237  12.681  1.00  0.00    -0.084 Cl
HETATM   14  C   LIG     1      17.556  32.641  15.367  1.00  0.00     0.014 A 
ENDBRANCH   7   8
TORSDOF 1
ENDMDL
MODEL 8
REMARK VINA RESULT:      -6.2      2.815      3.422
REMARK  1 active torsions:
REMARK  status: ('A' for Active; 'I' for Inactive)
REMARK    1  A    between atoms: C_7  and  C_8 
ROOT
HETATM    1 CL   LIG     1      18.688  36.511  19.479  1.00  0.00    -0.083 Cl
HETATM    2  C   LIG     1      17.665  36.996  20.829  1.00  0.00     0.045 A 
HETATM    3  C   LIG     1      18.080  38.077  21.616  1.00  0.00     0.024 A 
HETATM    4  C   LIG     1      17.333  38.465  22.731  1.00  0.00     0.002 A 
HETATM    5  C   LIG     1      16.171  37.771  23.070  1.00  0.00     0.001 A 
HETATM    6  C   LIG     1      15.748  36.692  22.292  1.00  0.00     0.014 A 
HETATM    7  C   LIG     1      16.482  36.297  21.160  1.00  0.00    -0.004 A 
ENDROOT
BRANCH   7   8
HETATM    8  C   LIG     1      15.998  35.157  20.348  1.00  0.00    -0.024 A 
HETATM    9  C   LIG     1      15.744  35.326  18.976  1.00  0.00     0.014 A 
HETATM   10  C   LIG     1      15.304  34.248  18.203  1.00  0.00     0.024 A 
HETATM   11  C   LIG     1      15.122  32.992  18.789  1.00  0.00     0.034 A 
HETATM   12  C   LIG     1      15.384  32.813  20.151  1.00  0.00     0.024 A 
HETATM   13 CL   LIG     1      14.570  31.640  17.817  1.00  0.00    -0.084 Cl
HETATM   14  C   LIG     1      15.824  33.889  20.927  1.00  0.00     0.014 A 
ENDBRANCH   7   8
TORSDOF 1
ENDMDL
MODEL 9
REMARK VINA RESULT:      -6.2      8.119     10.878
REMARK  1 active torsions:
REMARK  status: ('A' for Active; 'I' for Inactive)
REMARK    1  A    between atoms: C_7  and  C_8 
ROOT
HETATM    1 CL   LIG     1      13.683  30.946  17.115  1.00  0.00    -0.083 Cl
HETATM    2  C   LIG     1      14.866  31.583  15.976  1.00  0.00     0.045 A 
HETATM    3  C   LIG     1      15.572  32.738  16.333  1.00  0.00     0.024 A 
HETATM    4  C   LIG     1      16.480  33.314  15.442  1.00  0.00     0.002 A 
HETATM    5  C   LIG     1      16.684  32.743  14.185  1.00  0.00     0.001 A 
HETATM    6  C   LIG     1      15.986  31.590  13.819  1.00  0.00     0.014 A 
HETATM    7  C   LIG     1      15.077  30.993  14.709  1.00  0.00    -0.004 A 
ENDROOT
BRANCH   7   8
HETATM    8  C   LIG     1      14.365  29.763  14.295  1.00  0.00    -0.024 A 
HETATM    9  C   LIG     1      12.960  29.738  14.265  1.00  0.00     0.014 A 
HETATM   10  C   LIG     1      12.284  28.584  13.858  1.00  0.00     0.024 A 
HETATM   11  C   LIG     1      13.003  27.450  13.467  1.00  0.00     0.034 A 
HETATM   12  C   LIG     1      14.401  27.472  13.482  1.00  0.00     0.024 A 
HETATM   13 CL   LIG     1      12.152  26.004  12.955  1.00  0.00    -0.084 Cl
HETATM   14  C   LIG     1      15.080  28.624  13.889  1.00  0.00     0.014 A 
ENDBRANCH   7   8
TORSDOF 1
ENDMDL
MODEL 10
REMARK VINA RESULT:      -6.1      1.491      2.463
REMARK  1 active torsions:
REMARK  status: ('A' for Active; 'I' for Inactive)
REMARK    1  A    between atoms: C_7  and  C_8 
ROOT
HETATM    1 CL   LIG     1      17.228  34.612  24.617  1.00  0.00    -0.083 Cl
HETATM    2  C   LIG     1      17.270  36.373  24.606  1.00  0.00     0.045 A 
HETATM    3  C   LIG     1      17.625  37.032  25.788  1.00  0.00     0.024 A 
HETATM    4  C   LIG     1      17.619  38.428  25.847  1.00  0.00     0.002 A 
HETATM    5  C   LIG     1      17.252  39.174  24.726  1.00  0.00     0.001 A 
HETATM    6  C   LIG     1      16.896  38.526  23.541  1.00  0.00     0.014 A 
HETATM    7  C   LIG     1      16.909  37.122  23.463  1.00  0.00    -0.004 A 
ENDROOT
BRANCH   7   8
HETATM    8  C   LIG     1      16.540  36.468  22.187  1.00  0.00    -0.024 A 
HETATM    9  C   LIG     1      15.234  35.988  21.991  1.00  0.00     0.014 A 
HETATM   10  C   LIG     1      14.878  35.386  20.781  1.00  0.00     0.024 A 
HETATM   11  C   LIG     1      15.818  35.265  19.754  1.00  0.00     0.034 A 
HETATM   12  C   LIG     1      17.117  35.750  19.937  1.00  0.00     0.024 A 
HETATM   13 CL   LIG     1      15.369  34.508  18.236  1.00  0.00    -0.084 Cl
HETATM   14  C   LIG     1      17.476  36.354  21.145  1.00  0.00     0.014 A 
ENDBRANCH   7   8
TORSDOF 1
ENDMDL
MODEL 11
REMARK VINA RESULT:      -5.7      8.642     12.412
REMARK  1 active torsions:
REMARK  status: ('A' for Active; 'I' for Inactive)
REMARK    1  A    between atoms: C_7  and  C_8 
ROOT
HETATM    1 CL   LIG     1      15.316  27.332  13.825  1.00  0.00    -0.083 Cl
HETATM    2  C   LIG     1      13.594  27.545  13.520  1.00  0.00     0.045 A 
HETATM    3  C   LIG     1      12.906  26.513  12.872  1.00  0.00     0.024 A 
HETATM    4  C   LIG     1      11.551  26.656  12.558  1.00  0.00     0.002 A 
HETATM    5  C   LIG     1      10.879  27.835  12.884  1.00  0.00     0.001 A 
HETATM    6  C   LIG     1      11.557  28.871  13.530  1.00  0.00     0.014 A 
HETATM    7  C   LIG     1      12.916  28.737  13.864  1.00  0.00    -0.004 A 
ENDROOT
BRANCH   7   8
HETATM    8  C   LIG     1      13.600  29.848  14.562  1.00  0.00    -0.024 A 
HETATM    9  C   LIG     1      13.077  30.354  15.765  1.00  0.00     0.014 A 
HETATM   10  C   LIG     1      13.730  31.392  16.436  1.00  0.00     0.024 A 
HETATM   11  C   LIG     1      14.914  31.927  15.920  1.00  0.00     0.034 A 
HETATM   12  C   LIG     1      15.447  31.420  14.730  1.00  0.00     0.024 A 
HETATM   13 CL   LIG     1      15.732  33.228  16.765  1.00  0.00    -0.084 Cl
HETATM   14  C   LIG     1      14.796  30.383  14.056  1.00  0.00     0.014 A 
ENDBRANCH   7   8
TORSDOF 1
ENDMDL
MODEL 12
REMARK VINA RESULT:      -5.4      2.471      5.946
REMARK  1 active torsions:
REMARK  status: ('A' for Active; 'I' for Inactive)
REMARK    1  A    between atoms: C_7  and  C_8 
ROOT
HETATM    1 CL   LIG     1      15.576  34.986  17.667  1.00  0.00    -0.083 Cl
HETATM    2  C   LIG     1      15.265  33.547  18.633  1.00  0.00     0.045 A 
HETATM    3  C   LIG     1      14.901  32.371  17.967  1.00  0.00     0.024 A 
HETATM    4  C   LIG     1      14.589  31.217  18.691  1.00  0.00     0.002 A 
HETATM    5  C   LIG     1      14.634  31.234  20.086  1.00  0.00     0.001 A 
HETATM    6  C   LIG     1      14.995  32.402  20.761  1.00  0.00     0.014 A 
HETATM    7  C   LIG     1      15.323  33.567  20.046  1.00  0.00    -0.004 A 
ENDROOT
BRANCH   7   8
HETATM    8  C   LIG     1      15.717  34.783  20.791  1.00  0.00    -0.024 A 
HETATM    9  C   LIG     1      14.734  35.668  21.267  1.00  0.00     0.014 A 
HETATM   10  C   LIG     1      15.102  36.809  21.987  1.00  0.00     0.024 A 
HETATM   11  C   LIG     1      16.450  37.072  22.245  1.00  0.00     0.034 A 
HETATM   12  C   LIG     1      17.433  36.190  21.785  1.00  0.00     0.024 A 
HETATM   13 CL   LIG     1      16.909  38.504  23.149  1.00  0.00    -0.084 Cl
HETATM   14  C   LIG     1      17.069  35.048  21.065  1.00  0.00     0.014 A 
ENDBRANCH   7   8
TORSDOF 1
ENDMDL
MODEL 13
REMARK VINA RESULT:      -5.2     16.080     17.083
REMARK  1 active torsions:
REMARK  status: ('A' for Active; 'I' for Inactive)
REMARK    1  A    between atoms: C_7  and  C_8 
ROOT
HETATM    1 CL   LIG     1      27.494  27.133  36.572  1.00  0.00    -0.083 Cl
HETATM    2  C   LIG     1      26.890  28.785  36.478  1.00  0.00     0.045 A 
HETATM    3  C   LIG     1      26.511  29.418  37.668  1.00  0.00     0.024 A 
HETATM    4  C   LIG     1      25.974  30.708  37.641  1.00  0.00     0.002 A 
HETATM    5  C   LIG     1      25.805  31.369  36.424  1.00  0.00     0.001 A 
HETATM    6  C   LIG     1      26.179  30.747  35.231  1.00  0.00     0.014 A 
HETATM    7  C   LIG     1      26.732  29.455  35.244  1.00  0.00    -0.004 A 
ENDROOT
BRANCH   7   8
HETATM    8  C   LIG     1      27.132  28.830  33.962  1.00  0.00    -0.024 A 
HETATM    9  C   LIG     1      26.290  27.891  33.342  1.00  0.00     0.014 A 
HETATM   10  C   LIG     1      26.656  27.312  32.123  1.00  0.00     0.024 A 
HETATM   11  C   LIG     1      27.860  27.671  31.510  1.00  0.00     0.034 A 
HETATM   12  C   LIG     1      28.698  28.614  32.115  1.00  0.00     0.024 A 
HETATM   13 CL   LIG     1      28.317  26.944  29.980  1.00  0.00    -0.084 Cl
HETATM   14  C   LIG     1      28.334  29.194  33.333  1.00  0.00     0.014 A 
ENDBRANCH   7   8
TORSDOF 1
ENDMDL
