REMARK  1 active torsions:
REMARK  status: ('A' for Active; 'I' for Inactive)
REMARK    1  A    between atoms: C_7  and  C_8 
ROOT
HETATM    1 CL   LIG     1      -0.974  -2.266   1.500  1.00  0.00    -0.083 Cl
HETATM    2  C   LIG     1      -1.619  -0.927   0.554  1.00  0.00     0.045 A 
HETATM    3  C   LIG     1      -3.007  -0.839   0.396  1.00  0.00     0.024 A 
HETATM    4  C   LIG     1      -3.565   0.172  -0.391  1.00  0.00     0.002 A 
HETATM    5  C   LIG     1      -2.738   1.097  -1.030  1.00  0.00     0.001 A 
HETATM    6  C   LIG     1      -1.352   1.018  -0.879  1.00  0.00     0.014 A 
HETATM    7  C   LIG     1      -0.777   0.014  -0.081  1.00  0.00    -0.004 A 
ENDROOT
BRANCH   7   8
HETATM    8  C   LIG     1       0.695  -0.032   0.070  1.00  0.00    -0.024 A 
HETATM    9  C   LIG     1       1.519  -0.102  -1.066  1.00  0.00     0.014 A 
HETATM   10  C   LIG     1       2.910  -0.128  -0.928  1.00  0.00     0.024 A 
HETATM   11  C   LIG     1       3.490  -0.075   0.343  1.00  0.00     0.034 A 
HETATM   12  C   LIG     1       2.677   0.007   1.478  1.00  0.00     0.024 A 
HETATM   13 CL   LIG     1       5.236  -0.107   0.514  1.00  0.00    -0.084 Cl
HETATM   14  C   LIG     1       1.286   0.033   1.343  1.00  0.00     0.014 A 
ENDBRANCH   7   8
TORSDOF 1
