MODEL 1
REMARK VINA RESULT:      -5.5      0.000      0.000
REMARK  0 active torsions:
REMARK  status: ('A' for Active; 'I' for Inactive)
ROOT
HETATM    1 CL   LIG     1      15.294  34.296  17.506  1.00  0.00    -0.080 Cl
HETATM    2  C   LIG     1      15.349  33.056  16.253  1.00  0.00     0.088 A 
HETATM    3  C   LIG     1      16.263  33.179  15.195  1.00  0.00     0.110 A 
HETATM    4  C   LIG     1      16.317  32.194  14.187  1.00  0.00     0.110 A 
HETATM    5  N   LIG     1      17.212  32.336  13.172  1.00  0.00    -0.256 NA
HETATM    6  C   LIG     1      18.051  33.403  13.110  1.00  0.00     0.136 A 
HETATM    7  C   LIG     1      17.997  34.378  14.108  1.00  0.00     0.136 A 
HETATM    8  N   LIG     1      17.107  34.245  15.126  1.00  0.00    -0.256 NA
HETATM    9  C   LIG     1      15.458  31.088  14.237  1.00  0.00     0.088 A 
HETATM   10 CL   LIG     1      15.538  29.864  12.968  1.00  0.00    -0.080 Cl
HETATM   11  C   LIG     1      14.541  30.963  15.297  1.00  0.00     0.081 A 
HETATM   12 CL   LIG     1      13.458  29.570  15.363  1.00  0.00    -0.081 Cl
HETATM   13  C   LIG     1      14.486  31.946  16.304  1.00  0.00     0.081 A 
HETATM   14 CL   LIG     1      13.335  31.789  17.633  1.00  0.00    -0.081 Cl
ENDROOT
TORSDOF 0
ENDMDL
MODEL 2
REMARK VINA RESULT:      -5.5      0.037      3.201
REMARK  0 active torsions:
REMARK  status: ('A' for Active; 'I' for Inactive)
ROOT
HETATM    1 CL   LIG     1      15.499  29.875  12.992  1.00  0.00    -0.080 Cl
HETATM    2  C   LIG     1      15.431  31.095  14.264  1.00  0.00     0.088 A 
HETATM    3  C   LIG     1      16.293  32.200  14.212  1.00  0.00     0.110 A 
HETATM    4  C   LIG     1      16.249  33.182  15.224  1.00  0.00     0.110 A 
HETATM    5  N   LIG     1      17.096  34.245  15.152  1.00  0.00    -0.256 NA
HETATM    6  C   LIG     1      17.980  34.378  14.129  1.00  0.00     0.136 A 
HETATM    7  C   LIG     1      18.024  33.406  13.128  1.00  0.00     0.136 A 
HETATM    8  N   LIG     1      17.182  32.341  13.191  1.00  0.00    -0.256 NA
HETATM    9  C   LIG     1      15.342  33.058  16.286  1.00  0.00     0.088 A 
HETATM   10 CL   LIG     1      15.298  34.295  17.543  1.00  0.00    -0.080 Cl
HETATM   11  C   LIG     1      14.476  31.950  16.340  1.00  0.00     0.081 A 
HETATM   12 CL   LIG     1      13.333  31.792  17.675  1.00  0.00    -0.081 Cl
HETATM   13  C   LIG     1      14.520  30.969  15.329  1.00  0.00     0.081 A 
HETATM   14 CL   LIG     1      13.434  29.580  15.398  1.00  0.00    -0.081 Cl
ENDROOT
TORSDOF 0
ENDMDL
MODEL 3
REMARK VINA RESULT:      -5.4      6.658      9.185
REMARK  0 active torsions:
REMARK  status: ('A' for Active; 'I' for Inactive)
ROOT
HETATM    1 CL   LIG     1      18.518  36.951  18.401  1.00  0.00    -0.080 Cl
HETATM    2  C   LIG     1      17.984  37.032  20.081  1.00  0.00     0.088 A 
HETATM    3  C   LIG     1      17.023  36.123  20.548  1.00  0.00     0.110 A 
HETATM    4  C   LIG     1      16.588  36.177  21.888  1.00  0.00     0.110 A 
HETATM    5  N   LIG     1      15.655  35.285  22.317  1.00  0.00    -0.256 NA
HETATM    6  C   LIG     1      15.135  34.346  21.483  1.00  0.00     0.136 A 
HETATM    7  C   LIG     1      15.566  34.293  20.156  1.00  0.00     0.136 A 
HETATM    8  N   LIG     1      16.498  35.179  19.718  1.00  0.00    -0.256 NA
HETATM    9  C   LIG     1      17.115  37.140  22.761  1.00  0.00     0.088 A 
HETATM   10 CL   LIG     1      16.561  37.194  24.435  1.00  0.00    -0.080 Cl
HETATM   11  C   LIG     1      18.079  38.052  22.294  1.00  0.00     0.081 A 
HETATM   12 CL   LIG     1      18.744  39.265  23.391  1.00  0.00    -0.081 Cl
HETATM   13  C   LIG     1      18.514  37.999  20.955  1.00  0.00     0.081 A 
HETATM   14 CL   LIG     1      19.723  39.144  20.371  1.00  0.00    -0.081 Cl
ENDROOT
TORSDOF 0
ENDMDL
MODEL 4
REMARK VINA RESULT:      -5.4      6.636      8.753
REMARK  0 active torsions:
REMARK  status: ('A' for Active; 'I' for Inactive)
ROOT
HETATM    1 CL   LIG     1      16.617  37.203  24.402  1.00  0.00    -0.080 Cl
HETATM    2  C   LIG     1      17.149  37.147  22.721  1.00  0.00     0.088 A 
HETATM    3  C   LIG     1      16.605  36.188  21.853  1.00  0.00     0.110 A 
HETATM    4  C   LIG     1      17.023  36.133  20.507  1.00  0.00     0.110 A 
HETATM    5  N   LIG     1      16.481  35.194  19.685  1.00  0.00    -0.256 NA
HETATM    6  C   LIG     1      15.549  34.312  20.133  1.00  0.00     0.136 A 
HETATM    7  C   LIG     1      15.136  34.367  21.465  1.00  0.00     0.136 A 
HETATM    8  N   LIG     1      15.671  35.301  22.294  1.00  0.00    -0.256 NA
HETATM    9  C   LIG     1      17.983  37.035  20.030  1.00  0.00     0.088 A 
HETATM   10 CL   LIG     1      18.495  36.953  18.344  1.00  0.00    -0.080 Cl
HETATM   11  C   LIG     1      18.530  37.998  20.899  1.00  0.00     0.081 A 
HETATM   12 CL   LIG     1      19.739  39.137  20.301  1.00  0.00    -0.081 Cl
HETATM   13  C   LIG     1      18.113  38.054  22.244  1.00  0.00     0.081 A 
HETATM   14 CL   LIG     1      18.800  39.261  23.333  1.00  0.00    -0.081 Cl
ENDROOT
TORSDOF 0
ENDMDL
MODEL 5
REMARK VINA RESULT:      -4.9      2.025      3.781
REMARK  0 active torsions:
REMARK  status: ('A' for Active; 'I' for Inactive)
ROOT
HETATM    1 CL   LIG     1      13.597  31.748  17.630  1.00  0.00    -0.080 Cl
HETATM    2  C   LIG     1      14.741  32.105  16.335  1.00  0.00     0.088 A 
HETATM    3  C   LIG     1      14.912  31.187  15.288  1.00  0.00     0.110 A 
HETATM    4  C   LIG     1      15.823  31.461  14.247  1.00  0.00     0.110 A 
HETATM    5  N   LIG     1      15.972  30.555  13.243  1.00  0.00    -0.256 NA
HETATM    6  C   LIG     1      15.262  29.396  13.224  1.00  0.00     0.136 A 
HETATM    7  C   LIG     1      14.360  29.125  14.254  1.00  0.00     0.136 A 
HETATM    8  N   LIG     1      14.205  30.024  15.261  1.00  0.00    -0.256 NA
HETATM    9  C   LIG     1      16.562  32.652  14.254  1.00  0.00     0.088 A 
HETATM   10 CL   LIG     1      17.698  32.980  12.944  1.00  0.00    -0.080 Cl
HETATM   11  C   LIG     1      16.392  33.574  15.303  1.00  0.00     0.081 A 
HETATM   12 CL   LIG     1      17.321  35.075  15.313  1.00  0.00    -0.081 Cl
HETATM   13  C   LIG     1      15.482  33.301  16.343  1.00  0.00     0.081 A 
HETATM   14 CL   LIG     1      15.269  34.458  17.659  1.00  0.00    -0.081 Cl
ENDROOT
TORSDOF 0
ENDMDL
MODEL 6
REMARK VINA RESULT:      -4.6      7.372      9.242
REMARK  0 active torsions:
REMARK  status: ('A' for Active; 'I' for Inactive)
ROOT
HETATM    1 CL   LIG     1      19.517  39.252  20.825  1.00  0.00    -0.080 Cl
HETATM    2  C   LIG     1      18.344  37.971  21.129  1.00  0.00     0.088 A 
HETATM    3  C   LIG     1      17.867  37.762  22.432  1.00  0.00     0.110 A 
HETATM    4  C   LIG     1      16.929  36.741  22.688  1.00  0.00     0.110 A 
HETATM    5  N   LIG     1      16.481  36.558  23.960  1.00  0.00    -0.256 NA
HETATM    6  C   LIG     1      16.918  37.337  24.984  1.00  0.00     0.136 A 
HETATM    7  C   LIG     1      17.846  38.348  24.730  1.00  0.00     0.136 A 
HETATM    8  N   LIG     1      18.300  38.539  23.463  1.00  0.00    -0.256 NA
HETATM    9  C   LIG     1      16.469  35.929  21.642  1.00  0.00     0.088 A 
HETATM   10 CL   LIG     1      15.295  34.656  21.979  1.00  0.00    -0.080 Cl
HETATM   11  C   LIG     1      16.946  36.136  20.335  1.00  0.00     0.081 A 
HETATM   12 CL   LIG     1      16.368  35.116  19.015  1.00  0.00    -0.081 Cl
HETATM   13  C   LIG     1      17.884  37.157  20.078  1.00  0.00     0.081 A 
HETATM   14 CL   LIG     1      18.482  37.416  18.438  1.00  0.00    -0.081 Cl
ENDROOT
TORSDOF 0
ENDMDL
MODEL 7
REMARK VINA RESULT:      -4.0      6.691      8.713
REMARK  0 active torsions:
REMARK  status: ('A' for Active; 'I' for Inactive)
ROOT
HETATM    1 CL   LIG     1      16.391  35.173  19.141  1.00  0.00    -0.080 Cl
HETATM    2  C   LIG     1      17.036  36.216  20.409  1.00  0.00     0.088 A 
HETATM    3  C   LIG     1      17.942  37.234  20.076  1.00  0.00     0.110 A 
HETATM    4  C   LIG     1      18.465  38.074  21.080  1.00  0.00     0.110 A 
HETATM    5  N   LIG     1      19.342  39.054  20.732  1.00  0.00    -0.256 NA
HETATM    6  C   LIG     1      19.722  39.239  19.441  1.00  0.00     0.136 A 
HETATM    7  C   LIG     1      19.204  38.407  18.447  1.00  0.00     0.136 A 
HETATM    8  N   LIG     1      18.328  37.425  18.784  1.00  0.00    -0.256 NA
HETATM    9  C   LIG     1      18.082  37.896  22.417  1.00  0.00     0.088 A 
HETATM   10 CL   LIG     1      18.745  38.956  23.662  1.00  0.00    -0.080 Cl
HETATM   11  C   LIG     1      17.174  36.875  22.754  1.00  0.00     0.081 A 
HETATM   12 CL   LIG     1      16.689  36.649  24.436  1.00  0.00    -0.081 Cl
HETATM   13  C   LIG     1      16.651  36.035  21.750  1.00  0.00     0.081 A 
HETATM   14 CL   LIG     1      15.512  34.755  22.173  1.00  0.00    -0.081 Cl
ENDROOT
TORSDOF 0
ENDMDL
MODEL 8
REMARK VINA RESULT:      -3.9     14.364     14.827
REMARK  0 active torsions:
REMARK  status: ('A' for Active; 'I' for Inactive)
ROOT
HETATM    1 CL   LIG     1      17.660  17.943  12.166  1.00  0.00    -0.080 Cl
HETATM    2  C   LIG     1      15.975  18.045  12.677  1.00  0.00     0.088 A 
HETATM    3  C   LIG     1      15.668  18.130  14.043  1.00  0.00     0.110 A 
HETATM    4  C   LIG     1      14.324  18.212  14.464  1.00  0.00     0.110 A 
HETATM    5  N   LIG     1      14.052  18.294  15.795  1.00  0.00    -0.256 NA
HETATM    6  C   LIG     1      15.045  18.299  16.722  1.00  0.00     0.136 A 
HETATM    7  C   LIG     1      16.375  18.218  16.305  1.00  0.00     0.136 A 
HETATM    8  N   LIG     1      16.657  18.136  14.979  1.00  0.00    -0.256 NA
HETATM    9  C   LIG     1      13.289  18.208  13.519  1.00  0.00     0.088 A 
HETATM   10 CL   LIG     1      11.613  18.311  14.062  1.00  0.00    -0.080 Cl
HETATM   11  C   LIG     1      13.594  18.122  12.148  1.00  0.00     0.081 A 
HETATM   12 CL   LIG     1      12.293  18.118  10.956  1.00  0.00    -0.081 Cl
HETATM   13  C   LIG     1      14.937  18.041  11.727  1.00  0.00     0.081 A 
HETATM   14 CL   LIG     1      15.319  17.933  10.008  1.00  0.00    -0.081 Cl
ENDROOT
TORSDOF 0
ENDMDL
MODEL 9
REMARK VINA RESULT:      -3.7     14.346     14.745
REMARK  0 active torsions:
REMARK  status: ('A' for Active; 'I' for Inactive)
ROOT
HETATM    1 CL   LIG     1      14.660  18.329  16.827  1.00  0.00    -0.080 Cl
HETATM    2  C   LIG     1      15.002  18.218  15.100  1.00  0.00     0.088 A 
HETATM    3  C   LIG     1      13.941  18.214  14.182  1.00  0.00     0.110 A 
HETATM    4  C   LIG     1      14.202  18.126  12.798  1.00  0.00     0.110 A 
HETATM    5  N   LIG     1      13.156  18.124  11.927  1.00  0.00    -0.256 NA
HETATM    6  C   LIG     1      11.871  18.205  12.363  1.00  0.00     0.136 A 
HETATM    7  C   LIG     1      11.614  18.292  13.732  1.00  0.00     0.136 A 
HETATM    8  N   LIG     1      12.651  18.295  14.609  1.00  0.00    -0.256 NA
HETATM    9  C   LIG     1      15.522  18.043  12.334  1.00  0.00     0.088 A 
HETATM   10 CL   LIG     1      15.831  17.934  10.601  1.00  0.00    -0.080 Cl
HETATM   11  C   LIG     1      16.587  18.047  13.254  1.00  0.00     0.081 A 
HETATM   12 CL   LIG     1      18.251  17.942  12.673  1.00  0.00    -0.081 Cl
HETATM   13  C   LIG     1      16.327  18.134  14.636  1.00  0.00     0.081 A 
HETATM   14 CL   LIG     1      17.664  18.139  15.788  1.00  0.00    -0.081 Cl
ENDROOT
TORSDOF 0
ENDMDL
MODEL 10
REMARK VINA RESULT:      -3.6     14.598     14.735
REMARK  0 active torsions:
REMARK  status: ('A' for Active; 'I' for Inactive)
ROOT
HETATM    1 CL   LIG     1      27.315  23.633  23.451  1.00  0.00    -0.080 Cl
HETATM    2  C   LIG     1      26.066  23.167  22.296  1.00  0.00     0.088 A 
HETATM    3  C   LIG     1      26.236  23.458  20.935  1.00  0.00     0.110 A 
HETATM    4  C   LIG     1      25.244  23.091  20.002  1.00  0.00     0.110 A 
HETATM    5  N   LIG     1      25.431  23.385  18.686  1.00  0.00    -0.256 NA
HETATM    6  C   LIG     1      26.551  24.023  18.256  1.00  0.00     0.136 A 
HETATM    7  C   LIG     1      27.533  24.387  19.179  1.00  0.00     0.136 A 
HETATM    8  N   LIG     1      27.355  24.097  20.495  1.00  0.00    -0.256 NA
HETATM    9  C   LIG     1      24.083  22.432  20.431  1.00  0.00     0.088 A 
HETATM   10 CL   LIG     1      22.852  21.979  19.252  1.00  0.00    -0.080 Cl
HETATM   11  C   LIG     1      23.911  22.139  21.796  1.00  0.00     0.081 A 
HETATM   12 CL   LIG     1      22.450  21.309  22.340  1.00  0.00    -0.081 Cl
HETATM   13  C   LIG     1      24.901  22.506  22.729  1.00  0.00     0.081 A 
HETATM   14 CL   LIG     1      24.684  22.138  24.441  1.00  0.00    -0.081 Cl
ENDROOT
TORSDOF 0
ENDMDL
MODEL 11
REMARK VINA RESULT:      -3.5     15.085     15.688
REMARK  0 active torsions:
REMARK  status: ('A' for Active; 'I' for Inactive)
ROOT
HETATM    1 CL   LIG     1      28.147  21.343  20.084  1.00  0.00    -0.080 Cl
HETATM    2  C   LIG     1      26.461  21.745  20.410  1.00  0.00     0.088 A 
HETATM    3  C   LIG     1      26.078  22.138  21.702  1.00  0.00     0.110 A 
HETATM    4  C   LIG     1      24.733  22.461  21.975  1.00  0.00     0.110 A 
HETATM    5  N   LIG     1      24.387  22.840  23.236  1.00  0.00    -0.256 NA
HETATM    6  C   LIG     1      25.309  22.911  24.232  1.00  0.00     0.136 A 
HETATM    7  C   LIG     1      26.640  22.590  23.961  1.00  0.00     0.136 A 
HETATM    8  N   LIG     1      26.995  22.212  22.706  1.00  0.00    -0.256 NA
HETATM    9  C   LIG     1      23.772  22.393  20.958  1.00  0.00     0.088 A 
HETATM   10 CL   LIG     1      22.093  22.801  21.316  1.00  0.00    -0.080 Cl
HETATM   11  C   LIG     1      24.153  21.999  19.662  1.00  0.00     0.081 A 
HETATM   12 CL   LIG     1      22.944  21.912  18.378  1.00  0.00    -0.081 Cl
HETATM   13  C   LIG     1      25.497  21.675  19.388  1.00  0.00     0.081 A 
HETATM   14 CL   LIG     1      25.974  21.181  17.762  1.00  0.00    -0.081 Cl
ENDROOT
TORSDOF 0
ENDMDL
MODEL 12
REMARK VINA RESULT:      -3.5     15.078     15.575
REMARK  0 active torsions:
REMARK  status: ('A' for Active; 'I' for Inactive)
ROOT
HETATM    1 CL   LIG     1      22.082  22.820  21.274  1.00  0.00    -0.080 Cl
HETATM    2  C   LIG     1      23.748  22.368  20.912  1.00  0.00     0.088 A 
HETATM    3  C   LIG     1      24.717  22.420  21.925  1.00  0.00     0.110 A 
HETATM    4  C   LIG     1      26.052  22.061  21.648  1.00  0.00     0.110 A 
HETATM    5  N   LIG     1      26.974  22.120  22.648  1.00  0.00    -0.256 NA
HETATM    6  C   LIG     1      26.634  22.517  23.902  1.00  0.00     0.136 A 
HETATM    7  C   LIG     1      25.312  22.872  24.176  1.00  0.00     0.136 A 
HETATM    8  N   LIG     1      24.384  22.816  23.185  1.00  0.00    -0.256 NA
HETATM    9  C   LIG     1      26.418  21.650  20.359  1.00  0.00     0.088 A 
HETATM   10 CL   LIG     1      28.093  21.204  20.029  1.00  0.00    -0.080 Cl
HETATM   11  C   LIG     1      25.448  21.597  19.341  1.00  0.00     0.081 A 
HETATM   12 CL   LIG     1      25.905  21.079  17.717  1.00  0.00    -0.081 Cl
HETATM   13  C   LIG     1      24.113  21.955  19.617  1.00  0.00     0.081 A 
HETATM   14 CL   LIG     1      22.897  21.889  18.340  1.00  0.00    -0.081 Cl
ENDROOT
TORSDOF 0
ENDMDL
MODEL 13
REMARK VINA RESULT:      -3.5     14.651     15.014
REMARK  0 active torsions:
REMARK  status: ('A' for Active; 'I' for Inactive)
ROOT
HETATM    1 CL   LIG     1      23.057  21.961  19.075  1.00  0.00    -0.080 Cl
HETATM    2  C   LIG     1      24.259  22.438  20.274  1.00  0.00     0.088 A 
HETATM    3  C   LIG     1      25.459  23.032  19.856  1.00  0.00     0.110 A 
HETATM    4  C   LIG     1      26.427  23.418  20.806  1.00  0.00     0.110 A 
HETATM    5  N   LIG     1      27.584  23.991  20.376  1.00  0.00    -0.256 NA
HETATM    6  C   LIG     1      27.823  24.198  19.054  1.00  0.00     0.136 A 
HETATM    7  C   LIG     1      26.865  23.816  18.114  1.00  0.00     0.136 A 
HETATM    8  N   LIG     1      25.706  23.243  18.534  1.00  0.00    -0.256 NA
HETATM    9  C   LIG     1      26.195  23.210  22.173  1.00  0.00     0.088 A 
HETATM   10 CL   LIG     1      27.416  23.699  23.348  1.00  0.00    -0.080 Cl
HETATM   11  C   LIG     1      24.992  22.615  22.594  1.00  0.00     0.081 A 
HETATM   12 CL   LIG     1      24.696  22.353  24.315  1.00  0.00    -0.081 Cl
HETATM   13  C   LIG     1      24.024  22.229  21.646  1.00  0.00     0.081 A 
HETATM   14 CL   LIG     1      22.515  21.483  22.176  1.00  0.00    -0.081 Cl
ENDROOT
TORSDOF 0
ENDMDL
MODEL 14
REMARK VINA RESULT:      -3.5     14.906     15.094
REMARK  0 active torsions:
REMARK  status: ('A' for Active; 'I' for Inactive)
ROOT
HETATM    1 CL   LIG     1      24.913  22.092  24.434  1.00  0.00    -0.080 Cl
HETATM    2  C   LIG     1      25.026  22.454  22.712  1.00  0.00     0.088 A 
HETATM    3  C   LIG     1      26.139  23.152  22.221  1.00  0.00     0.110 A 
HETATM    4  C   LIG     1      26.240  23.447  20.845  1.00  0.00     0.110 A 
HETATM    5  N   LIG     1      27.330  24.126  20.393  1.00  0.00    -0.256 NA
HETATM    6  C   LIG     1      28.318  24.523  21.238  1.00  0.00     0.136 A 
HETATM    7  C   LIG     1      28.217  24.231  22.599  1.00  0.00     0.136 A 
HETATM    8  N   LIG     1      27.133  23.553  23.060  1.00  0.00    -0.256 NA
HETATM    9  C   LIG     1      25.229  23.044  19.962  1.00  0.00     0.088 A 
HETATM   10 CL   LIG     1      25.371  23.421  18.244  1.00  0.00    -0.080 Cl
HETATM   11  C   LIG     1      24.112  22.344  20.452  1.00  0.00     0.081 A 
HETATM   12 CL   LIG     1      22.837  21.835  19.342  1.00  0.00    -0.081 Cl
HETATM   13  C   LIG     1      24.009  22.049  21.827  1.00  0.00     0.081 A 
HETATM   14 CL   LIG     1      22.607  21.170  22.440  1.00  0.00    -0.081 Cl
ENDROOT
TORSDOF 0
ENDMDL
MODEL 15
REMARK VINA RESULT:      -3.4     14.937     15.455
REMARK  0 active torsions:
REMARK  status: ('A' for Active; 'I' for Inactive)
ROOT
HETATM    1 CL   LIG     1      27.098  23.490  23.543  1.00  0.00    -0.080 Cl
HETATM    2  C   LIG     1      26.057  23.080  22.180  1.00  0.00     0.088 A 
HETATM    3  C   LIG     1      24.960  22.229  22.377  1.00  0.00     0.110 A 
HETATM    4  C   LIG     1      24.120  21.893  21.294  1.00  0.00     0.110 A 
HETATM    5  N   LIG     1      23.062  21.065  21.510  1.00  0.00    -0.256 NA
HETATM    6  C   LIG     1      22.800  20.557  22.744  1.00  0.00     0.136 A 
HETATM    7  C   LIG     1      23.631  20.890  23.814  1.00  0.00     0.136 A 
HETATM    8  N   LIG     1      24.690  21.716  23.609  1.00  0.00    -0.256 NA
HETATM    9  C   LIG     1      24.378  22.409  20.017  1.00  0.00     0.088 A 
HETATM   10 CL   LIG     1      23.317  21.980  18.673  1.00  0.00    -0.080 Cl
HETATM   11  C   LIG     1      25.478  23.263  19.817  1.00  0.00     0.081 A 
HETATM   12 CL   LIG     1      25.805  23.915  18.209  1.00  0.00    -0.081 Cl
HETATM   13  C   LIG     1      26.318  23.598  20.898  1.00  0.00     0.081 A 
HETATM   14 CL   LIG     1      27.697  24.669  20.647  1.00  0.00    -0.081 Cl
ENDROOT
TORSDOF 0
ENDMDL
MODEL 16
REMARK VINA RESULT:      -3.4     14.726     15.160
REMARK  0 active torsions:
REMARK  status: ('A' for Active; 'I' for Inactive)
ROOT
HETATM    1 CL   LIG     1      23.143  21.260  23.138  1.00  0.00    -0.080 Cl
HETATM    2  C   LIG     1      24.359  22.081  22.159  1.00  0.00     0.088 A 
HETATM    3  C   LIG     1      24.212  22.126  20.764  1.00  0.00     0.110 A 
HETATM    4  C   LIG     1      25.178  22.779  19.971  1.00  0.00     0.110 A 
HETATM    5  N   LIG     1      25.013  22.809  18.620  1.00  0.00    -0.256 NA
HETATM    6  C   LIG     1      23.941  22.225  18.024  1.00  0.00     0.136 A 
HETATM    7  C   LIG     1      22.985  21.579  18.810  1.00  0.00     0.136 A 
HETATM    8  N   LIG     1      23.141  21.544  20.159  1.00  0.00    -0.256 NA
HETATM    9  C   LIG     1      26.290  23.386  20.571  1.00  0.00     0.088 A 
HETATM   10 CL   LIG     1      27.489  24.199  19.564  1.00  0.00    -0.080 Cl
HETATM   11  C   LIG     1      26.439  23.341  21.970  1.00  0.00     0.081 A 
HETATM   12 CL   LIG     1      27.838  24.105  22.729  1.00  0.00    -0.081 Cl
HETATM   13  C   LIG     1      25.475  22.689  22.763  1.00  0.00     0.081 A 
HETATM   14 CL   LIG     1      25.663  22.634  24.517  1.00  0.00    -0.081 Cl
ENDROOT
TORSDOF 0
ENDMDL
MODEL 17
REMARK VINA RESULT:      -3.3     22.043     23.014
REMARK  0 active torsions:
REMARK  status: ('A' for Active; 'I' for Inactive)
ROOT
HETATM    1 CL   LIG     1      19.424  23.363  32.426  1.00  0.00    -0.080 Cl
HETATM    2  C   LIG     1      20.258  22.046  33.250  1.00  0.00     0.088 A 
HETATM    3  C   LIG     1      20.905  22.291  34.470  1.00  0.00     0.110 A 
HETATM    4  C   LIG     1      21.577  21.246  35.139  1.00  0.00     0.110 A 
HETATM    5  N   LIG     1      22.197  21.509  36.321  1.00  0.00    -0.256 NA
HETATM    6  C   LIG     1      22.183  22.753  36.868  1.00  0.00     0.136 A 
HETATM    7  C   LIG     1      21.519  23.786  36.206  1.00  0.00     0.136 A 
HETATM    8  N   LIG     1      20.896  23.534  35.025  1.00  0.00    -0.256 NA
HETATM    9  C   LIG     1      21.600  19.958  34.587  1.00  0.00     0.088 A 
HETATM   10 CL   LIG     1      22.444  18.661  35.436  1.00  0.00    -0.080 Cl
HETATM   11  C   LIG     1      20.952  19.710  33.363  1.00  0.00     0.081 A 
HETATM   12 CL   LIG     1      20.979  18.088  32.666  1.00  0.00    -0.081 Cl
HETATM   13  C   LIG     1      20.281  20.753  32.694  1.00  0.00     0.081 A 
HETATM   14 CL   LIG     1      19.468  20.442  31.160  1.00  0.00    -0.081 Cl
ENDROOT
TORSDOF 0
ENDMDL
MODEL 18
REMARK VINA RESULT:      -3.2     16.156     16.615
REMARK  0 active torsions:
REMARK  status: ('A' for Active; 'I' for Inactive)
ROOT
HETATM    1 CL   LIG     1      22.105  19.388  23.642  1.00  0.00    -0.080 Cl
HETATM    2  C   LIG     1      23.249  20.649  24.104  1.00  0.00     0.088 A 
HETATM    3  C   LIG     1      23.951  21.346  23.110  1.00  0.00     0.110 A 
HETATM    4  C   LIG     1      24.868  22.356  23.466  1.00  0.00     0.110 A 
HETATM    5  N   LIG     1      25.538  23.019  22.484  1.00  0.00    -0.256 NA
HETATM    6  C   LIG     1      25.340  22.727  21.171  1.00  0.00     0.136 A 
HETATM    7  C   LIG     1      24.433  21.727  20.819  1.00  0.00     0.136 A 
HETATM    8  N   LIG     1      23.759  21.060  21.792  1.00  0.00    -0.256 NA
HETATM    9  C   LIG     1      25.083  22.669  24.816  1.00  0.00     0.088 A 
HETATM   10 CL   LIG     1      26.233  23.935  25.245  1.00  0.00    -0.080 Cl
HETATM   11  C   LIG     1      24.379  21.970  25.814  1.00  0.00     0.081 A 
HETATM   12 CL   LIG     1      24.646  22.362  27.515  1.00  0.00    -0.081 Cl
HETATM   13  C   LIG     1      23.463  20.961  25.459  1.00  0.00     0.081 A 
HETATM   14 CL   LIG     1      22.581  20.085  26.712  1.00  0.00    -0.081 Cl
ENDROOT
TORSDOF 0
ENDMDL
MODEL 19
REMARK VINA RESULT:      -3.1     17.400     17.715
REMARK  0 active torsions:
REMARK  status: ('A' for Active; 'I' for Inactive)
ROOT
HETATM    1 CL   LIG     1      28.283  24.766  23.598  1.00  0.00    -0.080 Cl
HETATM    2  C   LIG     1      27.044  23.997  24.591  1.00  0.00     0.088 A 
HETATM    3  C   LIG     1      27.012  24.239  25.972  1.00  0.00     0.110 A 
HETATM    4  C   LIG     1      26.027  23.630  26.776  1.00  0.00     0.110 A 
HETATM    5  N   LIG     1      26.017  23.881  28.113  1.00  0.00    -0.256 NA
HETATM    6  C   LIG     1      26.934  24.703  28.687  1.00  0.00     0.136 A 
HETATM    7  C   LIG     1      27.909  25.306  27.891  1.00  0.00     0.136 A 
HETATM    8  N   LIG     1      27.928  25.062  26.554  1.00  0.00    -0.256 NA
HETATM    9  C   LIG     1      25.074  22.779  26.199  1.00  0.00     0.088 A 
HETATM   10 CL   LIG     1      23.847  22.025  27.218  1.00  0.00    -0.080 Cl
HETATM   11  C   LIG     1      25.104  22.535  24.813  1.00  0.00     0.081 A 
HETATM   12 CL   LIG     1      23.905  21.464  24.083  1.00  0.00    -0.081 Cl
HETATM   13  C   LIG     1      26.089  23.143  24.009  1.00  0.00     0.081 A 
HETATM   14 CL   LIG     1      26.126  22.835  22.272  1.00  0.00    -0.081 Cl
ENDROOT
TORSDOF 0
ENDMDL
MODEL 20
REMARK VINA RESULT:      -3.1     14.604     15.005
REMARK  0 active torsions:
REMARK  status: ('A' for Active; 'I' for Inactive)
ROOT
HETATM    1 CL   LIG     1      23.891  23.183  21.320  1.00  0.00    -0.080 Cl
HETATM    2  C   LIG     1      24.991  22.658  20.045  1.00  0.00     0.088 A 
HETATM    3  C   LIG     1      26.249  23.267  19.920  1.00  0.00     0.110 A 
HETATM    4  C   LIG     1      27.137  22.856  18.905  1.00  0.00     0.110 A 
HETATM    5  N   LIG     1      28.352  23.462  18.803  1.00  0.00    -0.256 NA
HETATM    6  C   LIG     1      28.723  24.451  19.658  1.00  0.00     0.136 A 
HETATM    7  C   LIG     1      27.844  24.858  20.663  1.00  0.00     0.136 A 
HETATM    8  N   LIG     1      26.629  24.259  20.772  1.00  0.00    -0.256 NA
HETATM    9  C   LIG     1      26.768  21.837  18.016  1.00  0.00     0.088 A 
HETATM   10 CL   LIG     1      27.891  21.335  16.751  1.00  0.00    -0.080 Cl
HETATM   11  C   LIG     1      25.507  21.225  18.140  1.00  0.00     0.081 A 
HETATM   12 CL   LIG     1      25.039  19.941  17.022  1.00  0.00    -0.081 Cl
HETATM   13  C   LIG     1      24.619  21.635  19.154  1.00  0.00     0.081 A 
HETATM   14 CL   LIG     1      23.038  20.867  19.308  1.00  0.00    -0.081 Cl
ENDROOT
TORSDOF 0
ENDMDL
