REMARK  0 active torsions:
REMARK  status: ('A' for Active; 'I' for Inactive)
ROOT
HETATM    1 CL   LIG     1       0.582   3.133   0.910  1.00  0.00    -0.080 Cl
HETATM    2  C   LIG     1       0.802   1.454   0.416  1.00  0.00     0.088 A 
HETATM    3  C   LIG     1      -0.321   0.644   0.192  1.00  0.00     0.110 A 
HETATM    4  C   LIG     1      -0.158  -0.700  -0.203  1.00  0.00     0.110 A 
HETATM    5  N   LIG     1      -1.263  -1.466  -0.414  1.00  0.00    -0.256 NA
HETATM    6  C   LIG     1      -2.515  -0.963  -0.252  1.00  0.00     0.136 A 
HETATM    7  C   LIG     1      -2.676   0.367   0.139  1.00  0.00     0.136 A 
HETATM    8  N   LIG     1      -1.579   1.140   0.352  1.00  0.00    -0.256 NA
HETATM    9  C   LIG     1       1.127  -1.233  -0.374  1.00  0.00     0.088 A 
HETATM   10 CL   LIG     1       1.314  -2.916  -0.869  1.00  0.00    -0.080 Cl
HETATM   11  C   LIG     1       2.255  -0.422  -0.150  1.00  0.00     0.081 A 
HETATM   12 CL   LIG     1       3.875  -1.090  -0.365  1.00  0.00    -0.081 Cl
HETATM   13  C   LIG     1       2.093   0.921   0.245  1.00  0.00     0.081 A 
HETATM   14 CL   LIG     1       3.508   1.937   0.526  1.00  0.00    -0.081 Cl
ENDROOT
TORSDOF 0
