REMARK  1 active torsions:
REMARK  status: ('A' for Active; 'I' for Inactive)
REMARK    1  A    between atoms: C_9  and  C_10 
ROOT
HETATM    1 CL   LIG     1       0.664   2.754   0.496  1.00  0.00    -0.083 Cl
HETATM    2  C   LIG     1       1.467   1.220   0.176  1.00  0.00     0.046 A 
HETATM    3  C   LIG     1       2.863   1.202   0.085  1.00  0.00     0.050 A 
HETATM    4  C   LIG     1       3.545   0.001  -0.141  1.00  0.00     0.057 A 
HETATM    5 CL   LIG     1       5.300   0.026  -0.248  1.00  0.00    -0.082 Cl
HETATM    6  C   LIG     1       2.824  -1.196  -0.276  1.00  0.00     0.056 A 
HETATM    7 CL   LIG     1       3.643  -2.726  -0.561  1.00  0.00    -0.083 Cl
HETATM    8  C   LIG     1       1.429  -1.182  -0.186  1.00  0.00     0.039 A 
HETATM    9  C   LIG     1       0.740   0.020   0.042  1.00  0.00    -0.001 A 
ENDROOT
BRANCH   9  10
HETATM   10  C   LIG     1      -0.737   0.004   0.118  1.00  0.00    -0.001 A 
HETATM   11  C   LIG     1      -1.484   0.622  -0.897  1.00  0.00     0.039 A 
HETATM   12  C   LIG     1      -2.882   0.611  -0.860  1.00  0.00     0.056 A 
HETATM   13  C   LIG     1      -3.547  -0.024   0.201  1.00  0.00     0.057 A 
HETATM   14 CL   LIG     1      -3.775   1.399  -2.154  1.00  0.00    -0.083 Cl
HETATM   15  C   LIG     1      -2.807  -0.641   1.215  1.00  0.00     0.050 A 
HETATM   16 CL   LIG     1      -5.303  -0.059   0.287  1.00  0.00    -0.082 Cl
HETATM   17  C   LIG     1      -1.409  -0.633   1.181  1.00  0.00     0.046 A 
HETATM   18 CL   LIG     1      -0.529  -1.395   2.502  1.00  0.00    -0.083 Cl
ENDBRANCH   9  10
TORSDOF 1
