MODEL 1
REMARK VINA RESULT:      -5.6      0.000      0.000
REMARK  1 active torsions:
REMARK  status: ('A' for Active; 'I' for Inactive)
REMARK    1  A    between atoms: C_9  and  C_10 
ROOT
HETATM    1 CL   LIG     1      13.418  30.566  16.943  1.00  0.00    -0.083 Cl
HETATM    2  C   LIG     1      14.530  31.230  15.750  1.00  0.00     0.046 A 
HETATM    3  C   LIG     1      15.299  32.346  16.100  1.00  0.00     0.050 A 
HETATM    4  C   LIG     1      16.215  32.890  15.194  1.00  0.00     0.057 A 
HETATM    5 CL   LIG     1      17.160  34.293  15.677  1.00  0.00    -0.082 Cl
HETATM    6  C   LIG     1      16.367  32.312  13.923  1.00  0.00     0.056 A 
HETATM    7 CL   LIG     1      17.508  32.966  12.755  1.00  0.00    -0.083 Cl
HETATM    8  C   LIG     1      15.601  31.198  13.570  1.00  0.00     0.039 A 
HETATM    9  C   LIG     1      14.681  30.647  14.476  1.00  0.00    -0.001 A 
ENDROOT
BRANCH   9  10
HETATM   10  C   LIG     1      13.875  29.476  14.067  1.00  0.00    -0.001 A 
HETATM   11  C   LIG     1      12.501  29.638  13.827  1.00  0.00     0.039 A 
HETATM   12  C   LIG     1      11.716  28.552  13.426  1.00  0.00     0.056 A 
HETATM   13  C   LIG     1      12.305  27.289  13.259  1.00  0.00     0.057 A 
HETATM   14 CL   LIG     1       9.999  28.803  13.138  1.00  0.00    -0.083 Cl
HETATM   15  C   LIG     1      13.673  27.123  13.496  1.00  0.00     0.050 A 
HETATM   16 CL   LIG     1      11.353  25.898  12.757  1.00  0.00    -0.082 Cl
HETATM   17  C   LIG     1      14.462  28.206  13.897  1.00  0.00     0.046 A 
HETATM   18 CL   LIG     1      16.172  27.931  14.216  1.00  0.00    -0.083 Cl
ENDBRANCH   9  10
TORSDOF 1
ENDMDL
MODEL 2
REMARK VINA RESULT:      -5.4      7.735     10.590
REMARK  1 active torsions:
REMARK  status: ('A' for Active; 'I' for Inactive)
REMARK    1  A    between atoms: C_9  and  C_10 
ROOT
HETATM    1 CL   LIG     1      15.566  38.210  22.257  1.00  0.00    -0.083 Cl
HETATM    2  C   LIG     1      16.444  37.177  23.380  1.00  0.00     0.046 A 
HETATM    3  C   LIG     1      16.814  37.704  24.623  1.00  0.00     0.050 A 
HETATM    4  C   LIG     1      17.490  36.911  25.558  1.00  0.00     0.057 A 
HETATM    5 CL   LIG     1      17.935  37.614  27.106  1.00  0.00    -0.082 Cl
HETATM    6  C   LIG     1      17.798  35.577  25.248  1.00  0.00     0.056 A 
HETATM    7 CL   LIG     1      18.646  34.547  26.395  1.00  0.00    -0.083 Cl
HETATM    8  C   LIG     1      17.430  35.047  24.008  1.00  0.00     0.039 A 
HETATM    9  C   LIG     1      16.751  35.838  23.067  1.00  0.00    -0.001 A 
ENDROOT
BRANCH   9  10
HETATM   10  C   LIG     1      16.388  35.253  21.758  1.00  0.00    -0.001 A 
HETATM   11  C   LIG     1      15.572  34.112  21.717  1.00  0.00     0.039 A 
HETATM   12  C   LIG     1      15.200  33.545  20.494  1.00  0.00     0.056 A 
HETATM   13  C   LIG     1      15.646  34.120  19.294  1.00  0.00     0.057 A 
HETATM   14 CL   LIG     1      14.176  32.115  20.494  1.00  0.00    -0.083 Cl
HETATM   15  C   LIG     1      16.460  35.257  19.329  1.00  0.00     0.050 A 
HETATM   16 CL   LIG     1      15.204  33.437  17.735  1.00  0.00    -0.082 Cl
HETATM   17  C   LIG     1      16.833  35.828  20.550  1.00  0.00     0.046 A 
HETATM   18 CL   LIG     1      17.887  37.238  20.534  1.00  0.00    -0.083 Cl
ENDBRANCH   9  10
TORSDOF 1
ENDMDL
MODEL 3
REMARK VINA RESULT:      -5.1     13.781     15.062
REMARK  1 active torsions:
REMARK  status: ('A' for Active; 'I' for Inactive)
REMARK    1  A    between atoms: C_9  and  C_10 
ROOT
HETATM    1 CL   LIG     1      26.022  25.177  18.363  1.00  0.00    -0.083 Cl
HETATM    2  C   LIG     1      26.647  24.628  19.915  1.00  0.00     0.046 A 
HETATM    3  C   LIG     1      27.559  25.442  20.594  1.00  0.00     0.050 A 
HETATM    4  C   LIG     1      28.061  25.059  21.843  1.00  0.00     0.057 A 
HETATM    5 CL   LIG     1      29.206  26.114  22.661  1.00  0.00    -0.082 Cl
HETATM    6  C   LIG     1      27.646  23.848  22.420  1.00  0.00     0.056 A 
HETATM    7 CL   LIG     1      28.253  23.330  23.987  1.00  0.00    -0.083 Cl
HETATM    8  C   LIG     1      26.735  23.032  21.744  1.00  0.00     0.039 A 
HETATM    9  C   LIG     1      26.227  23.413  20.492  1.00  0.00    -0.001 A 
ENDROOT
BRANCH   9  10
HETATM   10  C   LIG     1      25.275  22.520  19.795  1.00  0.00    -0.001 A 
HETATM   11  C   LIG     1      25.715  21.773  18.692  1.00  0.00     0.039 A 
HETATM   12  C   LIG     1      24.843  20.910  18.022  1.00  0.00     0.056 A 
HETATM   13  C   LIG     1      23.513  20.787  18.455  1.00  0.00     0.057 A 
HETATM   14 CL   LIG     1      25.440  19.995  16.643  1.00  0.00    -0.083 Cl
HETATM   15  C   LIG     1      23.069  21.530  19.555  1.00  0.00     0.050 A 
HETATM   16 CL   LIG     1      22.382  19.715  17.640  1.00  0.00    -0.082 Cl
HETATM   17  C   LIG     1      23.939  22.393  20.228  1.00  0.00     0.046 A 
HETATM   18 CL   LIG     1      23.317  23.329  21.583  1.00  0.00    -0.083 Cl
ENDBRANCH   9  10
TORSDOF 1
ENDMDL
MODEL 4
REMARK VINA RESULT:      -5.1     13.858     16.012
REMARK  1 active torsions:
REMARK  status: ('A' for Active; 'I' for Inactive)
REMARK    1  A    between atoms: C_9  and  C_10 
ROOT
HETATM    1 CL   LIG     1      23.340  23.389  21.607  1.00  0.00    -0.083 Cl
HETATM    2  C   LIG     1      23.977  22.450  20.260  1.00  0.00     0.046 A 
HETATM    3  C   LIG     1      23.103  21.616  19.555  1.00  0.00     0.050 A 
HETATM    4  C   LIG     1      23.559  20.872  18.460  1.00  0.00     0.057 A 
HETATM    5 CL   LIG     1      22.425  19.837  17.603  1.00  0.00    -0.082 Cl
HETATM    6  C   LIG     1      24.903  20.963  18.066  1.00  0.00     0.056 A 
HETATM    7 CL   LIG     1      25.515  20.045  16.697  1.00  0.00    -0.083 Cl
HETATM    8  C   LIG     1      25.779  21.796  18.769  1.00  0.00     0.039 A 
HETATM    9  C   LIG     1      25.326  22.545  19.866  1.00  0.00    -0.001 A 
ENDROOT
BRANCH   9  10
HETATM   10  C   LIG     1      26.281  23.405  20.598  1.00  0.00    -0.001 A 
HETATM   11  C   LIG     1      26.816  22.957  21.816  1.00  0.00     0.039 A 
HETATM   12  C   LIG     1      27.732  23.742  22.524  1.00  0.00     0.056 A 
HETATM   13  C   LIG     1      28.123  24.990  22.013  1.00  0.00     0.057 A 
HETATM   14 CL   LIG     1      28.374  23.139  24.046  1.00  0.00    -0.083 Cl
HETATM   15  C   LIG     1      27.592  25.441  20.800  1.00  0.00     0.050 A 
HETATM   16 CL   LIG     1      29.270  26.009  22.872  1.00  0.00    -0.082 Cl
HETATM   17  C   LIG     1      26.677  24.659  20.089  1.00  0.00     0.046 A 
HETATM   18 CL   LIG     1      26.016  25.292  18.585  1.00  0.00    -0.083 Cl
ENDBRANCH   9  10
TORSDOF 1
ENDMDL
MODEL 5
REMARK VINA RESULT:      -5.1     14.087     15.920
REMARK  1 active torsions:
REMARK  status: ('A' for Active; 'I' for Inactive)
REMARK    1  A    between atoms: C_9  and  C_10 
ROOT
HETATM    1 CL   LIG     1      28.708  23.192  21.825  1.00  0.00    -0.083 Cl
HETATM    2  C   LIG     1      26.958  23.085  21.668  1.00  0.00     0.046 A 
HETATM    3  C   LIG     1      26.224  22.541  22.728  1.00  0.00     0.050 A 
HETATM    4  C   LIG     1      24.828  22.462  22.659  1.00  0.00     0.057 A 
HETATM    5 CL   LIG     1      23.947  21.771  24.014  1.00  0.00    -0.082 Cl
HETATM    6  C   LIG     1      24.158  22.932  21.518  1.00  0.00     0.056 A 
HETATM    7 CL   LIG     1      22.406  22.850  21.392  1.00  0.00    -0.083 Cl
HETATM    8  C   LIG     1      24.888  23.476  20.457  1.00  0.00     0.039 A 
HETATM    9  C   LIG     1      26.288  23.559  20.522  1.00  0.00    -0.001 A 
ENDROOT
BRANCH   9  10
HETATM   10  C   LIG     1      27.033  24.127  19.377  1.00  0.00    -0.001 A 
HETATM   11  C   LIG     1      27.376  25.488  19.387  1.00  0.00     0.039 A 
HETATM   12  C   LIG     1      28.092  26.050  18.326  1.00  0.00     0.056 A 
HETATM   13  C   LIG     1      28.474  25.247  17.239  1.00  0.00     0.057 A 
HETATM   14 CL   LIG     1      28.498  27.760  18.382  1.00  0.00    -0.083 Cl
HETATM   15  C   LIG     1      28.135  23.890  17.225  1.00  0.00     0.050 A 
HETATM   16 CL   LIG     1      29.373  25.914  15.883  1.00  0.00    -0.082 Cl
HETATM   17  C   LIG     1      27.419  23.324  18.285  1.00  0.00     0.046 A 
HETATM   18 CL   LIG     1      26.990  21.619  18.197  1.00  0.00    -0.083 Cl
ENDBRANCH   9  10
TORSDOF 1
ENDMDL
MODEL 6
REMARK VINA RESULT:      -5.0     14.144     15.442
REMARK  1 active torsions:
REMARK  status: ('A' for Active; 'I' for Inactive)
REMARK    1  A    between atoms: C_9  and  C_10 
ROOT
HETATM    1 CL   LIG     1      27.106  21.587  18.247  1.00  0.00    -0.083 Cl
HETATM    2  C   LIG     1      27.504  23.301  18.315  1.00  0.00     0.046 A 
HETATM    3  C   LIG     1      28.221  23.864  17.254  1.00  0.00     0.050 A 
HETATM    4  C   LIG     1      28.536  25.227  17.253  1.00  0.00     0.057 A 
HETATM    5 CL   LIG     1      29.439  25.892  15.899  1.00  0.00    -0.082 Cl
HETATM    6  C   LIG     1      28.127  26.038  18.324  1.00  0.00     0.056 A 
HETATM    7 CL   LIG     1      28.503  27.756  18.361  1.00  0.00    -0.083 Cl
HETATM    8  C   LIG     1      27.411  25.479  19.386  1.00  0.00     0.039 A 
HETATM    9  C   LIG     1      27.091  24.112  19.391  1.00  0.00    -0.001 A 
ENDROOT
BRANCH   9  10
HETATM   10  C   LIG     1      26.344  23.548  20.536  1.00  0.00    -0.001 A 
HETATM   11  C   LIG     1      24.944  23.482  20.478  1.00  0.00     0.039 A 
HETATM   12  C   LIG     1      24.211  22.941  21.539  1.00  0.00     0.056 A 
HETATM   13  C   LIG     1      24.880  22.458  22.674  1.00  0.00     0.057 A 
HETATM   14 CL   LIG     1      22.457  22.880  21.420  1.00  0.00    -0.083 Cl
HETATM   15  C   LIG     1      26.276  22.521  22.738  1.00  0.00     0.050 A 
HETATM   16 CL   LIG     1      23.997  21.771  24.031  1.00  0.00    -0.082 Cl
HETATM   17  C   LIG     1      27.012  23.060  21.678  1.00  0.00     0.046 A 
HETATM   18 CL   LIG     1      28.765  23.147  21.827  1.00  0.00    -0.083 Cl
ENDBRANCH   9  10
TORSDOF 1
ENDMDL
MODEL 7
REMARK VINA RESULT:      -5.0     13.568     15.729
REMARK  1 active torsions:
REMARK  status: ('A' for Active; 'I' for Inactive)
REMARK    1  A    between atoms: C_9  and  C_10 
ROOT
HETATM    1 CL   LIG     1      23.147  23.160  21.259  1.00  0.00    -0.083 Cl
HETATM    2  C   LIG     1      23.733  22.151  19.940  1.00  0.00     0.046 A 
HETATM    3  C   LIG     1      22.839  21.267  19.326  1.00  0.00     0.050 A 
HETATM    4  C   LIG     1      23.254  20.466  18.257  1.00  0.00     0.057 A 
HETATM    5 CL   LIG     1      22.096  19.369  17.516  1.00  0.00    -0.082 Cl
HETATM    6  C   LIG     1      24.577  20.550  17.794  1.00  0.00     0.056 A 
HETATM    7 CL   LIG     1      25.138  19.561  16.452  1.00  0.00    -0.083 Cl
HETATM    8  C   LIG     1      25.473  21.433  18.405  1.00  0.00     0.039 A 
HETATM    9  C   LIG     1      25.061  22.240  19.478  1.00  0.00    -0.001 A 
ENDROOT
BRANCH   9  10
HETATM   10  C   LIG     1      26.037  23.152  20.112  1.00  0.00    -0.001 A 
HETATM   11  C   LIG     1      26.405  24.333  19.449  1.00  0.00     0.039 A 
HETATM   12  C   LIG     1      27.314  25.223  20.030  1.00  0.00     0.056 A 
HETATM   13  C   LIG     1      27.865  24.935  21.289  1.00  0.00     0.057 A 
HETATM   14 CL   LIG     1      27.746  26.689  19.160  1.00  0.00    -0.083 Cl
HETATM   15  C   LIG     1      27.501  23.759  21.954  1.00  0.00     0.050 A 
HETATM   16 CL   LIG     1      29.013  26.025  22.054  1.00  0.00    -0.082 Cl
HETATM   17  C   LIG     1      26.592  22.867  21.376  1.00  0.00     0.046 A 
HETATM   18 CL   LIG     1      26.197  21.386  22.243  1.00  0.00    -0.083 Cl
ENDBRANCH   9  10
TORSDOF 1
ENDMDL
MODEL 8
REMARK VINA RESULT:      -5.0     13.583     14.761
REMARK  1 active torsions:
REMARK  status: ('A' for Active; 'I' for Inactive)
REMARK    1  A    between atoms: C_9  and  C_10 
ROOT
HETATM    1 CL   LIG     1      26.212  21.410  22.272  1.00  0.00    -0.083 Cl
HETATM    2  C   LIG     1      26.606  22.885  21.395  1.00  0.00     0.046 A 
HETATM    3  C   LIG     1      27.515  23.781  21.967  1.00  0.00     0.050 A 
HETATM    4  C   LIG     1      27.878  24.953  21.294  1.00  0.00     0.057 A 
HETATM    5 CL   LIG     1      29.025  26.050  22.051  1.00  0.00    -0.082 Cl
HETATM    6  C   LIG     1      27.327  25.231  20.033  1.00  0.00     0.056 A 
HETATM    7 CL   LIG     1      27.757  26.693  19.153  1.00  0.00    -0.083 Cl
HETATM    8  C   LIG     1      26.418  24.339  19.458  1.00  0.00     0.039 A 
HETATM    9  C   LIG     1      26.052  23.161  20.129  1.00  0.00    -0.001 A 
ENDROOT
BRANCH   9  10
HETATM   10  C   LIG     1      25.077  22.244  19.500  1.00  0.00    -0.001 A 
HETATM   11  C   LIG     1      25.480  21.451  18.415  1.00  0.00     0.039 A 
HETATM   12  C   LIG     1      24.585  20.564  17.809  1.00  0.00     0.056 A 
HETATM   13  C   LIG     1      23.269  20.463  18.290  1.00  0.00     0.057 A 
HETATM   14 CL   LIG     1      25.136  19.591  16.451  1.00  0.00    -0.083 Cl
HETATM   15  C   LIG     1      22.862  21.251  19.371  1.00  0.00     0.050 A 
HETATM   16 CL   LIG     1      22.111  19.362  17.555  1.00  0.00    -0.082 Cl
HETATM   17  C   LIG     1      23.755  22.139  19.980  1.00  0.00     0.046 A 
HETATM   18 CL   LIG     1      23.178  23.132  21.315  1.00  0.00    -0.083 Cl
ENDBRANCH   9  10
TORSDOF 1
ENDMDL
MODEL 9
REMARK VINA RESULT:      -5.0      3.080      7.482
REMARK  1 active torsions:
REMARK  status: ('A' for Active; 'I' for Inactive)
REMARK    1  A    between atoms: C_9  and  C_10 
ROOT
HETATM    1 CL   LIG     1      17.373  35.261  15.583  1.00  0.00    -0.083 Cl
HETATM    2  C   LIG     1      16.679  33.725  15.073  1.00  0.00     0.046 A 
HETATM    3  C   LIG     1      15.722  33.119  15.894  1.00  0.00     0.050 A 
HETATM    4  C   LIG     1      15.123  31.912  15.516  1.00  0.00     0.057 A 
HETATM    5 CL   LIG     1      13.926  31.185  16.579  1.00  0.00    -0.082 Cl
HETATM    6  C   LIG     1      15.483  31.305  14.302  1.00  0.00     0.056 A 
HETATM    7 CL   LIG     1      14.755  29.788  13.790  1.00  0.00    -0.083 Cl
HETATM    8  C   LIG     1      16.439  31.908  13.479  1.00  0.00     0.039 A 
HETATM    9  C   LIG     1      17.041  33.120  13.853  1.00  0.00    -0.001 A 
ENDROOT
BRANCH   9  10
HETATM   10  C   LIG     1      18.059  33.726  12.968  1.00  0.00    -0.001 A 
HETATM   11  C   LIG     1      19.420  33.521  13.244  1.00  0.00     0.039 A 
HETATM   12  C   LIG     1      20.405  34.070  12.417  1.00  0.00     0.056 A 
HETATM   13  C   LIG     1      20.032  34.831  11.298  1.00  0.00     0.057 A 
HETATM   14 CL   LIG     1      22.097  33.787  12.804  1.00  0.00    -0.083 Cl
HETATM   15  C   LIG     1      18.678  35.038  11.018  1.00  0.00     0.050 A 
HETATM   16 CL   LIG     1      21.239  35.540  10.233  1.00  0.00    -0.082 Cl
HETATM   17  C   LIG     1      17.689  34.490  11.843  1.00  0.00     0.046 A 
HETATM   18 CL   LIG     1      16.001  34.812  11.462  1.00  0.00    -0.083 Cl
ENDBRANCH   9  10
TORSDOF 1
ENDMDL
MODEL 10
REMARK VINA RESULT:      -4.8     14.554     15.950
REMARK  1 active torsions:
REMARK  status: ('A' for Active; 'I' for Inactive)
REMARK    1  A    between atoms: C_9  and  C_10 
ROOT
HETATM    1 CL   LIG     1      22.476  19.618  23.828  1.00  0.00    -0.083 Cl
HETATM    2  C   LIG     1      23.615  20.922  24.149  1.00  0.00     0.046 A 
HETATM    3  C   LIG     1      23.837  21.305  25.476  1.00  0.00     0.050 A 
HETATM    4  C   LIG     1      24.754  22.317  25.779  1.00  0.00     0.057 A 
HETATM    5 CL   LIG     1      25.001  22.766  27.462  1.00  0.00    -0.082 Cl
HETATM    6  C   LIG     1      25.459  22.953  24.745  1.00  0.00     0.056 A 
HETATM    7 CL   LIG     1      26.620  24.230  25.084  1.00  0.00    -0.083 Cl
HETATM    8  C   LIG     1      25.240  22.573  23.418  1.00  0.00     0.039 A 
HETATM    9  C   LIG     1      24.322  21.557  23.108  1.00  0.00    -0.001 A 
ENDROOT
BRANCH   9  10
HETATM   10  C   LIG     1      24.102  21.187  21.693  1.00  0.00    -0.001 A 
HETATM   11  C   LIG     1      24.867  20.157  21.125  1.00  0.00     0.039 A 
HETATM   12  C   LIG     1      24.672  19.775  19.793  1.00  0.00     0.056 A 
HETATM   13  C   LIG     1      23.702  20.428  19.016  1.00  0.00     0.057 A 
HETATM   14 CL   LIG     1      25.655  18.479  19.126  1.00  0.00    -0.083 Cl
HETATM   15  C   LIG     1      22.938  21.456  19.577  1.00  0.00     0.050 A 
HETATM   16 CL   LIG     1      23.427  19.981  17.337  1.00  0.00    -0.082 Cl
HETATM   17  C   LIG     1      23.129  21.839  20.908  1.00  0.00     0.046 A 
HETATM   18 CL   LIG     1      22.162  23.163  21.552  1.00  0.00    -0.083 Cl
ENDBRANCH   9  10
TORSDOF 1
ENDMDL
MODEL 11
REMARK VINA RESULT:      -4.7     13.977     16.187
REMARK  1 active torsions:
REMARK  status: ('A' for Active; 'I' for Inactive)
REMARK    1  A    between atoms: C_9  and  C_10 
ROOT
HETATM    1 CL   LIG     1      27.507  21.866  17.493  1.00  0.00    -0.083 Cl
HETATM    2  C   LIG     1      26.096  22.096  18.521  1.00  0.00     0.046 A 
HETATM    3  C   LIG     1      24.995  21.250  18.344  1.00  0.00     0.050 A 
HETATM    4  C   LIG     1      23.863  21.378  19.157  1.00  0.00     0.057 A 
HETATM    5 CL   LIG     1      22.503  20.294  18.899  1.00  0.00    -0.082 Cl
HETATM    6  C   LIG     1      23.831  22.361  20.158  1.00  0.00     0.056 A 
HETATM    7 CL   LIG     1      22.427  22.555  21.200  1.00  0.00    -0.083 Cl
HETATM    8  C   LIG     1      24.929  23.208  20.338  1.00  0.00     0.039 A 
HETATM    9  C   LIG     1      26.067  23.083  19.526  1.00  0.00    -0.001 A 
ENDROOT
BRANCH   9  10
HETATM   10  C   LIG     1      27.207  24.003  19.731  1.00  0.00    -0.001 A 
HETATM   11  C   LIG     1      27.257  25.206  19.009  1.00  0.00     0.039 A 
HETATM   12  C   LIG     1      28.315  26.103  19.192  1.00  0.00     0.056 A 
HETATM   13  C   LIG     1      29.336  25.800  20.106  1.00  0.00     0.057 A 
HETATM   14 CL   LIG     1      28.335  27.596  18.264  1.00  0.00    -0.083 Cl
HETATM   15  C   LIG     1      29.290  24.603  20.828  1.00  0.00     0.050 A 
HETATM   16 CL   LIG     1      30.684  26.899  20.365  1.00  0.00    -0.082 Cl
HETATM   17  C   LIG     1      28.234  23.704  20.649  1.00  0.00     0.046 A 
HETATM   18 CL   LIG     1      28.246  22.197  21.559  1.00  0.00    -0.083 Cl
ENDBRANCH   9  10
TORSDOF 1
ENDMDL
MODEL 12
REMARK VINA RESULT:      -4.7     14.406     16.627
REMARK  1 active torsions:
REMARK  status: ('A' for Active; 'I' for Inactive)
REMARK    1  A    between atoms: C_9  and  C_10 
ROOT
HETATM    1 CL   LIG     1      27.921  22.170  18.725  1.00  0.00    -0.083 Cl
HETATM    2  C   LIG     1      26.297  22.336  19.386  1.00  0.00     0.046 A 
HETATM    3  C   LIG     1      25.264  21.580  18.820  1.00  0.00     0.050 A 
HETATM    4  C   LIG     1      23.964  21.660  19.331  1.00  0.00     0.057 A 
HETATM    5 CL   LIG     1      22.697  20.692  18.589  1.00  0.00    -0.082 Cl
HETATM    6  C   LIG     1      23.692  22.503  20.420  1.00  0.00     0.056 A 
HETATM    7 CL   LIG     1      22.072  22.631  21.092  1.00  0.00    -0.083 Cl
HETATM    8  C   LIG     1      24.722  23.259  20.988  1.00  0.00     0.039 A 
HETATM    9  C   LIG     1      26.029  23.182  20.480  1.00  0.00    -0.001 A 
ENDROOT
BRANCH   9  10
HETATM   10  C   LIG     1      27.093  24.006  21.093  1.00  0.00    -0.001 A 
HETATM   11  C   LIG     1      27.728  23.551  22.259  1.00  0.00     0.039 A 
HETATM   12  C   LIG     1      28.748  24.301  22.854  1.00  0.00     0.056 A 
HETATM   13  C   LIG     1      29.142  25.521  22.281  1.00  0.00     0.057 A 
HETATM   14 CL   LIG     1      29.514  23.691  24.315  1.00  0.00    -0.083 Cl
HETATM   15  C   LIG     1      28.511  25.979  21.120  1.00  0.00     0.050 A 
HETATM   16 CL   LIG     1      30.417  26.496  22.998  1.00  0.00    -0.082 Cl
HETATM   17  C   LIG     1      27.492  25.231  20.521  1.00  0.00     0.046 A 
HETATM   18 CL   LIG     1      26.711  25.873  19.080  1.00  0.00    -0.083 Cl
ENDBRANCH   9  10
TORSDOF 1
ENDMDL
MODEL 13
REMARK VINA RESULT:      -4.6     13.922     15.304
REMARK  1 active torsions:
REMARK  status: ('A' for Active; 'I' for Inactive)
REMARK    1  A    between atoms: C_9  and  C_10 
ROOT
HETATM    1 CL   LIG     1      27.572  21.330  18.280  1.00  0.00    -0.083 Cl
HETATM    2  C   LIG     1      27.721  23.082  18.379  1.00  0.00     0.046 A 
HETATM    3  C   LIG     1      28.645  23.723  17.547  1.00  0.00     0.050 A 
HETATM    4  C   LIG     1      28.779  25.116  17.572  1.00  0.00     0.057 A 
HETATM    5 CL   LIG     1      29.953  25.878  16.508  1.00  0.00    -0.082 Cl
HETATM    6  C   LIG     1      27.978  25.877  18.438  1.00  0.00     0.056 A 
HETATM    7 CL   LIG     1      28.115  27.630  18.501  1.00  0.00    -0.083 Cl
HETATM    8  C   LIG     1      27.054  25.241  19.272  1.00  0.00     0.039 A 
HETATM    9  C   LIG     1      26.915  23.844  19.249  1.00  0.00    -0.001 A 
ENDROOT
BRANCH   9  10
HETATM   10  C   LIG     1      25.939  23.199  20.153  1.00  0.00    -0.001 A 
HETATM   11  C   LIG     1      26.220  23.121  21.526  1.00  0.00     0.039 A 
HETATM   12  C   LIG     1      25.310  22.530  22.408  1.00  0.00     0.056 A 
HETATM   13  C   LIG     1      24.102  22.009  21.918  1.00  0.00     0.057 A 
HETATM   14 CL   LIG     1      25.707  22.455  24.120  1.00  0.00    -0.083 Cl
HETATM   15  C   LIG     1      23.817  22.084  20.551  1.00  0.00     0.050 A 
HETATM   16 CL   LIG     1      22.931  21.256  22.992  1.00  0.00    -0.082 Cl
HETATM   17  C   LIG     1      24.724  22.675  19.666  1.00  0.00     0.046 A 
HETATM   18 CL   LIG     1      24.328  22.710  17.951  1.00  0.00    -0.083 Cl
ENDBRANCH   9  10
TORSDOF 1
ENDMDL
MODEL 14
REMARK VINA RESULT:      -4.4     13.980     16.098
REMARK  1 active torsions:
REMARK  status: ('A' for Active; 'I' for Inactive)
REMARK    1  A    between atoms: C_9  and  C_10 
ROOT
HETATM    1 CL   LIG     1      28.699  22.521  20.634  1.00  0.00    -0.083 Cl
HETATM    2  C   LIG     1      27.066  22.338  20.001  1.00  0.00     0.046 A 
HETATM    3  C   LIG     1      26.182  21.481  20.667  1.00  0.00     0.050 A 
HETATM    4  C   LIG     1      24.867  21.327  20.215  1.00  0.00     0.057 A 
HETATM    5 CL   LIG     1      23.792  20.239  21.083  1.00  0.00    -0.082 Cl
HETATM    6  C   LIG     1      24.428  22.037  19.087  1.00  0.00     0.056 A 
HETATM    7 CL   LIG     1      22.783  21.871  18.487  1.00  0.00    -0.083 Cl
HETATM    8  C   LIG     1      25.308  22.894  18.419  1.00  0.00     0.039 A 
HETATM    9  C   LIG     1      26.629  23.054  18.869  1.00  0.00    -0.001 A 
ENDROOT
BRANCH   9  10
HETATM   10  C   LIG     1      27.539  23.958  18.132  1.00  0.00    -0.001 A 
HETATM   11  C   LIG     1      28.127  23.515  16.937  1.00  0.00     0.039 A 
HETATM   12  C   LIG     1      28.981  24.352  16.211  1.00  0.00     0.056 A 
HETATM   13  C   LIG     1      29.254  25.647  16.680  1.00  0.00     0.057 A 
HETATM   14 CL   LIG     1      29.695  23.753  14.719  1.00  0.00    -0.083 Cl
HETATM   15  C   LIG     1      28.671  26.092  17.870  1.00  0.00     0.050 A 
HETATM   16 CL   LIG     1      30.324  26.729  15.799  1.00  0.00    -0.082 Cl
HETATM   17  C   LIG     1      27.816  25.259  18.599  1.00  0.00     0.046 A 
HETATM   18 CL   LIG     1      27.137  25.860  20.108  1.00  0.00    -0.083 Cl
ENDBRANCH   9  10
TORSDOF 1
ENDMDL
MODEL 15
REMARK VINA RESULT:      -4.4     18.799     20.066
REMARK  1 active torsions:
REMARK  status: ('A' for Active; 'I' for Inactive)
REMARK    1  A    between atoms: C_9  and  C_10 
ROOT
HETATM    1 CL   LIG     1      28.613  21.845  28.897  1.00  0.00    -0.083 Cl
HETATM    2  C   LIG     1      28.095  23.367  29.615  1.00  0.00     0.046 A 
HETATM    3  C   LIG     1      28.637  23.743  30.848  1.00  0.00     0.050 A 
HETATM    4  C   LIG     1      28.274  24.957  31.443  1.00  0.00     0.057 A 
HETATM    5 CL   LIG     1      28.980  25.389  32.994  1.00  0.00    -0.082 Cl
HETATM    6  C   LIG     1      27.361  25.806  30.797  1.00  0.00     0.056 A 
HETATM    7 CL   LIG     1      26.880  27.339  31.510  1.00  0.00    -0.083 Cl
HETATM    8  C   LIG     1      26.818  25.433  29.564  1.00  0.00     0.039 A 
HETATM    9  C   LIG     1      27.179  24.217  28.962  1.00  0.00    -0.001 A 
ENDROOT
BRANCH   9  10
HETATM   10  C   LIG     1      26.575  23.844  27.664  1.00  0.00    -0.001 A 
HETATM   11  C   LIG     1      25.458  22.994  27.645  1.00  0.00     0.039 A 
HETATM   12  C   LIG     1      24.857  22.636  26.434  1.00  0.00     0.056 A 
HETATM   13  C   LIG     1      25.374  23.130  25.225  1.00  0.00     0.057 A 
HETATM   14 CL   LIG     1      23.460  21.568  26.459  1.00  0.00    -0.083 Cl
HETATM   15  C   LIG     1      26.487  23.977  25.240  1.00  0.00     0.050 A 
HETATM   16 CL   LIG     1      24.650  22.702  23.681  1.00  0.00    -0.082 Cl
HETATM   17  C   LIG     1      27.090  24.338  26.449  1.00  0.00     0.046 A 
HETATM   18 CL   LIG     1      28.509  25.379  26.404  1.00  0.00    -0.083 Cl
ENDBRANCH   9  10
TORSDOF 1
ENDMDL
MODEL 16
REMARK VINA RESULT:      -4.4     18.825     20.663
REMARK  1 active torsions:
REMARK  status: ('A' for Active; 'I' for Inactive)
REMARK    1  A    between atoms: C_9  and  C_10 
ROOT
HETATM    1 CL   LIG     1      28.555  25.392  26.402  1.00  0.00    -0.083 Cl
HETATM    2  C   LIG     1      27.131  24.357  26.456  1.00  0.00     0.046 A 
HETATM    3  C   LIG     1      26.521  23.995  25.251  1.00  0.00     0.050 A 
HETATM    4  C   LIG     1      25.404  23.152  25.245  1.00  0.00     0.057 A 
HETATM    5 CL   LIG     1      24.670  22.723  23.706  1.00  0.00    -0.082 Cl
HETATM    6  C   LIG     1      24.891  22.664  26.457  1.00  0.00     0.056 A 
HETATM    7 CL   LIG     1      23.489  21.604  26.493  1.00  0.00    -0.083 Cl
HETATM    8  C   LIG     1      25.498  23.025  27.664  1.00  0.00     0.039 A 
HETATM    9  C   LIG     1      26.620  23.869  27.676  1.00  0.00    -0.001 A 
ENDROOT
BRANCH   9  10
HETATM   10  C   LIG     1      27.230  24.243  28.970  1.00  0.00    -0.001 A 
HETATM   11  C   LIG     1      26.833  25.433  29.598  1.00  0.00     0.039 A 
HETATM   12  C   LIG     1      27.382  25.806  30.829  1.00  0.00     0.056 A 
HETATM   13  C   LIG     1      28.340  24.984  31.444  1.00  0.00     0.057 A 
HETATM   14 CL   LIG     1      26.853  27.307  31.579  1.00  0.00    -0.083 Cl
HETATM   15  C   LIG     1      28.739  23.797  30.821  1.00  0.00     0.050 A 
HETATM   16 CL   LIG     1      29.056  25.418  32.990  1.00  0.00    -0.082 Cl
HETATM   17  C   LIG     1      28.192  23.420  29.591  1.00  0.00     0.046 A 
HETATM   18 CL   LIG     1      28.758  21.934  28.837  1.00  0.00    -0.083 Cl
ENDBRANCH   9  10
TORSDOF 1
ENDMDL
MODEL 17
REMARK VINA RESULT:      -4.4     19.593     21.380
REMARK  1 active torsions:
REMARK  status: ('A' for Active; 'I' for Inactive)
REMARK    1  A    between atoms: C_9  and  C_10 
ROOT
HETATM    1 CL   LIG     1      30.169  26.263  28.584  1.00  0.00    -0.083 Cl
HETATM    2  C   LIG     1      28.751  25.545  27.826  1.00  0.00     0.046 A 
HETATM    3  C   LIG     1      28.718  25.442  26.431  1.00  0.00     0.050 A 
HETATM    4  C   LIG     1      27.623  24.855  25.787  1.00  0.00     0.057 A 
HETATM    5 CL   LIG     1      27.625  24.747  24.032  1.00  0.00    -0.082 Cl
HETATM    6  C   LIG     1      26.549  24.362  26.546  1.00  0.00     0.056 A 
HETATM    7 CL   LIG     1      25.155  23.617  25.775  1.00  0.00    -0.083 Cl
HETATM    8  C   LIG     1      26.578  24.464  27.940  1.00  0.00     0.039 A 
HETATM    9  C   LIG     1      27.675  25.051  28.591  1.00  0.00    -0.001 A 
ENDROOT
BRANCH   9  10
HETATM   10  C   LIG     1      27.669  25.156  30.066  1.00  0.00    -0.001 A 
HETATM   11  C   LIG     1      27.059  26.265  30.673  1.00  0.00     0.039 A 
HETATM   12  C   LIG     1      27.025  26.385  32.066  1.00  0.00     0.056 A 
HETATM   13  C   LIG     1      27.606  25.388  32.867  1.00  0.00     0.057 A 
HETATM   14 CL   LIG     1      26.250  27.792  32.782  1.00  0.00    -0.083 Cl
HETATM   15  C   LIG     1      28.215  24.282  32.266  1.00  0.00     0.050 A 
HETATM   16 CL   LIG     1      27.587  25.502  34.622  1.00  0.00    -0.082 Cl
HETATM   17  C   LIG     1      28.250  24.158  30.874  1.00  0.00     0.046 A 
HETATM   18 CL   LIG     1      29.061  22.762  30.172  1.00  0.00    -0.083 Cl
ENDBRANCH   9  10
TORSDOF 1
ENDMDL
MODEL 18
REMARK VINA RESULT:      -4.3     15.589     17.549
REMARK  1 active torsions:
REMARK  status: ('A' for Active; 'I' for Inactive)
REMARK    1  A    between atoms: C_9  and  C_10 
ROOT
HETATM    1 CL   LIG     1      27.509  20.554  22.855  1.00  0.00    -0.083 Cl
HETATM    2  C   LIG     1      25.956  21.228  22.373  1.00  0.00     0.046 A 
HETATM    3  C   LIG     1      25.223  20.574  21.377  1.00  0.00     0.050 A 
HETATM    4  C   LIG     1      23.971  21.058  20.982  1.00  0.00     0.057 A 
HETATM    5 CL   LIG     1      23.084  20.203  19.727  1.00  0.00    -0.082 Cl
HETATM    6  C   LIG     1      23.444  22.210  21.590  1.00  0.00     0.056 A 
HETATM    7 CL   LIG     1      21.875  22.851  21.122  1.00  0.00    -0.083 Cl
HETATM    8  C   LIG     1      24.174  22.867  22.585  1.00  0.00     0.039 A 
HETATM    9  C   LIG     1      25.430  22.384  22.986  1.00  0.00    -0.001 A 
ENDROOT
BRANCH   9  10
HETATM   10  C   LIG     1      26.184  23.109  24.031  1.00  0.00    -0.001 A 
HETATM   11  C   LIG     1      25.818  22.952  25.377  1.00  0.00     0.039 A 
HETATM   12  C   LIG     1      26.521  23.614  26.389  1.00  0.00     0.056 A 
HETATM   13  C   LIG     1      27.604  24.444  26.058  1.00  0.00     0.057 A 
HETATM   14 CL   LIG     1      26.025  23.386  28.061  1.00  0.00    -0.083 Cl
HETATM   15  C   LIG     1      27.972  24.604  24.718  1.00  0.00     0.050 A 
HETATM   16 CL   LIG     1      28.513  25.296  27.299  1.00  0.00    -0.082 Cl
HETATM   17  C   LIG     1      27.273  23.943  23.704  1.00  0.00     0.046 A 
HETATM   18 CL   LIG     1      27.758  24.210  22.033  1.00  0.00    -0.083 Cl
ENDBRANCH   9  10
TORSDOF 1
ENDMDL
MODEL 19
REMARK VINA RESULT:      -4.3     15.648     16.939
REMARK  1 active torsions:
REMARK  status: ('A' for Active; 'I' for Inactive)
REMARK    1  A    between atoms: C_9  and  C_10 
ROOT
HETATM    1 CL   LIG     1      27.131  20.009  23.521  1.00  0.00    -0.083 Cl
HETATM    2  C   LIG     1      26.845  21.398  24.563  1.00  0.00     0.046 A 
HETATM    3  C   LIG     1      27.582  21.510  25.747  1.00  0.00     0.050 A 
HETATM    4  C   LIG     1      27.407  22.611  26.592  1.00  0.00     0.057 A 
HETATM    5 CL   LIG     1      28.356  22.709  28.070  1.00  0.00    -0.082 Cl
HETATM    6  C   LIG     1      26.486  23.614  26.250  1.00  0.00     0.056 A 
HETATM    7 CL   LIG     1      26.236  25.013  27.286  1.00  0.00    -0.083 Cl
HETATM    8  C   LIG     1      25.747  23.506  25.069  1.00  0.00     0.039 A 
HETATM    9  C   LIG     1      25.920  22.404  24.216  1.00  0.00    -0.001 A 
ENDROOT
BRANCH   9  10
HETATM   10  C   LIG     1      25.113  22.311  22.980  1.00  0.00    -0.001 A 
HETATM   11  C   LIG     1      25.584  22.918  21.805  1.00  0.00     0.039 A 
HETATM   12  C   LIG     1      24.850  22.836  20.618  1.00  0.00     0.056 A 
HETATM   13  C   LIG     1      23.631  22.140  20.598  1.00  0.00     0.057 A 
HETATM   14 CL   LIG     1      25.480  23.613  19.171  1.00  0.00    -0.083 Cl
HETATM   15  C   LIG     1      23.157  21.534  21.766  1.00  0.00     0.050 A 
HETATM   16 CL   LIG     1      22.676  22.015  19.126  1.00  0.00    -0.082 Cl
HETATM   17  C   LIG     1      23.889  21.613  22.955  1.00  0.00     0.046 A 
HETATM   18 CL   LIG     1      23.228  20.861  24.403  1.00  0.00    -0.083 Cl
ENDBRANCH   9  10
TORSDOF 1
ENDMDL
MODEL 20
REMARK VINA RESULT:      -4.3     19.728     21.168
REMARK  1 active torsions:
REMARK  status: ('A' for Active; 'I' for Inactive)
REMARK    1  A    between atoms: C_9  and  C_10 
ROOT
HETATM    1 CL   LIG     1      29.754  26.469  28.477  1.00  0.00    -0.083 Cl
HETATM    2  C   LIG     1      28.793  26.855  29.900  1.00  0.00     0.046 A 
HETATM    3  C   LIG     1      29.134  27.985  30.652  1.00  0.00     0.050 A 
HETATM    4  C   LIG     1      28.381  28.345  31.775  1.00  0.00     0.057 A 
HETATM    5 CL   LIG     1      28.848  29.773  32.690  1.00  0.00    -0.082 Cl
HETATM    6  C   LIG     1      27.273  27.569  32.151  1.00  0.00     0.056 A 
HETATM    7 CL   LIG     1      26.302  27.988  33.556  1.00  0.00    -0.083 Cl
HETATM    8  C   LIG     1      26.929  26.440  31.403  1.00  0.00     0.039 A 
HETATM    9  C   LIG     1      27.680  26.075  30.274  1.00  0.00    -0.001 A 
ENDROOT
BRANCH   9  10
HETATM   10  C   LIG     1      27.299  24.866  29.511  1.00  0.00    -0.001 A 
HETATM   11  C   LIG     1      26.656  25.010  28.272  1.00  0.00     0.039 A 
HETATM   12  C   LIG     1      26.296  23.886  27.521  1.00  0.00     0.056 A 
HETATM   13  C   LIG     1      26.580  22.601  28.009  1.00  0.00     0.057 A 
HETATM   14 CL   LIG     1      25.491  24.117  25.975  1.00  0.00    -0.083 Cl
HETATM   15  C   LIG     1      27.220  22.452  29.244  1.00  0.00     0.050 A 
HETATM   16 CL   LIG     1      26.142  21.162  27.098  1.00  0.00    -0.082 Cl
HETATM   17  C   LIG     1      27.583  23.573  29.997  1.00  0.00     0.046 A 
HETATM   18 CL   LIG     1      28.355  23.326  31.560  1.00  0.00    -0.083 Cl
ENDBRANCH   9  10
TORSDOF 1
ENDMDL
