MODEL 1
REMARK VINA RESULT:      -5.8      0.000      0.000
REMARK  1 active torsions:
REMARK  status: ('A' for Active; 'I' for Inactive)
REMARK    1  A    between atoms: C_8  and  C_9 
ROOT
HETATM    1 CL   LIG     1       9.949  28.753  13.147  1.00  0.00    -0.083 Cl
HETATM    2  C   LIG     1      11.670  28.494  13.408  1.00  0.00     0.056 A 
HETATM    3  C   LIG     1      12.247  27.223  13.256  1.00  0.00     0.057 A 
HETATM    4 CL   LIG     1      11.276  25.830  12.796  1.00  0.00    -0.082 Cl
HETATM    5  C   LIG     1      13.618  27.051  13.476  1.00  0.00     0.050 A 
HETATM    6  C   LIG     1      14.420  28.138  13.842  1.00  0.00     0.046 A 
HETATM    7 CL   LIG     1      16.132  27.860  14.140  1.00  0.00    -0.083 Cl
HETATM    8  C   LIG     1      13.845  29.416  13.985  1.00  0.00    -0.001 A 
HETATM    9  C   LIG     1      12.469  29.582  13.775  1.00  0.00     0.039 A 
ENDROOT
BRANCH   8  10
HETATM   10  C   LIG     1      14.663  30.584  14.369  1.00  0.00    -0.001 A 
HETATM   11  C   LIG     1      15.588  31.096  13.450  1.00  0.00     0.016 A 
HETATM   12  C   LIG     1      16.372  32.201  13.779  1.00  0.00     0.026 A 
HETATM   13  C   LIG     1      16.247  32.806  15.031  1.00  0.00     0.057 A 
HETATM   14  C   LIG     1      15.330  32.298  15.970  1.00  0.00     0.078 A 
HETATM   15 CL   LIG     1      17.257  34.200  15.400  1.00  0.00    -0.082 Cl
HETATM   16 CL   LIG     1      15.182  33.059  17.554  1.00  0.00    -0.081 Cl
HETATM   17  C   LIG     1      14.538  31.181  15.641  1.00  0.00     0.068 A 
HETATM   18 CL   LIG     1      13.413  30.516  16.829  1.00  0.00    -0.082 Cl
ENDBRANCH   8  10
TORSDOF 1
ENDMDL
MODEL 2
REMARK VINA RESULT:      -5.2      7.657     10.583
REMARK  1 active torsions:
REMARK  status: ('A' for Active; 'I' for Inactive)
REMARK    1  A    between atoms: C_8  and  C_9 
ROOT
HETATM    1 CL   LIG     1      14.309  32.243  20.262  1.00  0.00    -0.083 Cl
HETATM    2  C   LIG     1      15.329  33.669  20.413  1.00  0.00     0.056 A 
HETATM    3  C   LIG     1      15.714  34.412  19.286  1.00  0.00     0.057 A 
HETATM    4 CL   LIG     1      15.195  33.951  17.670  1.00  0.00    -0.082 Cl
HETATM    5  C   LIG     1      16.529  35.538  19.441  1.00  0.00     0.050 A 
HETATM    6  C   LIG     1      16.960  35.934  20.712  1.00  0.00     0.046 A 
HETATM    7 CL   LIG     1      18.013  37.338  20.847  1.00  0.00    -0.083 Cl
HETATM    8  C   LIG     1      16.566  35.196  21.846  1.00  0.00    -0.001 A 
HETATM    9  C   LIG     1      15.758  34.061  21.685  1.00  0.00     0.039 A 
ENDROOT
BRANCH   8  10
HETATM   10  C   LIG     1      17.001  35.587  23.202  1.00  0.00    -0.001 A 
HETATM   11  C   LIG     1      17.569  34.616  24.037  1.00  0.00     0.016 A 
HETATM   12  C   LIG     1      17.994  34.953  25.322  1.00  0.00     0.026 A 
HETATM   13  C   LIG     1      17.854  36.262  25.791  1.00  0.00     0.057 A 
HETATM   14  C   LIG     1      17.276  37.245  24.968  1.00  0.00     0.078 A 
HETATM   15 CL   LIG     1      18.407  36.639  27.418  1.00  0.00    -0.082 Cl
HETATM   16 CL   LIG     1      17.090  38.894  25.567  1.00  0.00    -0.081 Cl
HETATM   17  C   LIG     1      16.844  36.908  23.671  1.00  0.00     0.068 A 
HETATM   18 CL   LIG     1      16.083  38.130  22.648  1.00  0.00    -0.082 Cl
ENDBRANCH   8  10
TORSDOF 1
ENDMDL
MODEL 3
REMARK VINA RESULT:      -5.2     13.509     14.724
REMARK  1 active torsions:
REMARK  status: ('A' for Active; 'I' for Inactive)
REMARK    1  A    between atoms: C_8  and  C_9 
ROOT
HETATM    1 CL   LIG     1      25.168  19.508  16.504  1.00  0.00    -0.083 Cl
HETATM    2  C   LIG     1      24.592  20.494  17.842  1.00  0.00     0.056 A 
HETATM    3  C   LIG     1      23.265  20.408  18.291  1.00  0.00     0.057 A 
HETATM    4 CL   LIG     1      22.117  19.309  17.538  1.00  0.00    -0.082 Cl
HETATM    5  C   LIG     1      22.837  21.210  19.355  1.00  0.00     0.050 A 
HETATM    6  C   LIG     1      23.724  22.094  19.978  1.00  0.00     0.046 A 
HETATM    7 CL   LIG     1      23.126  23.106  21.289  1.00  0.00    -0.083 Cl
HETATM    8  C   LIG     1      25.059  22.176  19.536  1.00  0.00    -0.001 A 
HETATM    9  C   LIG     1      25.481  21.378  18.462  1.00  0.00     0.039 A 
ENDROOT
BRANCH   8  10
HETATM   10  C   LIG     1      26.022  23.097  20.172  1.00  0.00    -0.001 A 
HETATM   11  C   LIG     1      26.518  22.787  21.445  1.00  0.00     0.016 A 
HETATM   12  C   LIG     1      27.432  23.634  22.071  1.00  0.00     0.026 A 
HETATM   13  C   LIG     1      27.859  24.803  21.437  1.00  0.00     0.057 A 
HETATM   14  C   LIG     1      27.362  25.135  20.163  1.00  0.00     0.078 A 
HETATM   15 CL   LIG     1      29.014  25.839  22.267  1.00  0.00    -0.082 Cl
HETATM   16 CL   LIG     1      27.895  26.617  19.370  1.00  0.00    -0.081 Cl
HETATM   17  C   LIG     1      26.438  24.282  19.529  1.00  0.00     0.068 A 
HETATM   18 CL   LIG     1      25.782  24.712  17.946  1.00  0.00    -0.082 Cl
ENDBRANCH   8  10
TORSDOF 1
ENDMDL
MODEL 4
REMARK VINA RESULT:      -5.1      1.302      2.118
REMARK  1 active torsions:
REMARK  status: ('A' for Active; 'I' for Inactive)
REMARK    1  A    between atoms: C_8  and  C_9 
ROOT
HETATM    1 CL   LIG     1      10.092  28.353  12.976  1.00  0.00    -0.083 Cl
HETATM    2  C   LIG     1      11.798  28.364  13.405  1.00  0.00     0.056 A 
HETATM    3  C   LIG     1      12.657  27.329  13.005  1.00  0.00     0.057 A 
HETATM    4 CL   LIG     1      12.067  25.971  12.056  1.00  0.00    -0.082 Cl
HETATM    5  C   LIG     1      14.008  27.367  13.367  1.00  0.00     0.050 A 
HETATM    6  C   LIG     1      14.512  28.433  14.121  1.00  0.00     0.046 A 
HETATM    7 CL   LIG     1      16.212  28.414  14.578  1.00  0.00    -0.083 Cl
HETATM    8  C   LIG     1      13.654  29.478  14.515  1.00  0.00    -0.001 A 
HETATM    9  C   LIG     1      12.298  29.431  14.160  1.00  0.00     0.039 A 
ENDROOT
BRANCH   8  10
HETATM   10  C   LIG     1      14.153  30.619  15.310  1.00  0.00    -0.001 A 
HETATM   11  C   LIG     1      13.612  30.846  16.582  1.00  0.00     0.016 A 
HETATM   12  C   LIG     1      14.064  31.912  17.360  1.00  0.00     0.026 A 
HETATM   13  C   LIG     1      15.058  32.766  16.876  1.00  0.00     0.057 A 
HETATM   14  C   LIG     1      15.604  32.558  15.597  1.00  0.00     0.078 A 
HETATM   15 CL   LIG     1      15.597  34.096  17.895  1.00  0.00    -0.082 Cl
HETATM   16 CL   LIG     1      16.851  33.645  14.984  1.00  0.00    -0.081 Cl
HETATM   17  C   LIG     1      15.148  31.484  14.808  1.00  0.00     0.068 A 
HETATM   18 CL   LIG     1      15.802  31.240  13.185  1.00  0.00    -0.082 Cl
ENDBRANCH   8  10
TORSDOF 1
ENDMDL
MODEL 5
REMARK VINA RESULT:      -5.1     14.032     15.386
REMARK  1 active torsions:
REMARK  status: ('A' for Active; 'I' for Inactive)
REMARK    1  A    between atoms: C_8  and  C_9 
ROOT
HETATM    1 CL   LIG     1      22.148  22.790  21.208  1.00  0.00    -0.083 Cl
HETATM    2  C   LIG     1      23.892  22.797  21.441  1.00  0.00     0.056 A 
HETATM    3  C   LIG     1      24.489  22.083  22.493  1.00  0.00     0.057 A 
HETATM    4 CL   LIG     1      23.521  21.150  23.626  1.00  0.00    -0.082 Cl
HETATM    5  C   LIG     1      25.879  22.113  22.652  1.00  0.00     0.050 A 
HETATM    6  C   LIG     1      26.680  22.844  21.769  1.00  0.00     0.046 A 
HETATM    7 CL   LIG     1      28.419  22.877  22.035  1.00  0.00    -0.083 Cl
HETATM    8  C   LIG     1      26.084  23.553  20.707  1.00  0.00    -0.001 A 
HETATM    9  C   LIG     1      24.690  23.530  20.556  1.00  0.00     0.039 A 
ENDROOT
BRANCH   8  10
HETATM   10  C   LIG     1      26.900  24.334  19.755  1.00  0.00    -0.001 A 
HETATM   11  C   LIG     1      27.194  25.671  20.052  1.00  0.00     0.016 A 
HETATM   12  C   LIG     1      27.965  26.434  19.176  1.00  0.00     0.026 A 
HETATM   13  C   LIG     1      28.449  25.875  17.991  1.00  0.00     0.057 A 
HETATM   14  C   LIG     1      28.153  24.537  17.673  1.00  0.00     0.078 A 
HETATM   15 CL   LIG     1      29.419  26.878  16.919  1.00  0.00    -0.082 Cl
HETATM   16 CL   LIG     1      28.756  23.837  16.170  1.00  0.00    -0.081 Cl
HETATM   17  C   LIG     1      27.373  23.763  18.554  1.00  0.00     0.068 A 
HETATM   18 CL   LIG     1      26.966  22.095  18.142  1.00  0.00    -0.082 Cl
ENDBRANCH   8  10
TORSDOF 1
ENDMDL
MODEL 6
REMARK VINA RESULT:      -5.0     13.871     15.210
REMARK  1 active torsions:
REMARK  status: ('A' for Active; 'I' for Inactive)
REMARK    1  A    between atoms: C_8  and  C_9 
ROOT
HETATM    1 CL   LIG     1      24.742  22.249  24.359  1.00  0.00    -0.083 Cl
HETATM    2  C   LIG     1      24.566  22.276  22.609  1.00  0.00     0.056 A 
HETATM    3  C   LIG     1      23.543  21.559  21.969  1.00  0.00     0.057 A 
HETATM    4 CL   LIG     1      22.389  20.601  22.887  1.00  0.00    -0.082 Cl
HETATM    5  C   LIG     1      23.433  21.599  20.575  1.00  0.00     0.050 A 
HETATM    6  C   LIG     1      24.333  22.352  19.813  1.00  0.00     0.046 A 
HETATM    7 CL   LIG     1      24.173  22.340  18.060  1.00  0.00    -0.083 Cl
HETATM    8  C   LIG     1      25.355  23.080  20.453  1.00  0.00    -0.001 A 
HETATM    9  C   LIG     1      25.469  23.029  21.850  1.00  0.00     0.039 A 
ENDROOT
BRANCH   8  10
HETATM   10  C   LIG     1      26.321  23.886  19.680  1.00  0.00    -0.001 A 
HETATM   11  C   LIG     1      26.142  25.273  19.607  1.00  0.00     0.016 A 
HETATM   12  C   LIG     1      27.039  26.063  18.889  1.00  0.00     0.026 A 
HETATM   13  C   LIG     1      28.123  25.479  18.231  1.00  0.00     0.057 A 
HETATM   14  C   LIG     1      28.312  24.086  18.286  1.00  0.00     0.078 A 
HETATM   15 CL   LIG     1      29.229  26.518  17.339  1.00  0.00    -0.082 Cl
HETATM   16 CL   LIG     1      29.676  23.349  17.445  1.00  0.00    -0.081 Cl
HETATM   17  C   LIG     1      27.407  23.285  19.009  1.00  0.00     0.068 A 
HETATM   18 CL   LIG     1      27.616  21.532  19.049  1.00  0.00    -0.082 Cl
ENDBRANCH   8  10
TORSDOF 1
ENDMDL
MODEL 7
REMARK VINA RESULT:      -5.0     14.861     16.752
REMARK  1 active torsions:
REMARK  status: ('A' for Active; 'I' for Inactive)
REMARK    1  A    between atoms: C_8  and  C_9 
ROOT
HETATM    1 CL   LIG     1      26.613  24.650  25.750  1.00  0.00    -0.083 Cl
HETATM    2  C   LIG     1      25.537  23.305  25.392  1.00  0.00     0.056 A 
HETATM    3  C   LIG     1      25.021  22.493  26.414  1.00  0.00     0.057 A 
HETATM    4 CL   LIG     1      25.428  22.781  28.101  1.00  0.00    -0.082 Cl
HETATM    5  C   LIG     1      24.170  21.429  26.095  1.00  0.00     0.050 A 
HETATM    6  C   LIG     1      23.825  21.171  24.764  1.00  0.00     0.046 A 
HETATM    7 CL   LIG     1      22.780  19.799  24.413  1.00  0.00    -0.083 Cl
HETATM    8  C   LIG     1      24.333  21.991  23.737  1.00  0.00    -0.001 A 
HETATM    9  C   LIG     1      25.194  23.049  24.060  1.00  0.00     0.039 A 
ENDROOT
BRANCH   8  10
HETATM   10  C   LIG     1      23.988  21.748  22.322  1.00  0.00    -0.001 A 
HETATM   11  C   LIG     1      22.891  22.419  21.766  1.00  0.00     0.016 A 
HETATM   12  C   LIG     1      22.541  22.215  20.432  1.00  0.00     0.026 A 
HETATM   13  C   LIG     1      23.279  21.336  19.636  1.00  0.00     0.057 A 
HETATM   14  C   LIG     1      24.377  20.646  20.181  1.00  0.00     0.078 A 
HETATM   15 CL   LIG     1      22.800  21.113  17.957  1.00  0.00    -0.082 Cl
HETATM   16 CL   LIG     1      25.300  19.528  19.176  1.00  0.00    -0.081 Cl
HETATM   17  C   LIG     1      24.732  20.848  21.529  1.00  0.00     0.068 A 
HETATM   18 CL   LIG     1      26.086  19.957  22.230  1.00  0.00    -0.082 Cl
ENDBRANCH   8  10
TORSDOF 1
ENDMDL
MODEL 8
REMARK VINA RESULT:      -4.9     21.649     24.061
REMARK  1 active torsions:
REMARK  status: ('A' for Active; 'I' for Inactive)
REMARK    1  A    between atoms: C_8  and  C_9 
ROOT
HETATM    1 CL   LIG     1      25.660  31.738  35.992  1.00  0.00    -0.083 Cl
HETATM    2  C   LIG     1      26.867  30.507  35.642  1.00  0.00     0.056 A 
HETATM    3  C   LIG     1      27.869  30.184  36.570  1.00  0.00     0.057 A 
HETATM    4 CL   LIG     1      27.965  30.996  38.128  1.00  0.00    -0.082 Cl
HETATM    5  C   LIG     1      28.816  29.203  36.259  1.00  0.00     0.050 A 
HETATM    6  C   LIG     1      28.770  28.536  35.029  1.00  0.00     0.046 A 
HETATM    7 CL   LIG     1      30.006  27.335  34.673  1.00  0.00    -0.083 Cl
HETATM    8  C   LIG     1      27.759  28.850  34.100  1.00  0.00    -0.001 A 
HETATM    9  C   LIG     1      26.818  29.842  34.411  1.00  0.00     0.039 A 
ENDROOT
BRANCH   8  10
HETATM   10  C   LIG     1      27.680  28.165  32.794  1.00  0.00    -0.001 A 
HETATM   11  C   LIG     1      26.858  27.038  32.668  1.00  0.00     0.016 A 
HETATM   12  C   LIG     1      26.757  26.371  31.448  1.00  0.00     0.026 A 
HETATM   13  C   LIG     1      27.479  26.818  30.338  1.00  0.00     0.057 A 
HETATM   14  C   LIG     1      28.317  27.942  30.450  1.00  0.00     0.078 A 
HETATM   15 CL   LIG     1      27.318  25.945  28.819  1.00  0.00    -0.082 Cl
HETATM   16 CL   LIG     1      29.236  28.497  29.050  1.00  0.00    -0.081 Cl
HETATM   17  C   LIG     1      28.422  28.617  31.682  1.00  0.00     0.068 A 
HETATM   18 CL   LIG     1      29.502  30.006  31.839  1.00  0.00    -0.082 Cl
ENDBRANCH   8  10
TORSDOF 1
ENDMDL
MODEL 9
REMARK VINA RESULT:      -4.8     13.783     16.116
REMARK  1 active torsions:
REMARK  status: ('A' for Active; 'I' for Inactive)
REMARK    1  A    between atoms: C_8  and  C_9 
ROOT
HETATM    1 CL   LIG     1      27.904  23.078  23.846  1.00  0.00    -0.083 Cl
HETATM    2  C   LIG     1      27.367  23.616  22.260  1.00  0.00     0.056 A 
HETATM    3  C   LIG     1      27.781  24.848  21.729  1.00  0.00     0.057 A 
HETATM    4 CL   LIG     1      28.857  25.912  22.627  1.00  0.00    -0.082 Cl
HETATM    5  C   LIG     1      27.333  25.248  20.466  1.00  0.00     0.050 A 
HETATM    6  C   LIG     1      26.477  24.427  19.724  1.00  0.00     0.046 A 
HETATM    7 CL   LIG     1      25.914  24.993  18.155  1.00  0.00    -0.083 Cl
HETATM    8  C   LIG     1      26.068  23.185  20.249  1.00  0.00    -0.001 A 
HETATM    9  C   LIG     1      26.511  22.793  21.520  1.00  0.00     0.039 A 
ENDROOT
BRANCH   8  10
HETATM   10  C   LIG     1      25.167  22.293  19.492  1.00  0.00    -0.001 A 
HETATM   11  C   LIG     1      23.806  22.264  19.823  1.00  0.00     0.016 A 
HETATM   12  C   LIG     1      22.928  21.436  19.124  1.00  0.00     0.026 A 
HETATM   13  C   LIG     1      23.398  20.623  18.090  1.00  0.00     0.057 A 
HETATM   14  C   LIG     1      24.763  20.632  17.752  1.00  0.00     0.078 A 
HETATM   15 CL   LIG     1      22.251  19.597  17.236  1.00  0.00    -0.082 Cl
HETATM   16 CL   LIG     1      25.355  19.597  16.453  1.00  0.00    -0.081 Cl
HETATM   17  C   LIG     1      25.653  21.466  18.457  1.00  0.00     0.068 A 
HETATM   18 CL   LIG     1      27.375  21.454  18.063  1.00  0.00    -0.082 Cl
ENDBRANCH   8  10
TORSDOF 1
ENDMDL
MODEL 10
REMARK VINA RESULT:      -4.7      3.139      5.906
REMARK  1 active torsions:
REMARK  status: ('A' for Active; 'I' for Inactive)
REMARK    1  A    between atoms: C_8  and  C_9 
ROOT
HETATM    1 CL   LIG     1      14.620  29.647  13.937  1.00  0.00    -0.083 Cl
HETATM    2  C   LIG     1      15.345  31.172  14.431  1.00  0.00     0.056 A 
HETATM    3  C   LIG     1      14.992  31.788  15.642  1.00  0.00     0.057 A 
HETATM    4 CL   LIG     1      13.808  31.064  16.722  1.00  0.00    -0.082 Cl
HETATM    5  C   LIG     1      15.585  33.003  16.003  1.00  0.00     0.050 A 
HETATM    6  C   LIG     1      16.532  33.607  15.168  1.00  0.00     0.046 A 
HETATM    7 CL   LIG     1      17.222  35.152  15.653  1.00  0.00    -0.083 Cl
HETATM    8  C   LIG     1      16.896  32.986  13.957  1.00  0.00    -0.001 A 
HETATM    9  C   LIG     1      16.291  31.774  13.593  1.00  0.00     0.039 A 
ENDROOT
BRANCH   8  10
HETATM   10  C   LIG     1      17.892  33.594  13.053  1.00  0.00    -0.001 A 
HETATM   11  C   LIG     1      17.450  34.223  11.882  1.00  0.00     0.016 A 
HETATM   12  C   LIG     1      18.365  34.811  11.009  1.00  0.00     0.026 A 
HETATM   13  C   LIG     1      19.733  34.776  11.293  1.00  0.00     0.057 A 
HETATM   14  C   LIG     1      20.193  34.140  12.459  1.00  0.00     0.078 A 
HETATM   15 CL   LIG     1      20.848  35.535  10.162  1.00  0.00    -0.082 Cl
HETATM   16 CL   LIG     1      21.922  34.088  12.808  1.00  0.00    -0.081 Cl
HETATM   17  C   LIG     1      19.272  33.543  13.342  1.00  0.00     0.068 A 
HETATM   18 CL   LIG     1      19.848  32.709  14.788  1.00  0.00    -0.082 Cl
ENDBRANCH   8  10
TORSDOF 1
ENDMDL
MODEL 11
REMARK VINA RESULT:      -4.6     15.002     16.850
REMARK  1 active torsions:
REMARK  status: ('A' for Active; 'I' for Inactive)
REMARK    1  A    between atoms: C_8  and  C_9 
ROOT
HETATM    1 CL   LIG     1      23.264  21.311  27.447  1.00  0.00    -0.083 Cl
HETATM    2  C   LIG     1      24.246  21.913  26.118  1.00  0.00     0.056 A 
HETATM    3  C   LIG     1      25.400  22.678  26.353  1.00  0.00     0.057 A 
HETATM    4 CL   LIG     1      25.916  23.071  27.987  1.00  0.00    -0.082 Cl
HETATM    5  C   LIG     1      26.156  23.145  25.272  1.00  0.00     0.050 A 
HETATM    6  C   LIG     1      25.775  22.851  23.959  1.00  0.00     0.046 A 
HETATM    7 CL   LIG     1      26.743  23.492  22.635  1.00  0.00    -0.083 Cl
HETATM    8  C   LIG     1      24.624  22.075  23.720  1.00  0.00    -0.001 A 
HETATM    9  C   LIG     1      23.862  21.618  24.805  1.00  0.00     0.039 A 
ENDROOT
BRANCH   8  10
HETATM   10  C   LIG     1      24.194  21.745  22.347  1.00  0.00    -0.001 A 
HETATM   11  C   LIG     1      23.228  22.548  21.727  1.00  0.00     0.016 A 
HETATM   12  C   LIG     1      22.803  22.266  20.429  1.00  0.00     0.026 A 
HETATM   13  C   LIG     1      23.334  21.177  19.735  1.00  0.00     0.057 A 
HETATM   14  C   LIG     1      24.296  20.354  20.347  1.00  0.00     0.078 A 
HETATM   15 CL   LIG     1      22.768  20.862  18.098  1.00  0.00    -0.082 Cl
HETATM   16 CL   LIG     1      24.956  18.971  19.471  1.00  0.00    -0.081 Cl
HETATM   17  C   LIG     1      24.726  20.635  21.658  1.00  0.00     0.068 A 
HETATM   18 CL   LIG     1      25.906  19.582  22.446  1.00  0.00    -0.082 Cl
ENDBRANCH   8  10
TORSDOF 1
ENDMDL
MODEL 12
REMARK VINA RESULT:      -4.6     13.898     15.243
REMARK  1 active torsions:
REMARK  status: ('A' for Active; 'I' for Inactive)
REMARK    1  A    between atoms: C_8  and  C_9 
ROOT
HETATM    1 CL   LIG     1      22.475  22.027  19.011  1.00  0.00    -0.083 Cl
HETATM    2  C   LIG     1      24.056  22.459  19.649  1.00  0.00     0.056 A 
HETATM    3  C   LIG     1      24.318  22.434  21.028  1.00  0.00     0.057 A 
HETATM    4 CL   LIG     1      23.075  21.969  22.182  1.00  0.00    -0.082 Cl
HETATM    5  C   LIG     1      25.585  22.787  21.502  1.00  0.00     0.050 A 
HETATM    6  C   LIG     1      26.598  23.161  20.612  1.00  0.00     0.046 A 
HETATM    7 CL   LIG     1      28.164  23.630  21.264  1.00  0.00    -0.083 Cl
HETATM    8  C   LIG     1      26.342  23.178  19.227  1.00  0.00    -0.001 A 
HETATM    9  C   LIG     1      25.066  22.834  18.756  1.00  0.00     0.039 A 
ENDROOT
BRANCH   8  10
HETATM   10  C   LIG     1      27.388  23.566  18.259  1.00  0.00    -0.001 A 
HETATM   11  C   LIG     1      28.048  22.564  17.537  1.00  0.00     0.016 A 
HETATM   12  C   LIG     1      29.038  22.898  16.612  1.00  0.00     0.026 A 
HETATM   13  C   LIG     1      29.383  24.234  16.400  1.00  0.00     0.057 A 
HETATM   14  C   LIG     1      28.737  25.251  17.125  1.00  0.00     0.078 A 
HETATM   15 CL   LIG     1      30.636  24.605  15.222  1.00  0.00    -0.082 Cl
HETATM   16 CL   LIG     1      29.183  26.938  16.863  1.00  0.00    -0.081 Cl
HETATM   17  C   LIG     1      27.738  24.918  18.061  1.00  0.00     0.068 A 
HETATM   18 CL   LIG     1      26.950  26.188  19.002  1.00  0.00    -0.082 Cl
ENDBRANCH   8  10
TORSDOF 1
ENDMDL
MODEL 13
REMARK VINA RESULT:      -4.5     21.302     23.609
REMARK  1 active torsions:
REMARK  status: ('A' for Active; 'I' for Inactive)
REMARK    1  A    between atoms: C_8  and  C_9 
ROOT
HETATM    1 CL   LIG     1      25.864  30.121  35.613  1.00  0.00    -0.083 Cl
HETATM    2  C   LIG     1      27.216  29.648  34.590  1.00  0.00     0.056 A 
HETATM    3  C   LIG     1      28.479  30.243  34.731  1.00  0.00     0.057 A 
HETATM    4 CL   LIG     1      28.770  31.490  35.936  1.00  0.00    -0.082 Cl
HETATM    5  C   LIG     1      29.532  29.846  33.899  1.00  0.00     0.050 A 
HETATM    6  C   LIG     1      29.336  28.856  32.930  1.00  0.00     0.046 A 
HETATM    7 CL   LIG     1      30.684  28.418  31.886  1.00  0.00    -0.083 Cl
HETATM    8  C   LIG     1      28.072  28.249  32.793  1.00  0.00    -0.001 A 
HETATM    9  C   LIG     1      27.016  28.658  33.622  1.00  0.00     0.039 A 
ENDROOT
BRANCH   8  10
HETATM   10  C   LIG     1      27.831  27.200  31.782  1.00  0.00    -0.001 A 
HETATM   11  C   LIG     1      27.326  27.569  30.529  1.00  0.00     0.016 A 
HETATM   12  C   LIG     1      27.092  26.604  29.551  1.00  0.00     0.026 A 
HETATM   13  C   LIG     1      27.354  25.257  29.812  1.00  0.00     0.057 A 
HETATM   14  C   LIG     1      27.851  24.868  31.070  1.00  0.00     0.078 A 
HETATM   15 CL   LIG     1      27.044  24.075  28.546  1.00  0.00    -0.082 Cl
HETATM   16 CL   LIG     1      28.170  23.165  31.401  1.00  0.00    -0.081 Cl
HETATM   17  C   LIG     1      28.087  25.841  32.061  1.00  0.00     0.068 A 
HETATM   18 CL   LIG     1      28.674  25.355  33.654  1.00  0.00    -0.082 Cl
ENDBRANCH   8  10
TORSDOF 1
ENDMDL
MODEL 14
REMARK VINA RESULT:      -4.5     14.925     16.825
REMARK  1 active torsions:
REMARK  status: ('A' for Active; 'I' for Inactive)
REMARK    1  A    between atoms: C_8  and  C_9 
ROOT
HETATM    1 CL   LIG     1      28.020  25.340  24.797  1.00  0.00    -0.083 Cl
HETATM    2  C   LIG     1      26.756  24.120  24.683  1.00  0.00     0.056 A 
HETATM    3  C   LIG     1      25.968  23.782  25.794  1.00  0.00     0.057 A 
HETATM    4 CL   LIG     1      26.207  24.561  27.353  1.00  0.00    -0.082 Cl
HETATM    5  C   LIG     1      24.974  22.805  25.670  1.00  0.00     0.050 A 
HETATM    6  C   LIG     1      24.756  22.165  24.445  1.00  0.00     0.046 A 
HETATM    7 CL   LIG     1      23.517  20.919  24.352  1.00  0.00    -0.083 Cl
HETATM    8  C   LIG     1      25.539  22.510  23.326  1.00  0.00    -0.001 A 
HETATM    9  C   LIG     1      26.542  23.482  23.457  1.00  0.00     0.039 A 
ENDROOT
BRANCH   8  10
HETATM   10  C   LIG     1      25.335  21.856  22.017  1.00  0.00    -0.001 A 
HETATM   11  C   LIG     1      26.217  20.843  21.621  1.00  0.00     0.016 A 
HETATM   12  C   LIG     1      26.049  20.202  20.394  1.00  0.00     0.026 A 
HETATM   13  C   LIG     1      25.002  20.568  19.545  1.00  0.00     0.057 A 
HETATM   14  C   LIG     1      24.114  21.591  19.923  1.00  0.00     0.078 A 
HETATM   15 CL   LIG     1      24.830  19.729  18.007  1.00  0.00    -0.082 Cl
HETATM   16 CL   LIG     1      22.799  22.058  18.844  1.00  0.00    -0.081 Cl
HETATM   17  C   LIG     1      24.282  22.241  21.161  1.00  0.00     0.068 A 
HETATM   18 CL   LIG     1      23.193  23.553  21.625  1.00  0.00    -0.082 Cl
ENDBRANCH   8  10
TORSDOF 1
ENDMDL
MODEL 15
REMARK VINA RESULT:      -4.4     16.021     17.085
REMARK  1 active torsions:
REMARK  status: ('A' for Active; 'I' for Inactive)
REMARK    1  A    between atoms: C_8  and  C_9 
ROOT
HETATM    1 CL   LIG     1      22.060  22.837  21.296  1.00  0.00    -0.083 Cl
HETATM    2  C   LIG     1      23.685  22.449  21.847  1.00  0.00     0.056 A 
HETATM    3  C   LIG     1      24.595  21.776  21.017  1.00  0.00     0.057 A 
HETATM    4 CL   LIG     1      24.152  21.288  19.386  1.00  0.00    -0.082 Cl
HETATM    5  C   LIG     1      25.878  21.479  21.488  1.00  0.00     0.050 A 
HETATM    6  C   LIG     1      26.265  21.853  22.780  1.00  0.00     0.046 A 
HETATM    7 CL   LIG     1      27.879  21.424  23.335  1.00  0.00    -0.083 Cl
HETATM    8  C   LIG     1      25.357  22.538  23.611  1.00  0.00    -0.001 A 
HETATM    9  C   LIG     1      24.068  22.824  23.140  1.00  0.00     0.039 A 
ENDROOT
BRANCH   8  10
HETATM   10  C   LIG     1      25.733  22.949  24.979  1.00  0.00    -0.001 A 
HETATM   11  C   LIG     1      26.305  24.212  25.175  1.00  0.00     0.016 A 
HETATM   12  C   LIG     1      26.666  24.632  26.454  1.00  0.00     0.026 A 
HETATM   13  C   LIG     1      26.465  23.795  27.554  1.00  0.00     0.057 A 
HETATM   14  C   LIG     1      25.902  22.519  27.374  1.00  0.00     0.078 A 
HETATM   15 CL   LIG     1      26.936  24.370  29.150  1.00  0.00    -0.082 Cl
HETATM   16 CL   LIG     1      25.660  21.460  28.763  1.00  0.00    -0.081 Cl
HETATM   17  C   LIG     1      25.537  22.091  26.082  1.00  0.00     0.068 A 
HETATM   18 CL   LIG     1      24.865  20.475  25.844  1.00  0.00    -0.082 Cl
ENDBRANCH   8  10
TORSDOF 1
ENDMDL
MODEL 16
REMARK VINA RESULT:      -4.4     15.014     16.852
REMARK  1 active torsions:
REMARK  status: ('A' for Active; 'I' for Inactive)
REMARK    1  A    between atoms: C_8  and  C_9 
ROOT
HETATM    1 CL   LIG     1      23.741  22.054  27.161  1.00  0.00    -0.083 Cl
HETATM    2  C   LIG     1      24.764  22.477  25.794  1.00  0.00     0.056 A 
HETATM    3  C   LIG     1      25.787  23.431  25.917  1.00  0.00     0.057 A 
HETATM    4 CL   LIG     1      26.092  24.248  27.444  1.00  0.00    -0.082 Cl
HETATM    5  C   LIG     1      26.580  23.747  24.809  1.00  0.00     0.050 A 
HETATM    6  C   LIG     1      26.365  23.116  23.579  1.00  0.00     0.046 A 
HETATM    7 CL   LIG     1      27.369  23.576  22.207  1.00  0.00    -0.083 Cl
HETATM    8  C   LIG     1      25.347  22.151  23.455  1.00  0.00    -0.001 A 
HETATM    9  C   LIG     1      24.546  21.845  24.565  1.00  0.00     0.039 A 
ENDROOT
BRANCH   8  10
HETATM   10  C   LIG     1      25.094  21.465  22.172  1.00  0.00    -0.001 A 
HETATM   11  C   LIG     1      25.833  20.317  21.860  1.00  0.00     0.016 A 
HETATM   12  C   LIG     1      25.616  19.643  20.658  1.00  0.00     0.026 A 
HETATM   13  C   LIG     1      24.661  20.109  19.751  1.00  0.00     0.057 A 
HETATM   14  C   LIG     1      23.918  21.266  20.045  1.00  0.00     0.078 A 
HETATM   15 CL   LIG     1      24.421  19.223  18.250  1.00  0.00    -0.082 Cl
HETATM   16 CL   LIG     1      22.721  21.858  18.892  1.00  0.00    -0.081 Cl
HETATM   17  C   LIG     1      24.136  21.950  21.256  1.00  0.00     0.068 A 
HETATM   18 CL   LIG     1      23.234  23.426  21.613  1.00  0.00    -0.082 Cl
ENDBRANCH   8  10
TORSDOF 1
ENDMDL
MODEL 17
REMARK VINA RESULT:      -4.4     14.062     15.200
REMARK  1 active torsions:
REMARK  status: ('A' for Active; 'I' for Inactive)
REMARK    1  A    between atoms: C_8  and  C_9 
ROOT
HETATM    1 CL   LIG     1      22.447  22.433  20.445  1.00  0.00    -0.083 Cl
HETATM    2  C   LIG     1      23.918  22.186  19.512  1.00  0.00     0.056 A 
HETATM    3  C   LIG     1      24.058  21.087  18.650  1.00  0.00     0.057 A 
HETATM    4 CL   LIG     1      22.768  19.906  18.462  1.00  0.00    -0.082 Cl
HETATM    5  C   LIG     1      25.243  20.918  17.926  1.00  0.00     0.050 A 
HETATM    6  C   LIG     1      26.289  21.839  18.050  1.00  0.00     0.046 A 
HETATM    7 CL   LIG     1      27.771  21.560  17.143  1.00  0.00    -0.083 Cl
HETATM    8  C   LIG     1      26.147  22.948  18.906  1.00  0.00    -0.001 A 
HETATM    9  C   LIG     1      24.962  23.108  19.639  1.00  0.00     0.039 A 
ENDROOT
BRANCH   8  10
HETATM   10  C   LIG     1      27.230  23.940  19.060  1.00  0.00    -0.001 A 
HETATM   11  C   LIG     1      27.272  25.039  18.192  1.00  0.00     0.016 A 
HETATM   12  C   LIG     1      28.279  25.995  18.314  1.00  0.00     0.026 A 
HETATM   13  C   LIG     1      29.260  25.866  19.300  1.00  0.00     0.057 A 
HETATM   14  C   LIG     1      29.238  24.763  20.172  1.00  0.00     0.078 A 
HETATM   15 CL   LIG     1      30.509  27.100  19.415  1.00  0.00    -0.082 Cl
HETATM   16 CL   LIG     1      30.485  24.596  21.410  1.00  0.00    -0.081 Cl
HETATM   17  C   LIG     1      28.224  23.793  20.052  1.00  0.00     0.068 A 
HETATM   18 CL   LIG     1      28.214  22.387  21.119  1.00  0.00    -0.082 Cl
ENDBRANCH   8  10
TORSDOF 1
ENDMDL
MODEL 18
REMARK VINA RESULT:      -4.3     15.077     16.145
REMARK  1 active torsions:
REMARK  status: ('A' for Active; 'I' for Inactive)
REMARK    1  A    between atoms: C_8  and  C_9 
ROOT
HETATM    1 CL   LIG     1      22.095  22.824  21.247  1.00  0.00    -0.083 Cl
HETATM    2  C   LIG     1      23.767  22.622  20.740  1.00  0.00     0.056 A 
HETATM    3  C   LIG     1      24.088  22.097  19.478  1.00  0.00     0.057 A 
HETATM    4 CL   LIG     1      22.831  21.616  18.345  1.00  0.00    -0.082 Cl
HETATM    5  C   LIG     1      25.428  21.945  19.108  1.00  0.00     0.050 A 
HETATM    6  C   LIG     1      26.454  22.319  19.984  1.00  0.00     0.046 A 
HETATM    7 CL   LIG     1      28.123  22.075  19.482  1.00  0.00    -0.083 Cl
HETATM    8  C   LIG     1      26.135  22.856  21.246  1.00  0.00    -0.001 A 
HETATM    9  C   LIG     1      24.790  22.996  21.619  1.00  0.00     0.039 A 
ENDROOT
BRANCH   8  10
HETATM   10  C   LIG     1      27.192  23.261  22.195  1.00  0.00    -0.001 A 
HETATM   11  C   LIG     1      27.490  22.424  23.277  1.00  0.00     0.016 A 
HETATM   12  C   LIG     1      28.485  22.775  24.188  1.00  0.00     0.026 A 
HETATM   13  C   LIG     1      29.193  23.969  24.033  1.00  0.00     0.057 A 
HETATM   14  C   LIG     1      28.899  24.827  22.958  1.00  0.00     0.078 A 
HETATM   15 CL   LIG     1      30.441  24.369  25.208  1.00  0.00    -0.082 Cl
HETATM   16 CL   LIG     1      29.787  26.340  22.771  1.00  0.00    -0.081 Cl
HETATM   17  C   LIG     1      27.893  24.476  22.037  1.00  0.00     0.068 A 
HETATM   18 CL   LIG     1      27.493  25.566  20.707  1.00  0.00    -0.082 Cl
ENDBRANCH   8  10
TORSDOF 1
ENDMDL
MODEL 19
REMARK VINA RESULT:      -4.2     14.421     16.531
REMARK  1 active torsions:
REMARK  status: ('A' for Active; 'I' for Inactive)
REMARK    1  A    between atoms: C_8  and  C_9 
ROOT
HETATM    1 CL   LIG     1      28.411  23.511  24.532  1.00  0.00    -0.083 Cl
HETATM    2  C   LIG     1      28.052  24.078  22.906  1.00  0.00     0.056 A 
HETATM    3  C   LIG     1      28.363  25.387  22.505  1.00  0.00     0.057 A 
HETATM    4 CL   LIG     1      29.126  26.522  23.611  1.00  0.00    -0.082 Cl
HETATM    5  C   LIG     1      28.059  25.807  21.206  1.00  0.00     0.050 A 
HETATM    6  C   LIG     1      27.453  24.931  20.300  1.00  0.00     0.046 A 
HETATM    7 CL   LIG     1      27.061  25.521  18.688  1.00  0.00    -0.083 Cl
HETATM    8  C   LIG     1      27.149  23.613  20.696  1.00  0.00    -0.001 A 
HETATM    9  C   LIG     1      27.444  23.199  22.003  1.00  0.00     0.039 A 
ENDROOT
BRANCH   8  10
HETATM   10  C   LIG     1      26.511  22.662  19.764  1.00  0.00    -0.001 A 
HETATM   11  C   LIG     1      27.307  21.993  18.826  1.00  0.00     0.016 A 
HETATM   12  C   LIG     1      26.736  21.085  17.936  1.00  0.00     0.026 A 
HETATM   13  C   LIG     1      25.362  20.836  17.967  1.00  0.00     0.057 A 
HETATM   14  C   LIG     1      24.546  21.507  18.895  1.00  0.00     0.078 A 
HETATM   15 CL   LIG     1      24.687  19.680  16.824  1.00  0.00    -0.082 Cl
HETATM   16 CL   LIG     1      22.810  21.199  18.925  1.00  0.00    -0.081 Cl
HETATM   17  C   LIG     1      25.120  22.426  19.795  1.00  0.00     0.068 A 
HETATM   18 CL   LIG     1      24.095  23.301  20.938  1.00  0.00    -0.082 Cl
ENDBRANCH   8  10
TORSDOF 1
ENDMDL
MODEL 20
REMARK VINA RESULT:      -4.1     19.892     21.975
REMARK  1 active torsions:
REMARK  status: ('A' for Active; 'I' for Inactive)
REMARK    1  A    between atoms: C_8  and  C_9 
ROOT
HETATM    1 CL   LIG     1      26.264  28.191  33.622  1.00  0.00    -0.083 Cl
HETATM    2  C   LIG     1      27.384  27.600  32.400  1.00  0.00     0.056 A 
HETATM    3  C   LIG     1      28.719  28.033  32.365  1.00  0.00     0.057 A 
HETATM    4 CL   LIG     1      29.334  29.189  33.540  1.00  0.00    -0.082 Cl
HETATM    5  C   LIG     1      29.582  27.546  31.377  1.00  0.00     0.050 A 
HETATM    6  C   LIG     1      29.127  26.626  30.427  1.00  0.00     0.046 A 
HETATM    7 CL   LIG     1      30.245  26.072  29.185  1.00  0.00    -0.083 Cl
HETATM    8  C   LIG     1      27.791  26.181  30.467  1.00  0.00    -0.001 A 
HETATM    9  C   LIG     1      26.925  26.680  31.451  1.00  0.00     0.039 A 
ENDROOT
BRANCH   8  10
HETATM   10  C   LIG     1      27.278  25.209  29.480  1.00  0.00    -0.001 A 
HETATM   11  C   LIG     1      26.683  25.686  28.305  1.00  0.00     0.016 A 
HETATM   12  C   LIG     1      26.193  24.794  27.351  1.00  0.00     0.026 A 
HETATM   13  C   LIG     1      26.285  23.416  27.561  1.00  0.00     0.057 A 
HETATM   14  C   LIG     1      26.869  22.922  28.741  1.00  0.00     0.078 A 
HETATM   15 CL   LIG     1      25.654  22.331  26.328  1.00  0.00    -0.082 Cl
HETATM   16 CL   LIG     1      26.974  21.181  29.008  1.00  0.00    -0.081 Cl
HETATM   17  C   LIG     1      27.364  23.819  29.707  1.00  0.00     0.068 A 
HETATM   18 CL   LIG     1      28.064  23.205  31.207  1.00  0.00    -0.082 Cl
ENDBRANCH   8  10
TORSDOF 1
ENDMDL
