REMARK  1 active torsions:
REMARK  status: ('A' for Active; 'I' for Inactive)
REMARK    1  A    between atoms: C_8  and  C_9 
ROOT
HETATM    1 CL   LIG     1       3.697   1.921   2.037  1.00  0.00    -0.083 Cl
HETATM    2  C   LIG     1       2.848   0.868   0.912  1.00  0.00     0.056 A 
HETATM    3  C   LIG     1       3.547   0.056   0.005  1.00  0.00     0.057 A 
HETATM    4 CL   LIG     1       5.305   0.054  -0.049  1.00  0.00    -0.082 Cl
HETATM    5  C   LIG     1       2.841  -0.767  -0.879  1.00  0.00     0.050 A 
HETATM    6  C   LIG     1       1.442  -0.791  -0.863  1.00  0.00     0.046 A 
HETATM    7 CL   LIG     1       0.602  -1.818  -2.020  1.00  0.00    -0.083 Cl
HETATM    8  C   LIG     1       0.738   0.015   0.053  1.00  0.00    -0.001 A 
HETATM    9  C   LIG     1       1.449   0.847   0.930  1.00  0.00     0.039 A 
ENDROOT
BRANCH   8  10
HETATM   10  C   LIG     1      -0.738   0.013   0.098  1.00  0.00    -0.001 A 
HETATM   11  C   LIG     1      -1.434   1.108  -0.430  1.00  0.00     0.016 A 
HETATM   12  C   LIG     1      -2.828   1.135  -0.407  1.00  0.00     0.026 A 
HETATM   13  C   LIG     1      -3.545   0.072   0.147  1.00  0.00     0.057 A 
HETATM   14  C   LIG     1      -2.861  -1.030   0.691  1.00  0.00     0.078 A 
HETATM   15 CL   LIG     1      -5.303   0.151   0.151  1.00  0.00    -0.082 Cl
HETATM   16 CL   LIG     1      -3.769  -2.366   1.400  1.00  0.00    -0.081 Cl
HETATM   17  C   LIG     1      -1.453  -1.060   0.671  1.00  0.00     0.068 A 
HETATM   18 CL   LIG     1      -0.588  -2.423   1.387  1.00  0.00    -0.082 Cl
ENDBRANCH   8  10
TORSDOF 1
