REMARK  1 active torsions:
REMARK  status: ('A' for Active; 'I' for Inactive)
REMARK       I    between atoms: C_2  and  N_3 
REMARK    1  A    between atoms: N_3  and  C_4 
ROOT
HETATM    1  C   LIG     1       0.206  -0.407  -0.533  1.00  0.00     0.034 A 
HETATM    2  C   LIG     1      -0.005   0.967  -0.736  1.00  0.00     0.032 A 
HETATM    3  C   LIG     1       1.061   1.866  -0.624  1.00  0.00     0.044 A 
HETATM    4  C   LIG     1       1.501  -0.872  -0.264  1.00  0.00     0.032 A 
HETATM    5  C   LIG     1       2.565   0.029  -0.152  1.00  0.00     0.044 A 
HETATM    6  C   LIG     1       2.344   1.398  -0.327  1.00  0.00     0.116 A 
HETATM    7  F   LIG     1       3.377   2.271  -0.221  1.00  0.00    -0.206 F 
ENDROOT
BRANCH   1   8
HETATM    8  N   LIG     1      -0.870  -1.346  -0.672  1.00  0.00    -0.328 N 
HETATM    9  C   LIG     1      -2.124  -1.240   0.018  1.00  0.00     0.218 C 
HETATM   10  C   LIG     1      -2.323  -0.286   1.158  1.00  0.00     0.117 C 
HETATM   11  O   LIG     1      -3.066  -2.014  -0.300  1.00  0.00    -0.274 OA
HETATM   12  H   LIG     1      -0.684  -2.224  -1.208  1.00  0.00     0.169 HD
ENDBRANCH   1   8
TORSDOF 1
