MODEL 1
REMARK VINA RESULT:      -6.8      0.000      0.000
REMARK  1 active torsions:
REMARK  status: ('A' for Active; 'I' for Inactive)
REMARK       I    between atoms: C_2  and  N_3 
REMARK    1  A    between atoms: N_3  and  C_4 
ROOT
HETATM    1  C   LIG     1      17.296  37.990  22.539  1.00  0.00     0.034 A 
HETATM    2  C   LIG     1      17.004  36.716  22.025  1.00  0.00     0.032 A 
HETATM    3  C   LIG     1      17.576  36.296  20.819  1.00  0.00     0.044 A 
HETATM    4  C   LIG     1      18.199  38.817  21.857  1.00  0.00     0.032 A 
HETATM    5  C   LIG     1      18.769  38.396  20.651  1.00  0.00     0.044 A 
HETATM    6  C   LIG     1      18.453  37.138  20.130  1.00  0.00     0.116 A 
HETATM    7  F   LIG     1      19.009  36.728  18.962  1.00  0.00    -0.206 F 
ENDROOT
BRANCH   1   8
HETATM    8  N   LIG     1      16.741  38.425  23.789  1.00  0.00    -0.328 N 
HETATM    9  C   LIG     1      17.342  38.173  25.067  1.00  0.00     0.218 C 
HETATM   10  C   LIG     1      18.465  37.193  25.235  1.00  0.00     0.117 C 
HETATM   11  O   LIG     1      16.873  38.742  26.089  1.00  0.00    -0.274 OA
HETATM   12  H   LIG     1      15.781  38.840  23.778  1.00  0.00     0.169 HD
ENDBRANCH   1   8
TORSDOF 1
ENDMDL
MODEL 2
REMARK VINA RESULT:      -6.7      0.061      1.462
REMARK  1 active torsions:
REMARK  status: ('A' for Active; 'I' for Inactive)
REMARK       I    between atoms: C_2  and  N_3 
REMARK    1  A    between atoms: N_3  and  C_4 
ROOT
HETATM    1  C   LIG     1      17.402  38.013  22.563  1.00  0.00     0.034 A 
HETATM    2  C   LIG     1      18.255  38.856  21.831  1.00  0.00     0.032 A 
HETATM    3  C   LIG     1      18.800  38.423  20.617  1.00  0.00     0.044 A 
HETATM    4  C   LIG     1      17.067  36.755  22.043  1.00  0.00     0.032 A 
HETATM    5  C   LIG     1      17.613  36.324  20.830  1.00  0.00     0.044 A 
HETATM    6  C   LIG     1      18.483  37.156  20.120  1.00  0.00     0.116 A 
HETATM    7  F   LIG     1      19.010  36.738  18.942  1.00  0.00    -0.206 F 
ENDROOT
BRANCH   1   8
HETATM    8  N   LIG     1      16.813  38.452  23.795  1.00  0.00    -0.328 N 
HETATM    9  C   LIG     1      17.363  38.179  25.092  1.00  0.00     0.218 C 
HETATM   10  C   LIG     1      18.459  37.176  25.293  1.00  0.00     0.117 C 
HETATM   11  O   LIG     1      16.869  38.752  26.100  1.00  0.00    -0.274 OA
HETATM   12  H   LIG     1      15.863  38.886  23.752  1.00  0.00     0.169 HD
ENDBRANCH   1   8
TORSDOF 1
ENDMDL
MODEL 3
REMARK VINA RESULT:      -6.5      3.640      4.935
REMARK  1 active torsions:
REMARK  status: ('A' for Active; 'I' for Inactive)
REMARK       I    between atoms: C_2  and  N_3 
REMARK    1  A    between atoms: N_3  and  C_4 
ROOT
HETATM    1  C   LIG     1      16.819  35.978  23.289  1.00  0.00     0.034 A 
HETATM    2  C   LIG     1      17.215  34.953  24.164  1.00  0.00     0.032 A 
HETATM    3  C   LIG     1      17.808  35.267  25.391  1.00  0.00     0.044 A 
HETATM    4  C   LIG     1      16.981  37.316  23.677  1.00  0.00     0.032 A 
HETATM    5  C   LIG     1      17.574  37.627  24.905  1.00  0.00     0.044 A 
HETATM    6  C   LIG     1      17.993  36.602  25.759  1.00  0.00     0.116 A 
HETATM    7  F   LIG     1      18.566  36.905  26.951  1.00  0.00    -0.206 F 
ENDROOT
BRANCH   1   8
HETATM    8  N   LIG     1      16.183  35.675  22.039  1.00  0.00    -0.328 N 
HETATM    9  C   LIG     1      16.830  35.780  20.761  1.00  0.00     0.218 C 
HETATM   10  C   LIG     1      18.146  36.479  20.595  1.00  0.00     0.117 C 
HETATM   11  O   LIG     1      16.247  35.328  19.740  1.00  0.00    -0.274 OA
HETATM   12  H   LIG     1      15.155  35.489  22.048  1.00  0.00     0.169 HD
ENDBRANCH   1   8
TORSDOF 1
ENDMDL
MODEL 4
REMARK VINA RESULT:      -6.4      1.523      1.831
REMARK  1 active torsions:
REMARK  status: ('A' for Active; 'I' for Inactive)
REMARK       I    between atoms: C_2  and  N_3 
REMARK    1  A    between atoms: N_3  and  C_4 
ROOT
HETATM    1  C   LIG     1      17.752  37.922  21.322  1.00  0.00     0.034 A 
HETATM    2  C   LIG     1      18.259  36.905  20.496  1.00  0.00     0.032 A 
HETATM    3  C   LIG     1      19.318  37.173  19.621  1.00  0.00     0.044 A 
HETATM    4  C   LIG     1      18.346  39.191  21.295  1.00  0.00     0.032 A 
HETATM    5  C   LIG     1      19.404  39.456  20.419  1.00  0.00     0.044 A 
HETATM    6  C   LIG     1      19.886  38.449  19.579  1.00  0.00     0.116 A 
HETATM    7  F   LIG     1      20.914  38.706  18.732  1.00  0.00    -0.206 F 
ENDROOT
BRANCH   1   8
HETATM    8  N   LIG     1      16.686  37.657  22.245  1.00  0.00    -0.328 N 
HETATM    9  C   LIG     1      16.786  37.846  23.665  1.00  0.00     0.218 C 
HETATM   10  C   LIG     1      18.103  38.077  24.342  1.00  0.00     0.117 C 
HETATM   11  O   LIG     1      15.746  37.752  24.370  1.00  0.00    -0.274 OA
HETATM   12  H   LIG     1      15.831  37.181  21.878  1.00  0.00     0.169 HD
ENDBRANCH   1   8
TORSDOF 1
ENDMDL
MODEL 5
REMARK VINA RESULT:      -6.2      7.676      8.933
REMARK  1 active torsions:
REMARK  status: ('A' for Active; 'I' for Inactive)
REMARK       I    between atoms: C_2  and  N_3 
REMARK    1  A    between atoms: N_3  and  C_4 
ROOT
HETATM    1  C   LIG     1      14.533  32.338  16.873  1.00  0.00     0.034 A 
HETATM    2  C   LIG     1      15.420  32.058  15.821  1.00  0.00     0.032 A 
HETATM    3  C   LIG     1      15.107  31.072  14.880  1.00  0.00     0.044 A 
HETATM    4  C   LIG     1      13.312  31.653  16.944  1.00  0.00     0.032 A 
HETATM    5  C   LIG     1      13.000  30.667  16.002  1.00  0.00     0.044 A 
HETATM    6  C   LIG     1      13.900  30.373  14.973  1.00  0.00     0.116 A 
HETATM    7  F   LIG     1      13.596  29.418  14.058  1.00  0.00    -0.206 F 
ENDROOT
BRANCH   1   8
HETATM    8  N   LIG     1      14.826  33.366  17.830  1.00  0.00    -0.328 N 
HETATM    9  C   LIG     1      15.356  33.117  19.141  1.00  0.00     0.218 C 
HETATM   10  C   LIG     1      15.396  31.739  19.731  1.00  0.00     0.117 C 
HETATM   11  O   LIG     1      15.741  34.091  19.841  1.00  0.00    -0.274 OA
HETATM   12  H   LIG     1      14.518  34.340  17.609  1.00  0.00     0.169 HD
ENDBRANCH   1   8
TORSDOF 1
ENDMDL
MODEL 6
REMARK VINA RESULT:      -6.2      1.766      2.508
REMARK  1 active torsions:
REMARK  status: ('A' for Active; 'I' for Inactive)
REMARK       I    between atoms: C_2  and  N_3 
REMARK    1  A    between atoms: N_3  and  C_4 
ROOT
HETATM    1  C   LIG     1      16.212  37.146  22.509  1.00  0.00     0.034 A 
HETATM    2  C   LIG     1      17.304  36.869  21.671  1.00  0.00     0.032 A 
HETATM    3  C   LIG     1      17.166  35.967  20.610  1.00  0.00     0.044 A 
HETATM    4  C   LIG     1      14.972  36.547  22.244  1.00  0.00     0.032 A 
HETATM    5  C   LIG     1      14.836  35.645  21.184  1.00  0.00     0.044 A 
HETATM    6  C   LIG     1      15.934  35.351  20.370  1.00  0.00     0.116 A 
HETATM    7  F   LIG     1      15.801  34.479  19.340  1.00  0.00    -0.206 F 
ENDROOT
BRANCH   1   8
HETATM    8  N   LIG     1      16.328  38.089  23.584  1.00  0.00    -0.328 N 
HETATM    9  C   LIG     1      17.000  37.818  24.823  1.00  0.00     0.218 C 
HETATM   10  C   LIG     1      17.405  36.429  25.217  1.00  0.00     0.117 C 
HETATM   11  O   LIG     1      17.199  38.763  25.632  1.00  0.00    -0.274 OA
HETATM   12  H   LIG     1      15.786  38.980  23.511  1.00  0.00     0.169 HD
ENDBRANCH   1   8
TORSDOF 1
ENDMDL
MODEL 7
REMARK VINA RESULT:      -6.0      2.844      3.603
REMARK  1 active torsions:
REMARK  status: ('A' for Active; 'I' for Inactive)
REMARK       I    between atoms: C_2  and  N_3 
REMARK    1  A    between atoms: N_3  and  C_4 
ROOT
HETATM    1  C   LIG     1      17.547  37.091  21.169  1.00  0.00     0.034 A 
HETATM    2  C   LIG     1      18.355  36.533  20.164  1.00  0.00     0.032 A 
HETATM    3  C   LIG     1      19.336  37.311  19.538  1.00  0.00     0.044 A 
HETATM    4  C   LIG     1      17.764  38.416  21.570  1.00  0.00     0.032 A 
HETATM    5  C   LIG     1      18.745  39.192  20.943  1.00  0.00     0.044 A 
HETATM    6  C   LIG     1      19.527  38.640  19.924  1.00  0.00     0.116 A 
HETATM    7  F   LIG     1      20.480  39.392  19.318  1.00  0.00    -0.206 F 
ENDROOT
BRANCH   1   8
HETATM    8  N   LIG     1      16.556  36.300  21.841  1.00  0.00    -0.328 N 
HETATM    9  C   LIG     1      15.766  35.287  21.200  1.00  0.00     0.218 C 
HETATM   10  C   LIG     1      15.711  35.151  19.707  1.00  0.00     0.117 C 
HETATM   11  O   LIG     1      15.048  34.531  21.907  1.00  0.00    -0.274 OA
HETATM   12  H   LIG     1      16.307  36.561  22.821  1.00  0.00     0.169 HD
ENDBRANCH   1   8
TORSDOF 1
ENDMDL
MODEL 8
REMARK VINA RESULT:      -5.9      3.614      4.814
REMARK  1 active torsions:
REMARK  status: ('A' for Active; 'I' for Inactive)
REMARK       I    between atoms: C_2  and  N_3 
REMARK    1  A    between atoms: N_3  and  C_4 
ROOT
HETATM    1  C   LIG     1      18.417  39.113  21.944  1.00  0.00     0.034 A 
HETATM    2  C   LIG     1      19.128  38.882  23.134  1.00  0.00     0.032 A 
HETATM    3  C   LIG     1      18.486  38.308  24.236  1.00  0.00     0.044 A 
HETATM    4  C   LIG     1      17.074  38.721  21.858  1.00  0.00     0.032 A 
HETATM    5  C   LIG     1      16.434  38.147  22.962  1.00  0.00     0.044 A 
HETATM    6  C   LIG     1      17.139  37.946  24.152  1.00  0.00     0.116 A 
HETATM    7  F   LIG     1      16.519  37.387  25.222  1.00  0.00    -0.206 F 
ENDROOT
BRANCH   1   8
HETATM    8  N   LIG     1      19.067  39.674  20.795  1.00  0.00    -0.328 N 
HETATM    9  C   LIG     1      19.416  38.924  19.622  1.00  0.00     0.218 C 
HETATM   10  C   LIG     1      19.380  37.425  19.600  1.00  0.00     0.117 C 
HETATM   11  O   LIG     1      19.825  39.539  18.601  1.00  0.00    -0.274 OA
HETATM   12  H   LIG     1      19.420  40.656  20.866  1.00  0.00     0.169 HD
ENDBRANCH   1   8
TORSDOF 1
ENDMDL
MODEL 9
REMARK VINA RESULT:      -5.7      3.286      4.105
REMARK  1 active torsions:
REMARK  status: ('A' for Active; 'I' for Inactive)
REMARK       I    between atoms: C_2  and  N_3 
REMARK    1  A    between atoms: N_3  and  C_4 
ROOT
HETATM    1  C   LIG     1      17.542  36.272  20.918  1.00  0.00     0.034 A 
HETATM    2  C   LIG     1      17.235  37.217  21.912  1.00  0.00     0.032 A 
HETATM    3  C   LIG     1      17.767  38.509  21.843  1.00  0.00     0.044 A 
HETATM    4  C   LIG     1      18.348  36.651  19.835  1.00  0.00     0.032 A 
HETATM    5  C   LIG     1      18.879  37.943  19.768  1.00  0.00     0.044 A 
HETATM    6  C   LIG     1      18.593  38.870  20.775  1.00  0.00     0.116 A 
HETATM    7  F   LIG     1      19.106  40.124  20.708  1.00  0.00    -0.206 F 
ENDROOT
BRANCH   1   8
HETATM    8  N   LIG     1      16.983  34.952  20.958  1.00  0.00    -0.328 N 
HETATM    9  C   LIG     1      15.575  34.674  20.923  1.00  0.00     0.218 C 
HETATM   10  C   LIG     1      14.549  35.751  21.117  1.00  0.00     0.117 C 
HETATM   11  O   LIG     1      15.189  33.482  20.788  1.00  0.00    -0.274 OA
HETATM   12  H   LIG     1      17.630  34.154  21.151  1.00  0.00     0.169 HD
ENDBRANCH   1   8
TORSDOF 1
ENDMDL
MODEL 10
REMARK VINA RESULT:      -5.7     10.689     12.179
REMARK  1 active torsions:
REMARK  status: ('A' for Active; 'I' for Inactive)
REMARK       I    between atoms: C_2  and  N_3 
REMARK    1  A    between atoms: N_3  and  C_4 
ROOT
HETATM    1  C   LIG     1      13.504  30.024  14.742  1.00  0.00     0.034 A 
HETATM    2  C   LIG     1      14.698  30.425  14.119  1.00  0.00     0.032 A 
HETATM    3  C   LIG     1      15.506  31.401  14.712  1.00  0.00     0.044 A 
HETATM    4  C   LIG     1      13.156  30.575  15.983  1.00  0.00     0.032 A 
HETATM    5  C   LIG     1      13.966  31.551  16.573  1.00  0.00     0.044 A 
HETATM    6  C   LIG     1      15.138  31.967  15.936  1.00  0.00     0.116 A 
HETATM    7  F   LIG     1      15.924  32.912  16.510  1.00  0.00    -0.206 F 
ENDROOT
BRANCH   1   8
HETATM    8  N   LIG     1      12.678  29.004  14.162  1.00  0.00    -0.328 N 
HETATM    9  C   LIG     1      13.157  27.711  13.762  1.00  0.00     0.218 C 
HETATM   10  C   LIG     1      14.622  27.406  13.662  1.00  0.00     0.117 C 
HETATM   11  O   LIG     1      12.326  26.827  13.425  1.00  0.00    -0.274 OA
HETATM   12  H   LIG     1      11.700  29.261  13.899  1.00  0.00     0.169 HD
ENDBRANCH   1   8
TORSDOF 1
ENDMDL
MODEL 11
REMARK VINA RESULT:      -5.5      3.264      4.577
REMARK  1 active torsions:
REMARK  status: ('A' for Active; 'I' for Inactive)
REMARK       I    between atoms: C_2  and  N_3 
REMARK    1  A    between atoms: N_3  and  C_4 
ROOT
HETATM    1  C   LIG     1      17.712  37.372  23.828  1.00  0.00     0.034 A 
HETATM    2  C   LIG     1      17.116  36.155  23.459  1.00  0.00     0.032 A 
HETATM    3  C   LIG     1      17.032  35.106  24.381  1.00  0.00     0.044 A 
HETATM    4  C   LIG     1      18.178  37.541  25.139  1.00  0.00     0.032 A 
HETATM    5  C   LIG     1      18.093  36.491  26.059  1.00  0.00     0.044 A 
HETATM    6  C   LIG     1      17.525  35.272  25.678  1.00  0.00     0.116 A 
HETATM    7  F   LIG     1      17.440  34.254  26.571  1.00  0.00    -0.206 F 
ENDROOT
BRANCH   1   8
HETATM    8  N   LIG     1      17.782  38.468  22.904  1.00  0.00    -0.328 N 
HETATM    9  C   LIG     1      17.908  38.315  21.482  1.00  0.00     0.218 C 
HETATM   10  C   LIG     1      18.254  36.997  20.855  1.00  0.00     0.117 C 
HETATM   11  O   LIG     1      17.787  39.328  20.743  1.00  0.00    -0.274 OA
HETATM   12  H   LIG     1      17.873  39.432  23.298  1.00  0.00     0.169 HD
ENDBRANCH   1   8
TORSDOF 1
ENDMDL
MODEL 12
REMARK VINA RESULT:      -5.4      4.648      5.792
REMARK  1 active torsions:
REMARK  status: ('A' for Active; 'I' for Inactive)
REMARK       I    between atoms: C_2  and  N_3 
REMARK    1  A    between atoms: N_3  and  C_4 
ROOT
HETATM    1  C   LIG     1      15.759  35.289  20.042  1.00  0.00     0.034 A 
HETATM    2  C   LIG     1      14.747  35.621  20.958  1.00  0.00     0.032 A 
HETATM    3  C   LIG     1      15.054  36.353  22.110  1.00  0.00     0.044 A 
HETATM    4  C   LIG     1      17.067  35.738  20.270  1.00  0.00     0.032 A 
HETATM    5  C   LIG     1      17.372  36.469  21.423  1.00  0.00     0.044 A 
HETATM    6  C   LIG     1      16.366  36.772  22.345  1.00  0.00     0.116 A 
HETATM    7  F   LIG     1      16.662  37.483  23.462  1.00  0.00    -0.206 F 
ENDROOT
BRANCH   1   8
HETATM    8  N   LIG     1      15.457  34.564  18.841  1.00  0.00    -0.328 N 
HETATM    9  C   LIG     1      15.240  33.146  18.791  1.00  0.00     0.218 C 
HETATM   10  C   LIG     1      15.579  32.252  19.946  1.00  0.00     0.117 C 
HETATM   11  O   LIG     1      14.811  32.629  17.725  1.00  0.00    -0.274 OA
HETATM   12  H   LIG     1      15.523  35.077  17.933  1.00  0.00     0.169 HD
ENDBRANCH   1   8
TORSDOF 1
ENDMDL
MODEL 13
REMARK VINA RESULT:      -5.0      9.543     10.940
REMARK  1 active torsions:
REMARK  status: ('A' for Active; 'I' for Inactive)
REMARK       I    between atoms: C_2  and  N_3 
REMARK    1  A    between atoms: N_3  and  C_4 
ROOT
HETATM    1  C   LIG     1      15.194  31.374  15.300  1.00  0.00     0.034 A 
HETATM    2  C   LIG     1      13.896  31.277  15.829  1.00  0.00     0.032 A 
HETATM    3  C   LIG     1      13.028  30.274  15.382  1.00  0.00     0.044 A 
HETATM    4  C   LIG     1      15.625  30.430  14.357  1.00  0.00     0.032 A 
HETATM    5  C   LIG     1      14.756  29.429  13.912  1.00  0.00     0.044 A 
HETATM    6  C   LIG     1      13.456  29.354  14.421  1.00  0.00     0.116 A 
HETATM    7  F   LIG     1      12.614  28.382  13.991  1.00  0.00    -0.206 F 
ENDROOT
BRANCH   1   8
HETATM    8  N   LIG     1      16.106  32.378  15.767  1.00  0.00    -0.328 N 
HETATM    9  C   LIG     1      16.852  33.250  14.905  1.00  0.00     0.218 C 
HETATM   10  C   LIG     1      16.952  33.009  13.429  1.00  0.00     0.117 C 
HETATM   11  O   LIG     1      17.493  34.210  15.411  1.00  0.00    -0.274 OA
HETATM   12  H   LIG     1      16.336  32.390  16.787  1.00  0.00     0.169 HD
ENDBRANCH   1   8
TORSDOF 1
ENDMDL
MODEL 14
REMARK VINA RESULT:      -5.0      2.905      3.916
REMARK  1 active torsions:
REMARK  status: ('A' for Active; 'I' for Inactive)
REMARK       I    between atoms: C_2  and  N_3 
REMARK    1  A    between atoms: N_3  and  C_4 
ROOT
HETATM    1  C   LIG     1      16.696  36.801  21.983  1.00  0.00     0.034 A 
HETATM    2  C   LIG     1      17.367  35.593  21.727  1.00  0.00     0.032 A 
HETATM    3  C   LIG     1      16.642  34.444  21.393  1.00  0.00     0.044 A 
HETATM    4  C   LIG     1      15.301  36.854  21.855  1.00  0.00     0.032 A 
HETATM    5  C   LIG     1      14.579  35.704  21.522  1.00  0.00     0.044 A 
HETATM    6  C   LIG     1      15.249  34.498  21.296  1.00  0.00     0.116 A 
HETATM    7  F   LIG     1      14.547  33.383  20.969  1.00  0.00    -0.206 F 
ENDROOT
BRANCH   1   8
HETATM    8  N   LIG     1      17.426  37.996  22.299  1.00  0.00    -0.328 N 
HETATM    9  C   LIG     1      18.287  38.679  21.377  1.00  0.00     0.218 C 
HETATM   10  C   LIG     1      18.719  38.054  20.083  1.00  0.00     0.117 C 
HETATM   11  O   LIG     1      18.746  39.810  21.690  1.00  0.00    -0.274 OA
HETATM   12  H   LIG     1      17.429  38.315  23.294  1.00  0.00     0.169 HD
ENDBRANCH   1   8
TORSDOF 1
ENDMDL
MODEL 15
REMARK VINA RESULT:      -5.0      9.926     11.437
REMARK  1 active torsions:
REMARK  status: ('A' for Active; 'I' for Inactive)
REMARK       I    between atoms: C_2  and  N_3 
REMARK    1  A    between atoms: N_3  and  C_4 
ROOT
HETATM    1  C   LIG     1      19.095  33.791  11.773  1.00  0.00     0.034 A 
HETATM    2  C   LIG     1      18.969  34.543  10.593  1.00  0.00     0.032 A 
HETATM    3  C   LIG     1      20.048  35.300  10.123  1.00  0.00     0.044 A 
HETATM    4  C   LIG     1      20.324  33.769  12.447  1.00  0.00     0.032 A 
HETATM    5  C   LIG     1      21.401  34.527  11.975  1.00  0.00     0.044 A 
HETATM    6  C   LIG     1      21.262  35.296  10.817  1.00  0.00     0.116 A 
HETATM    7  F   LIG     1      22.308  36.028  10.358  1.00  0.00    -0.206 F 
ENDROOT
BRANCH   1   8
HETATM    8  N   LIG     1      18.008  32.987  12.254  1.00  0.00    -0.328 N 
HETATM    9  C   LIG     1      17.229  33.302  13.417  1.00  0.00     0.218 C 
HETATM   10  C   LIG     1      17.654  34.356  14.395  1.00  0.00     0.117 C 
HETATM   11  O   LIG     1      16.190  32.631  13.658  1.00  0.00    -0.274 OA
HETATM   12  H   LIG     1      17.856  32.055  11.806  1.00  0.00     0.169 HD
ENDBRANCH   1   8
TORSDOF 1
ENDMDL
MODEL 16
REMARK VINA RESULT:      -4.8      8.931     10.099
REMARK  1 active torsions:
REMARK  status: ('A' for Active; 'I' for Inactive)
REMARK       I    between atoms: C_2  and  N_3 
REMARK    1  A    between atoms: N_3  and  C_4 
ROOT
HETATM    1  C   LIG     1      15.846  32.567  15.714  1.00  0.00     0.034 A 
HETATM    2  C   LIG     1      15.577  31.417  14.953  1.00  0.00     0.032 A 
HETATM    3  C   LIG     1      14.445  30.642  15.227  1.00  0.00     0.044 A 
HETATM    4  C   LIG     1      14.948  32.954  16.718  1.00  0.00     0.032 A 
HETATM    5  C   LIG     1      13.817  32.177  16.991  1.00  0.00     0.044 A 
HETATM    6  C   LIG     1      13.569  31.018  16.249  1.00  0.00     0.116 A 
HETATM    7  F   LIG     1      12.471  30.267  16.513  1.00  0.00    -0.206 F 
ENDROOT
BRANCH   1   8
HETATM    8  N   LIG     1      16.987  33.389  15.428  1.00  0.00    -0.328 N 
HETATM    9  C   LIG     1      17.467  33.665  14.104  1.00  0.00     0.218 C 
HETATM   10  C   LIG     1      16.984  32.897  12.910  1.00  0.00     0.117 C 
HETATM   11  O   LIG     1      18.366  34.534  13.947  1.00  0.00    -0.274 OA
HETATM   12  H   LIG     1      17.576  33.702  16.233  1.00  0.00     0.169 HD
ENDBRANCH   1   8
TORSDOF 1
ENDMDL
MODEL 17
REMARK VINA RESULT:      -4.8      6.973      8.445
REMARK  1 active torsions:
REMARK  status: ('A' for Active; 'I' for Inactive)
REMARK       I    between atoms: C_2  and  N_3 
REMARK    1  A    between atoms: N_3  and  C_4 
ROOT
HETATM    1  C   LIG     1      14.992  32.814  17.577  1.00  0.00     0.034 A 
HETATM    2  C   LIG     1      15.033  31.960  18.692  1.00  0.00     0.032 A 
HETATM    3  C   LIG     1      15.342  32.471  19.958  1.00  0.00     0.044 A 
HETATM    4  C   LIG     1      15.217  34.187  17.753  1.00  0.00     0.032 A 
HETATM    5  C   LIG     1      15.526  34.694  19.019  1.00  0.00     0.044 A 
HETATM    6  C   LIG     1      15.593  33.836  20.120  1.00  0.00     0.116 A 
HETATM    7  F   LIG     1      15.890  34.330  21.348  1.00  0.00    -0.206 F 
ENDROOT
BRANCH   1   8
HETATM    8  N   LIG     1      14.650  32.312  16.278  1.00  0.00    -0.328 N 
HETATM    9  C   LIG     1      15.611  31.979  15.265  1.00  0.00     0.218 C 
HETATM   10  C   LIG     1      17.051  32.384  15.376  1.00  0.00     0.117 C 
HETATM   11  O   LIG     1      15.223  31.385  14.224  1.00  0.00    -0.274 OA
HETATM   12  H   LIG     1      13.640  32.308  16.008  1.00  0.00     0.169 HD
ENDBRANCH   1   8
TORSDOF 1
ENDMDL
MODEL 18
REMARK VINA RESULT:      -4.7      8.097      9.647
REMARK  1 active torsions:
REMARK  status: ('A' for Active; 'I' for Inactive)
REMARK       I    between atoms: C_2  and  N_3 
REMARK    1  A    between atoms: N_3  and  C_4 
ROOT
HETATM    1  C   LIG     1      13.969  31.816  17.164  1.00  0.00     0.034 A 
HETATM    2  C   LIG     1      14.429  33.109  16.864  1.00  0.00     0.032 A 
HETATM    3  C   LIG     1      15.121  33.850  17.827  1.00  0.00     0.044 A 
HETATM    4  C   LIG     1      14.252  31.260  18.420  1.00  0.00     0.032 A 
HETATM    5  C   LIG     1      14.945  32.003  19.381  1.00  0.00     0.044 A 
HETATM    6  C   LIG     1      15.375  33.300  19.086  1.00  0.00     0.116 A 
HETATM    7  F   LIG     1      16.049  34.020  20.018  1.00  0.00    -0.206 F 
ENDROOT
BRANCH   1   8
HETATM    8  N   LIG     1      13.282  31.031  16.180  1.00  0.00    -0.328 N 
HETATM    9  C   LIG     1      13.931  30.366  15.085  1.00  0.00     0.218 C 
HETATM   10  C   LIG     1      15.354  30.656  14.714  1.00  0.00     0.117 C 
HETATM   11  O   LIG     1      13.268  29.562  14.377  1.00  0.00    -0.274 OA
HETATM   12  H   LIG     1      12.237  31.047  16.186  1.00  0.00     0.169 HD
ENDBRANCH   1   8
TORSDOF 1
ENDMDL
MODEL 19
REMARK VINA RESULT:      -4.7      9.295     10.792
REMARK  1 active torsions:
REMARK  status: ('A' for Active; 'I' for Inactive)
REMARK       I    between atoms: C_2  and  N_3 
REMARK    1  A    between atoms: N_3  and  C_4 
ROOT
HETATM    1  C   LIG     1      18.995  33.943  12.804  1.00  0.00     0.034 A 
HETATM    2  C   LIG     1      20.370  34.194  12.946  1.00  0.00     0.032 A 
HETATM    3  C   LIG     1      21.290  33.572  12.095  1.00  0.00     0.044 A 
HETATM    4  C   LIG     1      18.552  33.101  11.774  1.00  0.00     0.032 A 
HETATM    5  C   LIG     1      19.474  32.480  10.924  1.00  0.00     0.044 A 
HETATM    6  C   LIG     1      20.843  32.712  11.088  1.00  0.00     0.116 A 
HETATM    7  F   LIG     1      21.736  32.111  10.262  1.00  0.00    -0.206 F 
ENDROOT
BRANCH   1   8
HETATM    8  N   LIG     1      18.036  34.594  13.649  1.00  0.00    -0.328 N 
HETATM    9  C   LIG     1      17.454  33.994  14.816  1.00  0.00     0.218 C 
HETATM   10  C   LIG     1      17.589  32.528  15.104  1.00  0.00     0.117 C 
HETATM   11  O   LIG     1      16.756  34.705  15.587  1.00  0.00    -0.274 OA
HETATM   12  H   LIG     1      17.645  35.509  13.328  1.00  0.00     0.169 HD
ENDBRANCH   1   8
TORSDOF 1
ENDMDL
MODEL 20
REMARK VINA RESULT:      -4.5      9.148      9.901
REMARK  1 active torsions:
REMARK  status: ('A' for Active; 'I' for Inactive)
REMARK       I    between atoms: C_2  and  N_3 
REMARK    1  A    between atoms: N_3  and  C_4 
ROOT
HETATM    1  C   LIG     1      15.719  31.650  14.794  1.00  0.00     0.034 A 
HETATM    2  C   LIG     1      15.816  31.897  13.415  1.00  0.00     0.032 A 
HETATM    3  C   LIG     1      16.816  32.740  12.920  1.00  0.00     0.044 A 
HETATM    4  C   LIG     1      16.661  32.219  15.663  1.00  0.00     0.032 A 
HETATM    5  C   LIG     1      17.661  33.062  15.166  1.00  0.00     0.044 A 
HETATM    6  C   LIG     1      17.735  33.326  13.795  1.00  0.00     0.116 A 
HETATM    7  F   LIG     1      18.706  34.142  13.313  1.00  0.00    -0.206 F 
ENDROOT
BRANCH   1   8
HETATM    8  N   LIG     1      14.717  30.766  15.316  1.00  0.00    -0.328 N 
HETATM    9  C   LIG     1      13.729  31.151  16.284  1.00  0.00     0.218 C 
HETATM   10  C   LIG     1      13.825  32.440  17.043  1.00  0.00     0.117 C 
HETATM   11  O   LIG     1      12.789  30.355  16.550  1.00  0.00    -0.274 OA
HETATM   12  H   LIG     1      14.788  29.751  15.073  1.00  0.00     0.169 HD
ENDBRANCH   1   8
TORSDOF 1
ENDMDL
