MODEL 1
REMARK VINA RESULT:      -5.8      0.000      0.000
REMARK  0 active torsions:
REMARK  status: ('A' for Active; 'I' for Inactive)
ROOT
HETATM    1  F   LIG     1      18.687  36.620  27.266  1.00  0.00    -0.206 F 
HETATM    2  C   LIG     1      18.129  36.434  26.045  1.00  0.00     0.116 A 
HETATM    3  C   LIG     1      17.884  37.531  25.212  1.00  0.00     0.043 A 
HETATM    4  C   LIG     1      17.309  37.339  23.952  1.00  0.00     0.021 A 
HETATM    5  C   LIG     1      16.978  36.048  23.522  1.00  0.00     0.006 A 
HETATM    6  I   LIG     1      16.110  35.759  21.621  1.00  0.00    -0.045 I 
HETATM    7  C   LIG     1      17.223  34.951  24.356  1.00  0.00     0.021 A 
HETATM    8  C   LIG     1      17.798  35.144  25.616  1.00  0.00     0.043 A 
ENDROOT
TORSDOF 0
ENDMDL
MODEL 2
REMARK VINA RESULT:      -5.8      0.025      1.713
REMARK  0 active torsions:
REMARK  status: ('A' for Active; 'I' for Inactive)
ROOT
HETATM    1  F   LIG     1      18.655  36.627  27.264  1.00  0.00    -0.206 F 
HETATM    2  C   LIG     1      18.110  36.436  26.037  1.00  0.00     0.116 A 
HETATM    3  C   LIG     1      17.777  35.145  25.612  1.00  0.00     0.043 A 
HETATM    4  C   LIG     1      17.215  34.948  24.347  1.00  0.00     0.021 A 
HETATM    5  C   LIG     1      16.984  36.042  23.504  1.00  0.00     0.006 A 
HETATM    6  I   LIG     1      16.137  35.744  21.596  1.00  0.00    -0.045 I 
HETATM    7  C   LIG     1      17.317  37.333  23.930  1.00  0.00     0.021 A 
HETATM    8  C   LIG     1      17.879  37.529  25.195  1.00  0.00     0.043 A 
ENDROOT
TORSDOF 0
ENDMDL
MODEL 3
REMARK VINA RESULT:      -5.6      4.705      5.614
REMARK  0 active torsions:
REMARK  status: ('A' for Active; 'I' for Inactive)
ROOT
HETATM    1  F   LIG     1      20.775  39.293  19.084  1.00  0.00    -0.206 F 
HETATM    2  C   LIG     1      19.784  38.648  19.747  1.00  0.00     0.116 A 
HETATM    3  C   LIG     1      19.436  37.341  19.389  1.00  0.00     0.043 A 
HETATM    4  C   LIG     1      18.414  36.676  20.073  1.00  0.00     0.021 A 
HETATM    5  C   LIG     1      17.738  37.318  21.118  1.00  0.00     0.006 A 
HETATM    6  I   LIG     1      16.196  36.314  22.150  1.00  0.00    -0.045 I 
HETATM    7  C   LIG     1      18.086  38.625  21.476  1.00  0.00     0.021 A 
HETATM    8  C   LIG     1      19.108  39.289  20.791  1.00  0.00     0.043 A 
ENDROOT
TORSDOF 0
ENDMDL
MODEL 4
REMARK VINA RESULT:      -5.2      3.557      4.002
REMARK  0 active torsions:
REMARK  status: ('A' for Active; 'I' for Inactive)
ROOT
HETATM    1  F   LIG     1      15.605  37.568  23.864  1.00  0.00    -0.206 F 
HETATM    2  C   LIG     1      16.532  37.804  22.903  1.00  0.00     0.116 A 
HETATM    3  C   LIG     1      17.174  39.045  22.839  1.00  0.00     0.043 A 
HETATM    4  C   LIG     1      18.130  39.288  21.848  1.00  0.00     0.021 A 
HETATM    5  C   LIG     1      18.447  38.290  20.919  1.00  0.00     0.006 A 
HETATM    6  I   LIG     1      19.889  38.657  19.425  1.00  0.00    -0.045 I 
HETATM    7  C   LIG     1      17.804  37.048  20.984  1.00  0.00     0.021 A 
HETATM    8  C   LIG     1      16.848  36.806  21.975  1.00  0.00     0.043 A 
ENDROOT
TORSDOF 0
ENDMDL
MODEL 5
REMARK VINA RESULT:      -5.1      3.432      4.368
REMARK  0 active torsions:
REMARK  status: ('A' for Active; 'I' for Inactive)
ROOT
HETATM    1  F   LIG     1      15.393  35.951  20.539  1.00  0.00    -0.206 F 
HETATM    2  C   LIG     1      15.984  36.087  21.751  1.00  0.00     0.116 A 
HETATM    3  C   LIG     1      16.585  34.983  22.365  1.00  0.00     0.043 A 
HETATM    4  C   LIG     1      17.195  35.124  23.615  1.00  0.00     0.021 A 
HETATM    5  C   LIG     1      17.206  36.370  24.254  1.00  0.00     0.006 A 
HETATM    6  I   LIG     1      18.127  36.582  26.139  1.00  0.00    -0.045 I 
HETATM    7  C   LIG     1      16.605  37.474  23.638  1.00  0.00     0.021 A 
HETATM    8  C   LIG     1      15.995  37.332  22.388  1.00  0.00     0.043 A 
ENDROOT
TORSDOF 0
ENDMDL
MODEL 6
REMARK VINA RESULT:      -5.1      3.063      3.642
REMARK  0 active torsions:
REMARK  status: ('A' for Active; 'I' for Inactive)
ROOT
HETATM    1  F   LIG     1      16.882  39.195  21.583  1.00  0.00    -0.206 F 
HETATM    2  C   LIG     1      17.074  38.297  22.580  1.00  0.00     0.116 A 
HETATM    3  C   LIG     1      17.510  38.729  23.837  1.00  0.00     0.043 A 
HETATM    4  C   LIG     1      17.708  37.804  24.866  1.00  0.00     0.021 A 
HETATM    5  C   LIG     1      17.470  36.442  24.640  1.00  0.00     0.006 A 
HETATM    6  I   LIG     1      17.770  35.046  26.192  1.00  0.00    -0.045 I 
HETATM    7  C   LIG     1      17.034  36.010  23.382  1.00  0.00     0.021 A 
HETATM    8  C   LIG     1      16.837  36.937  22.354  1.00  0.00     0.043 A 
ENDROOT
TORSDOF 0
ENDMDL
MODEL 7
REMARK VINA RESULT:      -4.9      4.113      4.860
REMARK  0 active torsions:
REMARK  status: ('A' for Active; 'I' for Inactive)
ROOT
HETATM    1  F   LIG     1      18.430  36.954  18.732  1.00  0.00    -0.206 F 
HETATM    2  C   LIG     1      18.178  37.168  20.047  1.00  0.00     0.116 A 
HETATM    3  C   LIG     1      18.589  38.360  20.654  1.00  0.00     0.043 A 
HETATM    4  C   LIG     1      18.329  38.580  22.010  1.00  0.00     0.021 A 
HETATM    5  C   LIG     1      17.658  37.608  22.762  1.00  0.00     0.006 A 
HETATM    6  I   LIG     1      17.266  37.941  24.808  1.00  0.00    -0.045 I 
HETATM    7  C   LIG     1      17.247  36.416  22.154  1.00  0.00     0.021 A 
HETATM    8  C   LIG     1      17.508  36.197  20.798  1.00  0.00     0.043 A 
ENDROOT
TORSDOF 0
ENDMDL
MODEL 8
REMARK VINA RESULT:      -4.7     10.085     10.987
REMARK  0 active torsions:
REMARK  status: ('A' for Active; 'I' for Inactive)
ROOT
HETATM    1  F   LIG     1      12.697  30.145  16.439  1.00  0.00    -0.206 F 
HETATM    2  C   LIG     1      13.761  30.849  15.980  1.00  0.00     0.116 A 
HETATM    3  C   LIG     1      14.225  31.961  16.692  1.00  0.00     0.043 A 
HETATM    4  C   LIG     1      15.323  32.686  16.219  1.00  0.00     0.021 A 
HETATM    5  C   LIG     1      15.960  32.300  15.033  1.00  0.00     0.006 A 
HETATM    6  I   LIG     1      17.616  33.394  14.321  1.00  0.00    -0.045 I 
HETATM    7  C   LIG     1      15.495  31.187  14.322  1.00  0.00     0.021 A 
HETATM    8  C   LIG     1      14.397  30.463  14.796  1.00  0.00     0.043 A 
ENDROOT
TORSDOF 0
ENDMDL
MODEL 9
REMARK VINA RESULT:      -4.6      3.809      4.442
REMARK  0 active torsions:
REMARK  status: ('A' for Active; 'I' for Inactive)
ROOT
HETATM    1  F   LIG     1      15.354  34.617  22.161  1.00  0.00    -0.206 F 
HETATM    2  C   LIG     1      16.209  35.588  21.753  1.00  0.00     0.116 A 
HETATM    3  C   LIG     1      16.389  36.735  22.533  1.00  0.00     0.043 A 
HETATM    4  C   LIG     1      17.271  37.736  22.113  1.00  0.00     0.021 A 
HETATM    5  C   LIG     1      17.975  37.590  20.912  1.00  0.00     0.006 A 
HETATM    6  I   LIG     1      19.306  39.100  20.278  1.00  0.00    -0.045 I 
HETATM    7  C   LIG     1      17.795  36.442  20.132  1.00  0.00     0.021 A 
HETATM    8  C   LIG     1      16.913  35.442  20.553  1.00  0.00     0.043 A 
ENDROOT
TORSDOF 0
ENDMDL
MODEL 10
REMARK VINA RESULT:      -4.4      9.381     10.270
REMARK  0 active torsions:
REMARK  status: ('A' for Active; 'I' for Inactive)
ROOT
HETATM    1  F   LIG     1      15.049  34.397  17.541  1.00  0.00    -0.206 F 
HETATM    2  C   LIG     1      15.032  33.291  16.757  1.00  0.00     0.116 A 
HETATM    3  C   LIG     1      14.021  32.337  16.913  1.00  0.00     0.043 A 
HETATM    4  C   LIG     1      14.003  31.197  16.105  1.00  0.00     0.021 A 
HETATM    5  C   LIG     1      14.997  31.008  15.137  1.00  0.00     0.006 A 
HETATM    6  I   LIG     1      14.971  29.287  13.917  1.00  0.00    -0.045 I 
HETATM    7  C   LIG     1      16.009  31.963  14.981  1.00  0.00     0.021 A 
HETATM    8  C   LIG     1      16.026  33.103  15.790  1.00  0.00     0.043 A 
ENDROOT
TORSDOF 0
ENDMDL
MODEL 11
REMARK VINA RESULT:      -4.4     10.725     11.723
REMARK  0 active torsions:
REMARK  status: ('A' for Active; 'I' for Inactive)
ROOT
HETATM    1  F   LIG     1      13.636  28.657  13.886  1.00  0.00    -0.206 F 
HETATM    2  C   LIG     1      13.978  29.770  14.580  1.00  0.00     0.116 A 
HETATM    3  C   LIG     1      13.151  30.234  15.609  1.00  0.00     0.043 A 
HETATM    4  C   LIG     1      13.504  31.383  16.325  1.00  0.00     0.021 A 
HETATM    5  C   LIG     1      14.684  32.069  16.013  1.00  0.00     0.006 A 
HETATM    6  I   LIG     1      15.214  33.801  17.093  1.00  0.00    -0.045 I 
HETATM    7  C   LIG     1      15.510  31.604  14.983  1.00  0.00     0.021 A 
HETATM    8  C   LIG     1      15.156  30.455  14.268  1.00  0.00     0.043 A 
ENDROOT
TORSDOF 0
ENDMDL
MODEL 12
REMARK VINA RESULT:      -4.3      9.426     10.251
REMARK  0 active torsions:
REMARK  status: ('A' for Active; 'I' for Inactive)
ROOT
HETATM    1  F   LIG     1      14.838  34.325  17.575  1.00  0.00    -0.206 F 
HETATM    2  C   LIG     1      14.870  33.225  16.783  1.00  0.00     0.116 A 
HETATM    3  C   LIG     1      15.935  33.030  15.897  1.00  0.00     0.043 A 
HETATM    4  C   LIG     1      15.967  31.895  15.081  1.00  0.00     0.021 A 
HETATM    5  C   LIG     1      14.934  30.952  15.149  1.00  0.00     0.006 A 
HETATM    6  I   LIG     1      14.984  29.240  13.918  1.00  0.00    -0.045 I 
HETATM    7  C   LIG     1      13.869  31.148  16.036  1.00  0.00     0.021 A 
HETATM    8  C   LIG     1      13.837  32.283  16.852  1.00  0.00     0.043 A 
ENDROOT
TORSDOF 0
ENDMDL
MODEL 13
REMARK VINA RESULT:      -4.1      6.791      7.919
REMARK  0 active torsions:
REMARK  status: ('A' for Active; 'I' for Inactive)
ROOT
HETATM    1  F   LIG     1      14.222  31.262  17.015  1.00  0.00    -0.206 F 
HETATM    2  C   LIG     1      14.666  32.164  17.925  1.00  0.00     0.116 A 
HETATM    3  C   LIG     1      14.801  31.795  19.268  1.00  0.00     0.043 A 
HETATM    4  C   LIG     1      15.259  32.724  20.206  1.00  0.00     0.021 A 
HETATM    5  C   LIG     1      15.583  34.026  19.804  1.00  0.00     0.006 A 
HETATM    6  I   LIG     1      16.273  35.428  21.220  1.00  0.00    -0.045 I 
HETATM    7  C   LIG     1      15.447  34.394  18.460  1.00  0.00     0.021 A 
HETATM    8  C   LIG     1      14.989  33.464  17.522  1.00  0.00     0.043 A 
ENDROOT
TORSDOF 0
ENDMDL
MODEL 14
REMARK VINA RESULT:      -4.0      3.805      4.669
REMARK  0 active torsions:
REMARK  status: ('A' for Active; 'I' for Inactive)
ROOT
HETATM    1  F   LIG     1      15.673  33.422  20.834  1.00  0.00    -0.206 F 
HETATM    2  C   LIG     1      16.224  34.629  21.110  1.00  0.00     0.116 A 
HETATM    3  C   LIG     1      16.706  35.433  20.072  1.00  0.00     0.043 A 
HETATM    4  C   LIG     1      17.275  36.678  20.356  1.00  0.00     0.021 A 
HETATM    5  C   LIG     1      17.362  37.123  21.681  1.00  0.00     0.006 A 
HETATM    6  I   LIG     1      18.220  39.001  22.110  1.00  0.00    -0.045 I 
HETATM    7  C   LIG     1      16.880  36.318  22.720  1.00  0.00     0.021 A 
HETATM    8  C   LIG     1      16.311  35.073  22.434  1.00  0.00     0.043 A 
ENDROOT
TORSDOF 0
ENDMDL
MODEL 15
REMARK VINA RESULT:      -3.9      9.677     10.692
REMARK  0 active torsions:
REMARK  status: ('A' for Active; 'I' for Inactive)
ROOT
HETATM    1  F   LIG     1      14.377  30.535  13.607  1.00  0.00    -0.206 F 
HETATM    2  C   LIG     1      14.554  30.992  14.871  1.00  0.00     0.116 A 
HETATM    3  C   LIG     1      15.646  31.814  15.172  1.00  0.00     0.043 A 
HETATM    4  C   LIG     1      15.828  32.286  16.475  1.00  0.00     0.021 A 
HETATM    5  C   LIG     1      14.918  31.938  17.480  1.00  0.00     0.006 A 
HETATM    6  I   LIG     1      15.193  32.651  19.446  1.00  0.00    -0.045 I 
HETATM    7  C   LIG     1      13.826  31.117  17.179  1.00  0.00     0.021 A 
HETATM    8  C   LIG     1      13.645  30.645  15.875  1.00  0.00     0.043 A 
ENDROOT
TORSDOF 0
ENDMDL
MODEL 16
REMARK VINA RESULT:      -3.9     10.371     11.338
REMARK  0 active torsions:
REMARK  status: ('A' for Active; 'I' for Inactive)
ROOT
HETATM    1  F   LIG     1      14.291  30.861  15.995  1.00  0.00    -0.206 F 
HETATM    2  C   LIG     1      15.211  31.537  15.262  1.00  0.00     0.116 A 
HETATM    3  C   LIG     1      15.960  32.561  15.851  1.00  0.00     0.043 A 
HETATM    4  C   LIG     1      16.908  33.258  15.096  1.00  0.00     0.021 A 
HETATM    5  C   LIG     1      17.110  32.930  13.750  1.00  0.00     0.006 A 
HETATM    6  I   LIG     1      18.541  33.981  12.611  1.00  0.00    -0.045 I 
HETATM    7  C   LIG     1      16.361  31.905  13.162  1.00  0.00     0.021 A 
HETATM    8  C   LIG     1      15.412  31.209  13.918  1.00  0.00     0.043 A 
ENDROOT
TORSDOF 0
ENDMDL
MODEL 17
REMARK VINA RESULT:      -3.9      6.563      7.433
REMARK  0 active torsions:
REMARK  status: ('A' for Active; 'I' for Inactive)
ROOT
HETATM    1  F   LIG     1      16.267  34.641  20.535  1.00  0.00    -0.206 F 
HETATM    2  C   LIG     1      15.682  33.854  19.599  1.00  0.00     0.116 A 
HETATM    3  C   LIG     1      15.486  34.338  18.301  1.00  0.00     0.043 A 
HETATM    4  C   LIG     1      14.883  33.526  17.335  1.00  0.00     0.021 A 
HETATM    5  C   LIG     1      14.475  32.228  17.666  1.00  0.00     0.006 A 
HETATM    6  I   LIG     1      13.565  31.004  16.209  1.00  0.00    -0.045 I 
HETATM    7  C   LIG     1      14.672  31.745  18.965  1.00  0.00     0.021 A 
HETATM    8  C   LIG     1      15.275  32.557  19.930  1.00  0.00     0.043 A 
ENDROOT
TORSDOF 0
ENDMDL
MODEL 18
REMARK VINA RESULT:      -3.8     10.233     11.272
REMARK  0 active torsions:
REMARK  status: ('A' for Active; 'I' for Inactive)
ROOT
HETATM    1  F   LIG     1      18.272  33.624  13.208  1.00  0.00    -0.206 F 
HETATM    2  C   LIG     1      17.251  33.042  13.884  1.00  0.00     0.116 A 
HETATM    3  C   LIG     1      16.490  32.038  13.274  1.00  0.00     0.043 A 
HETATM    4  C   LIG     1      15.437  31.437  13.972  1.00  0.00     0.021 A 
HETATM    5  C   LIG     1      15.144  31.839  15.280  1.00  0.00     0.006 A 
HETATM    6  I   LIG     1      13.555  30.932  16.331  1.00  0.00    -0.045 I 
HETATM    7  C   LIG     1      15.905  32.843  15.889  1.00  0.00     0.021 A 
HETATM    8  C   LIG     1      16.958  33.443  15.191  1.00  0.00     0.043 A 
ENDROOT
TORSDOF 0
ENDMDL
MODEL 19
REMARK VINA RESULT:      -3.6     16.866     17.688
REMARK  0 active torsions:
REMARK  status: ('A' for Active; 'I' for Inactive)
ROOT
HETATM    1  F   LIG     1      19.362  22.905  32.945  1.00  0.00    -0.206 F 
HETATM    2  C   LIG     1      20.201  22.920  34.010  1.00  0.00     0.116 A 
HETATM    3  C   LIG     1      21.472  23.492  33.891  1.00  0.00     0.043 A 
HETATM    4  C   LIG     1      22.338  23.507  34.990  1.00  0.00     0.021 A 
HETATM    5  C   LIG     1      21.932  22.951  36.209  1.00  0.00     0.006 A 
HETATM    6  I   LIG     1      23.238  22.975  37.866  1.00  0.00    -0.045 I 
HETATM    7  C   LIG     1      20.660  22.380  36.327  1.00  0.00     0.021 A 
HETATM    8  C   LIG     1      19.796  22.365  35.228  1.00  0.00     0.043 A 
ENDROOT
TORSDOF 0
ENDMDL
MODEL 20
REMARK VINA RESULT:      -3.4     15.174     15.985
REMARK  0 active torsions:
REMARK  status: ('A' for Active; 'I' for Inactive)
ROOT
HETATM    1  F   LIG     1      25.792  32.047  38.129  1.00  0.00    -0.206 F 
HETATM    2  C   LIG     1      26.606  31.712  37.098  1.00  0.00     0.116 A 
HETATM    3  C   LIG     1      26.057  31.304  35.877  1.00  0.00     0.043 A 
HETATM    4  C   LIG     1      26.896  30.958  34.813  1.00  0.00     0.021 A 
HETATM    5  C   LIG     1      28.286  31.019  34.968  1.00  0.00     0.006 A 
HETATM    6  I   LIG     1      29.552  30.498  33.363  1.00  0.00    -0.045 I 
HETATM    7  C   LIG     1      28.835  31.427  36.190  1.00  0.00     0.021 A 
HETATM    8  C   LIG     1      27.995  31.773  37.253  1.00  0.00     0.043 A 
ENDROOT
TORSDOF 0
ENDMDL
