REMARK  1 active torsions:
REMARK  status: ('A' for Active; 'I' for Inactive)
REMARK    1  A    between atoms: C_2  and  C_3 
ROOT
HETATM    1  C   LIG     1       0.716  -0.047   0.073  1.00  0.00    -0.044 A 
HETATM    2  C   LIG     1       0.108   1.218  -0.008  1.00  0.00     0.011 A 
HETATM    3  C   LIG     1      -1.278   1.335  -0.151  1.00  0.00     0.043 A 
HETATM    4  C   LIG     1      -0.098  -1.197   0.009  1.00  0.00     0.011 A 
HETATM    5  C   LIG     1      -1.484  -1.075  -0.134  1.00  0.00     0.043 A 
HETATM    6  C   LIG     1      -2.074   0.189  -0.214  1.00  0.00     0.116 A 
HETATM    7  F   LIG     1      -3.418   0.303  -0.352  1.00  0.00    -0.206 F 
ENDROOT
BRANCH   1   8
HETATM    8  C   LIG     1       2.220  -0.104   0.227  1.00  0.00     0.153 C 
HETATM    9 CL   LIG     1       2.913  -1.750   0.323  1.00  0.00    -0.126 Cl
ENDBRANCH   1   8
TORSDOF 1
