REMARK  0 active torsions:
REMARK  status: ('A' for Active; 'I' for Inactive)
ROOT
HETATM    1  F   LIG     1      -2.789   0.391   0.087  1.00  0.00    -0.206 F 
HETATM    2  C   LIG     1      -1.447   0.203   0.045  1.00  0.00     0.116 A 
HETATM    3  C   LIG     1      -0.585   1.305   0.050  1.00  0.00     0.043 A 
HETATM    4  C   LIG     1       0.799   1.111   0.007  1.00  0.00     0.021 A 
HETATM    5  C   LIG     1       1.324  -0.186  -0.041  1.00  0.00     0.006 A 
HETATM    6  I   LIG     1       3.412  -0.478  -0.106  1.00  0.00    -0.045 I 
HETATM    7  C   LIG     1       0.461  -1.288  -0.046  1.00  0.00     0.021 A 
HETATM    8  C   LIG     1      -0.923  -1.093  -0.003  1.00  0.00     0.043 A 
ENDROOT
TORSDOF 0
