MODEL 1
REMARK VINA RESULT:      -4.5      0.000      0.000
REMARK  3 active torsions:
REMARK  status: ('A' for Active; 'I' for Inactive)
REMARK    1  A    between atoms: C_2  and  C_4 
REMARK    2  A    between atoms: C_2  and  O_3 
REMARK    3  A    between atoms: C_4  and  N_5 
REMARK       I    between atoms: N_5  and  C_6 
REMARK       I    between atoms: C_6  and  N_7 
ROOT
HETATM    1  N   LIG     1      17.496  36.590  24.259  1.00  0.00    -0.215 N 
HETATM    2  C   LIG     1      17.507  37.254  25.530  1.00  0.00     0.687 C 
HETATM    3  N   LIG     1      17.754  36.501  26.719  1.00  0.00    -0.234 N 
HETATM    4  N   LIG     1      17.296  38.531  25.603  1.00  0.00    -0.118 NA
HETATM    5  H   LIG     1      17.671  35.560  24.237  1.00  0.00     0.178 HD
HETATM    6  H   LIG     1      17.925  35.472  26.668  1.00  0.00     0.174 HD
HETATM    7  H   LIG     1      17.767  36.963  27.655  1.00  0.00     0.174 HD
HETATM    8  H   LIG     1      17.298  39.037  26.515  1.00  0.00     0.206 HD
ENDROOT
BRANCH   1   9
HETATM    9  C   LIG     1      17.248  37.313  23.011  1.00  0.00     0.248 C 
BRANCH   9  10
HETATM   10  C   LIG     1      15.788  37.325  22.689  1.00  0.00     0.158 C 
HETATM   11  O   LIG     1      15.325  36.526  21.831  1.00  0.00    -0.649 OA
BRANCH  10  12
HETATM   12  O   LIG     1      14.934  38.185  23.372  1.00  0.00    -0.775 OA
HETATM   13  H   LIG     1      15.231  39.122  23.620  1.00  0.00     0.167 HD
ENDBRANCH  10  12
ENDBRANCH   9  10
ENDBRANCH   1   9
TORSDOF 3
ENDMDL
MODEL 2
REMARK VINA RESULT:      -4.5      5.626      6.477
REMARK  3 active torsions:
REMARK  status: ('A' for Active; 'I' for Inactive)
REMARK    1  A    between atoms: C_2  and  C_4 
REMARK    2  A    between atoms: C_2  and  O_3 
REMARK    3  A    between atoms: C_4  and  N_5 
REMARK       I    between atoms: N_5  and  C_6 
REMARK       I    between atoms: C_6  and  N_7 
ROOT
HETATM    1  N   LIG     1      14.763  33.440  20.569  1.00  0.00    -0.215 N 
HETATM    2  C   LIG     1      15.236  34.791  20.644  1.00  0.00     0.687 C 
HETATM    3  N   LIG     1      14.475  35.768  21.358  1.00  0.00    -0.234 N 
HETATM    4  N   LIG     1      16.347  35.128  20.068  1.00  0.00    -0.118 NA
HETATM    5  H   LIG     1      13.863  33.203  21.046  1.00  0.00     0.178 HD
HETATM    6  H   LIG     1      13.579  35.504  21.825  1.00  0.00     0.174 HD
HETATM    7  H   LIG     1      14.800  36.758  21.426  1.00  0.00     0.174 HD
HETATM    8  H   LIG     1      16.712  36.105  20.107  1.00  0.00     0.206 HD
ENDROOT
BRANCH   1   9
HETATM    9  C   LIG     1      15.502  32.400  19.852  1.00  0.00     0.248 C 
BRANCH   9  10
HETATM   10  C   LIG     1      14.985  32.254  18.456  1.00  0.00     0.158 C 
HETATM   11  O   LIG     1      15.664  32.679  17.483  1.00  0.00    -0.649 OA
BRANCH  10  12
HETATM   12  O   LIG     1      13.775  31.605  18.230  1.00  0.00    -0.775 OA
HETATM   13  H   LIG     1      13.579  30.708  18.660  1.00  0.00     0.167 HD
ENDBRANCH  10  12
ENDBRANCH   9  10
ENDBRANCH   1   9
TORSDOF 3
ENDMDL
MODEL 3
REMARK VINA RESULT:      -4.4      3.224      4.327
REMARK  3 active torsions:
REMARK  status: ('A' for Active; 'I' for Inactive)
REMARK    1  A    between atoms: C_2  and  C_4 
REMARK    2  A    between atoms: C_2  and  O_3 
REMARK    3  A    between atoms: C_4  and  N_5 
REMARK       I    between atoms: N_5  and  C_6 
REMARK       I    between atoms: C_6  and  N_7 
ROOT
HETATM    1  N   LIG     1      16.767  35.806  21.280  1.00  0.00    -0.215 N 
HETATM    2  C   LIG     1      15.552  35.408  20.633  1.00  0.00     0.687 C 
HETATM    3  N   LIG     1      15.597  34.882  19.304  1.00  0.00    -0.234 N 
HETATM    4  N   LIG     1      14.416  35.523  21.247  1.00  0.00    -0.118 NA
HETATM    5  H   LIG     1      17.666  35.699  20.756  1.00  0.00     0.178 HD
HETATM    6  H   LIG     1      16.508  34.787  18.804  1.00  0.00     0.174 HD
HETATM    7  H   LIG     1      14.724  34.586  18.814  1.00  0.00     0.174 HD
HETATM    8  H   LIG     1      13.517  35.241  20.797  1.00  0.00     0.206 HD
ENDROOT
BRANCH   1   9
HETATM    9  C   LIG     1      16.778  36.350  22.638  1.00  0.00     0.248 C 
BRANCH   9  10
HETATM   10  C   LIG     1      16.358  37.786  22.635  1.00  0.00     0.158 C 
HETATM   11  O   LIG     1      17.142  38.672  22.201  1.00  0.00    -0.649 OA
BRANCH  10  12
HETATM   12  O   LIG     1      15.083  38.136  23.067  1.00  0.00    -0.775 OA
HETATM   13  H   LIG     1      14.719  39.069  22.908  1.00  0.00     0.167 HD
ENDBRANCH  10  12
ENDBRANCH   9  10
ENDBRANCH   1   9
TORSDOF 3
ENDMDL
MODEL 4
REMARK VINA RESULT:      -4.4      6.803      7.954
REMARK  3 active torsions:
REMARK  status: ('A' for Active; 'I' for Inactive)
REMARK    1  A    between atoms: C_2  and  C_4 
REMARK    2  A    between atoms: C_2  and  O_3 
REMARK    3  A    between atoms: C_4  and  N_5 
REMARK       I    between atoms: N_5  and  C_6 
REMARK       I    between atoms: C_6  and  N_7 
ROOT
HETATM    1  N   LIG     1      14.199  31.789  19.117  1.00  0.00    -0.215 N 
HETATM    2  C   LIG     1      14.065  32.047  17.713  1.00  0.00     0.687 C 
HETATM    3  N   LIG     1      12.861  31.676  17.037  1.00  0.00    -0.234 N 
HETATM    4  N   LIG     1      15.028  32.614  17.057  1.00  0.00    -0.118 NA
HETATM    5  H   LIG     1      13.401  31.331  19.615  1.00  0.00     0.178 HD
HETATM    6  H   LIG     1      12.080  31.219  17.559  1.00  0.00     0.174 HD
HETATM    7  H   LIG     1      12.741  31.854  16.015  1.00  0.00     0.174 HD
HETATM    8  H   LIG     1      14.955  32.811  16.034  1.00  0.00     0.206 HD
ENDROOT
BRANCH   1   9
HETATM    9  C   LIG     1      15.409  32.148  19.857  1.00  0.00     0.248 C 
BRANCH   9  10
HETATM   10  C   LIG     1      15.346  33.571  20.313  1.00  0.00     0.158 C 
HETATM   11  O   LIG     1      15.978  34.463  19.686  1.00  0.00    -0.649 OA
BRANCH  10  12
HETATM   12  O   LIG     1      14.550  33.916  21.401  1.00  0.00    -0.775 OA
HETATM   13  H   LIG     1      14.568  34.856  21.780  1.00  0.00     0.167 HD
ENDBRANCH  10  12
ENDBRANCH   9  10
ENDBRANCH   1   9
TORSDOF 3
ENDMDL
MODEL 5
REMARK VINA RESULT:      -4.4      2.929      3.869
REMARK  3 active torsions:
REMARK  status: ('A' for Active; 'I' for Inactive)
REMARK    1  A    between atoms: C_2  and  C_4 
REMARK    2  A    between atoms: C_2  and  O_3 
REMARK    3  A    between atoms: C_4  and  N_5 
REMARK       I    between atoms: N_5  and  C_6 
REMARK       I    between atoms: C_6  and  N_7 
ROOT
HETATM    1  N   LIG     1      17.654  37.924  21.303  1.00  0.00    -0.215 N 
HETATM    2  C   LIG     1      18.639  38.964  21.247  1.00  0.00     0.687 C 
HETATM    3  N   LIG     1      18.906  39.620  20.005  1.00  0.00    -0.234 N 
HETATM    4  N   LIG     1      19.284  39.311  22.317  1.00  0.00    -0.118 NA
HETATM    5  H   LIG     1      17.151  37.670  20.421  1.00  0.00     0.178 HD
HETATM    6  H   LIG     1      18.390  39.346  19.140  1.00  0.00     0.174 HD
HETATM    7  H   LIG     1      19.619  40.380  19.942  1.00  0.00     0.174 HD
HETATM    8  H   LIG     1      20.006  40.065  22.302  1.00  0.00     0.206 HD
ENDROOT
BRANCH   1   9
HETATM    9  C   LIG     1      17.341  37.221  22.547  1.00  0.00     0.248 C 
BRANCH   9  10
HETATM   10  C   LIG     1      16.411  38.032  23.392  1.00  0.00     0.158 C 
HETATM   11  O   LIG     1      16.855  38.670  24.384  1.00  0.00    -0.649 OA
BRANCH  10  12
HETATM   12  O   LIG     1      15.064  38.120  23.053  1.00  0.00    -0.775 OA
HETATM   13  H   LIG     1      14.355  38.228  23.769  1.00  0.00     0.167 HD
ENDBRANCH  10  12
ENDBRANCH   9  10
ENDBRANCH   1   9
TORSDOF 3
ENDMDL
MODEL 6
REMARK VINA RESULT:      -4.3      7.977      8.425
REMARK  3 active torsions:
REMARK  status: ('A' for Active; 'I' for Inactive)
REMARK    1  A    between atoms: C_2  and  C_4 
REMARK    2  A    between atoms: C_2  and  O_3 
REMARK    3  A    between atoms: C_4  and  N_5 
REMARK       I    between atoms: N_5  and  C_6 
REMARK       I    between atoms: C_6  and  N_7 
ROOT
HETATM    1  N   LIG     1      15.682  32.232  17.907  1.00  0.00    -0.215 N 
HETATM    2  C   LIG     1      14.449  31.820  18.512  1.00  0.00     0.687 C 
HETATM    3  N   LIG     1      14.431  31.433  19.888  1.00  0.00    -0.234 N 
HETATM    4  N   LIG     1      13.356  31.797  17.817  1.00  0.00    -0.118 NA
HETATM    5  H   LIG     1      16.546  32.239  18.498  1.00  0.00     0.178 HD
HETATM    6  H   LIG     1      15.308  31.449  20.454  1.00  0.00     0.174 HD
HETATM    7  H   LIG     1      13.545  31.129  20.349  1.00  0.00     0.174 HD
HETATM    8  H   LIG     1      12.446  31.501  18.234  1.00  0.00     0.206 HD
ENDROOT
BRANCH   1   9
HETATM    9  C   LIG     1      15.758  32.638  16.504  1.00  0.00     0.248 C 
BRANCH   9  10
HETATM   10  C   LIG     1      15.602  34.120  16.374  1.00  0.00     0.158 C 
HETATM   11  O   LIG     1      16.514  34.806  15.840  1.00  0.00    -0.649 OA
BRANCH  10  12
HETATM   12  O   LIG     1      14.428  34.733  16.801  1.00  0.00    -0.775 OA
HETATM   13  H   LIG     1      14.185  35.665  16.484  1.00  0.00     0.167 HD
ENDBRANCH  10  12
ENDBRANCH   9  10
ENDBRANCH   1   9
TORSDOF 3
ENDMDL
MODEL 7
REMARK VINA RESULT:      -4.2      3.290      3.904
REMARK  3 active torsions:
REMARK  status: ('A' for Active; 'I' for Inactive)
REMARK    1  A    between atoms: C_2  and  C_4 
REMARK    2  A    between atoms: C_2  and  O_3 
REMARK    3  A    between atoms: C_4  and  N_5 
REMARK       I    between atoms: N_5  and  C_6 
REMARK       I    between atoms: C_6  and  N_7 
ROOT
HETATM    1  N   LIG     1      17.204  39.074  22.296  1.00  0.00    -0.215 N 
HETATM    2  C   LIG     1      16.516  38.049  23.025  1.00  0.00     0.687 C 
HETATM    3  N   LIG     1      15.090  38.084  23.120  1.00  0.00    -0.234 N 
HETATM    4  N   LIG     1      17.181  37.094  23.596  1.00  0.00    -0.118 NA
HETATM    5  H   LIG     1      16.636  39.829  21.848  1.00  0.00     0.178 HD
HETATM    6  H   LIG     1      14.548  38.850  22.663  1.00  0.00     0.174 HD
HETATM    7  H   LIG     1      14.568  37.348  23.646  1.00  0.00     0.174 HD
HETATM    8  H   LIG     1      16.704  36.337  24.133  1.00  0.00     0.206 HD
ENDROOT
BRANCH   1   9
HETATM    9  C   LIG     1      18.661  39.086  22.167  1.00  0.00     0.248 C 
BRANCH   9  10
HETATM   10  C   LIG     1      19.069  38.777  20.761  1.00  0.00     0.158 C 
HETATM   11  O   LIG     1      18.621  37.750  20.186  1.00  0.00    -0.649 OA
BRANCH  10  12
HETATM   12  O   LIG     1      19.907  39.651  20.075  1.00  0.00    -0.775 OA
HETATM   13  H   LIG     1      20.556  39.306  19.377  1.00  0.00     0.167 HD
ENDBRANCH  10  12
ENDBRANCH   9  10
ENDBRANCH   1   9
TORSDOF 3
ENDMDL
MODEL 8
REMARK VINA RESULT:      -4.1      8.083      9.209
REMARK  3 active torsions:
REMARK  status: ('A' for Active; 'I' for Inactive)
REMARK    1  A    between atoms: C_2  and  C_4 
REMARK    2  A    between atoms: C_2  and  O_3 
REMARK    3  A    between atoms: C_4  and  N_5 
REMARK       I    between atoms: N_5  and  C_6 
REMARK       I    between atoms: C_6  and  N_7 
ROOT
HETATM    1  N   LIG     1      15.620  32.858  17.185  1.00  0.00    -0.215 N 
HETATM    2  C   LIG     1      14.920  32.473  18.376  1.00  0.00     0.687 C 
HETATM    3  N   LIG     1      15.237  33.105  19.618  1.00  0.00    -0.234 N 
HETATM    4  N   LIG     1      14.003  31.558  18.329  1.00  0.00    -0.118 NA
HETATM    5  H   LIG     1      16.353  33.600  17.259  1.00  0.00     0.178 HD
HETATM    6  H   LIG     1      15.974  33.844  19.663  1.00  0.00     0.174 HD
HETATM    7  H   LIG     1      14.740  32.842  20.498  1.00  0.00     0.174 HD
HETATM    8  H   LIG     1      13.480  31.260  19.182  1.00  0.00     0.206 HD
ENDROOT
BRANCH   1   9
HETATM    9  C   LIG     1      15.335  32.243  15.888  1.00  0.00     0.248 C 
BRANCH   9  10
HETATM   10  C   LIG     1      16.446  32.511  14.922  1.00  0.00     0.158 C 
HETATM   11  O   LIG     1      16.184  32.886  13.748  1.00  0.00    -0.649 OA
BRANCH  10  12
HETATM   12  O   LIG     1      17.768  32.391  15.337  1.00  0.00    -0.775 OA
HETATM   13  H   LIG     1      18.370  33.205  15.395  1.00  0.00     0.167 HD
ENDBRANCH  10  12
ENDBRANCH   9  10
ENDBRANCH   1   9
TORSDOF 3
ENDMDL
MODEL 9
REMARK VINA RESULT:      -4.1      8.592      9.474
REMARK  3 active torsions:
REMARK  status: ('A' for Active; 'I' for Inactive)
REMARK    1  A    between atoms: C_2  and  C_4 
REMARK    2  A    between atoms: C_2  and  O_3 
REMARK    3  A    between atoms: C_4  and  N_5 
REMARK       I    between atoms: N_5  and  C_6 
REMARK       I    between atoms: C_6  and  N_7 
ROOT
HETATM    1  N   LIG     1      14.676  31.807  16.047  1.00  0.00    -0.215 N 
HETATM    2  C   LIG     1      13.695  31.444  17.027  1.00  0.00     0.687 C 
HETATM    3  N   LIG     1      12.513  30.750  16.620  1.00  0.00    -0.234 N 
HETATM    4  N   LIG     1      13.875  31.741  18.276  1.00  0.00    -0.118 NA
HETATM    5  H   LIG     1      14.499  31.551  15.049  1.00  0.00     0.178 HD
HETATM    6  H   LIG     1      12.361  30.507  15.617  1.00  0.00     0.174 HD
HETATM    7  H   LIG     1      11.785  30.475  17.317  1.00  0.00     0.174 HD
HETATM    8  H   LIG     1      13.175  31.488  19.008  1.00  0.00     0.206 HD
ENDROOT
BRANCH   1   9
HETATM    9  C   LIG     1      15.903  32.518  16.409  1.00  0.00     0.248 C 
BRANCH   9  10
HETATM   10  C   LIG     1      15.716  33.996  16.272  1.00  0.00     0.158 C 
HETATM   11  O   LIG     1      14.692  34.550  16.755  1.00  0.00    -0.649 OA
BRANCH  10  12
HETATM   12  O   LIG     1      16.697  34.764  15.652  1.00  0.00    -0.775 OA
HETATM   13  H   LIG     1      16.460  35.636  15.193  1.00  0.00     0.167 HD
ENDBRANCH  10  12
ENDBRANCH   9  10
ENDBRANCH   1   9
TORSDOF 3
ENDMDL
MODEL 10
REMARK VINA RESULT:      -4.1     10.448     11.746
REMARK  3 active torsions:
REMARK  status: ('A' for Active; 'I' for Inactive)
REMARK    1  A    between atoms: C_2  and  C_4 
REMARK    2  A    between atoms: C_2  and  O_3 
REMARK    3  A    between atoms: C_4  and  N_5 
REMARK       I    between atoms: N_5  and  C_6 
REMARK       I    between atoms: C_6  and  N_7 
ROOT
HETATM    1  N   LIG     1      14.255  30.386  15.214  1.00  0.00    -0.215 N 
HETATM    2  C   LIG     1      14.003  29.387  14.216  1.00  0.00     0.687 C 
HETATM    3  N   LIG     1      15.064  28.960  13.359  1.00  0.00    -0.234 N 
HETATM    4  N   LIG     1      12.820  28.873  14.091  1.00  0.00    -0.118 NA
HETATM    5  H   LIG     1      15.222  30.779  15.288  1.00  0.00     0.178 HD
HETATM    6  H   LIG     1      16.019  29.370  13.454  1.00  0.00     0.174 HD
HETATM    7  H   LIG     1      14.903  28.234  12.626  1.00  0.00     0.174 HD
HETATM    8  H   LIG     1      12.611  28.145  13.372  1.00  0.00     0.206 HD
ENDROOT
BRANCH   1   9
HETATM    9  C   LIG     1      13.207  30.859  16.117  1.00  0.00     0.248 C 
BRANCH   9  10
HETATM   10  C   LIG     1      13.782  31.750  17.172  1.00  0.00     0.158 C 
HETATM   11  O   LIG     1      14.146  32.921  16.879  1.00  0.00    -0.649 OA
BRANCH  10  12
HETATM   12  O   LIG     1      13.869  31.302  18.486  1.00  0.00    -0.775 OA
HETATM   13  H   LIG     1      13.051  30.952  18.971  1.00  0.00     0.167 HD
ENDBRANCH  10  12
ENDBRANCH   9  10
ENDBRANCH   1   9
TORSDOF 3
ENDMDL
MODEL 11
REMARK VINA RESULT:      -4.1      9.361     10.289
REMARK  3 active torsions:
REMARK  status: ('A' for Active; 'I' for Inactive)
REMARK    1  A    between atoms: C_2  and  C_4 
REMARK    2  A    between atoms: C_2  and  O_3 
REMARK    3  A    between atoms: C_4  and  N_5 
REMARK       I    between atoms: N_5  and  C_6 
REMARK       I    between atoms: C_6  and  N_7 
ROOT
HETATM    1  N   LIG     1      15.421  32.456  16.004  1.00  0.00    -0.215 N 
HETATM    2  C   LIG     1      15.460  33.837  16.389  1.00  0.00     0.687 C 
HETATM    3  N   LIG     1      14.443  34.362  17.244  1.00  0.00    -0.234 N 
HETATM    4  N   LIG     1      16.414  34.607  15.966  1.00  0.00    -0.118 NA
HETATM    5  H   LIG     1      14.638  31.864  16.364  1.00  0.00     0.178 HD
HETATM    6  H   LIG     1      13.672  33.748  17.589  1.00  0.00     0.174 HD
HETATM    7  H   LIG     1      14.452  35.364  17.538  1.00  0.00     0.174 HD
HETATM    8  H   LIG     1      16.464  35.615  16.232  1.00  0.00     0.206 HD
ENDROOT
BRANCH   1   9
HETATM    9  C   LIG     1      16.436  31.867  15.131  1.00  0.00     0.248 C 
BRANCH   9  10
HETATM   10  C   LIG     1      16.014  31.953  13.698  1.00  0.00     0.158 C 
HETATM   11  O   LIG     1      15.411  30.986  13.159  1.00  0.00    -0.649 OA
BRANCH  10  12
HETATM   12  O   LIG     1      16.245  33.119  12.975  1.00  0.00    -0.775 OA
HETATM   13  H   LIG     1      15.515  33.812  12.862  1.00  0.00     0.167 HD
ENDBRANCH  10  12
ENDBRANCH   9  10
ENDBRANCH   1   9
TORSDOF 3
ENDMDL
MODEL 12
REMARK VINA RESULT:      -4.0      3.008      3.901
REMARK  3 active torsions:
REMARK  status: ('A' for Active; 'I' for Inactive)
REMARK    1  A    between atoms: C_2  and  C_4 
REMARK    2  A    between atoms: C_2  and  O_3 
REMARK    3  A    between atoms: C_4  and  N_5 
REMARK       I    between atoms: N_5  and  C_6 
REMARK       I    between atoms: C_6  and  N_7 
ROOT
HETATM    1  N   LIG     1      17.546  38.674  23.593  1.00  0.00    -0.215 N 
HETATM    2  C   LIG     1      17.959  38.604  22.221  1.00  0.00     0.687 C 
HETATM    3  N   LIG     1      18.730  39.668  21.660  1.00  0.00    -0.234 N 
HETATM    4  N   LIG     1      17.635  37.582  21.492  1.00  0.00    -0.118 NA
HETATM    5  H   LIG     1      17.825  39.512  24.152  1.00  0.00     0.178 HD
HETATM    6  H   LIG     1      18.995  40.494  22.241  1.00  0.00     0.174 HD
HETATM    7  H   LIG     1      19.042  39.638  20.663  1.00  0.00     0.174 HD
HETATM    8  H   LIG     1      17.922  37.508  20.491  1.00  0.00     0.206 HD
ENDROOT
BRANCH   1   9
HETATM    9  C   LIG     1      16.755  37.613  24.217  1.00  0.00     0.248 C 
BRANCH   9  10
HETATM   10  C   LIG     1      17.592  36.826  25.175  1.00  0.00     0.158 C 
HETATM   11  O   LIG     1      17.340  35.608  25.379  1.00  0.00    -0.649 OA
BRANCH  10  12
HETATM   12  O   LIG     1      18.677  37.428  25.804  1.00  0.00    -0.775 OA
HETATM   13  H   LIG     1      18.960  37.144  26.736  1.00  0.00     0.167 HD
ENDBRANCH  10  12
ENDBRANCH   9  10
ENDBRANCH   1   9
TORSDOF 3
ENDMDL
MODEL 13
REMARK VINA RESULT:      -4.0      4.838      6.076
REMARK  3 active torsions:
REMARK  status: ('A' for Active; 'I' for Inactive)
REMARK    1  A    between atoms: C_2  and  C_4 
REMARK    2  A    between atoms: C_2  and  O_3 
REMARK    3  A    between atoms: C_4  and  N_5 
REMARK       I    between atoms: N_5  and  C_6 
REMARK       I    between atoms: C_6  and  N_7 
ROOT
HETATM    1  N   LIG     1      15.491  33.461  20.509  1.00  0.00    -0.215 N 
HETATM    2  C   LIG     1      15.056  33.032  19.212  1.00  0.00     0.687 C 
HETATM    3  N   LIG     1      14.273  31.843  19.086  1.00  0.00    -0.234 N 
HETATM    4  N   LIG     1      15.370  33.717  18.157  1.00  0.00    -0.118 NA
HETATM    5  H   LIG     1      15.220  32.885  21.338  1.00  0.00     0.178 HD
HETATM    6  H   LIG     1      14.017  31.286  19.931  1.00  0.00     0.174 HD
HETATM    7  H   LIG     1      13.945  31.511  18.152  1.00  0.00     0.174 HD
HETATM    8  H   LIG     1      15.066  33.425  17.202  1.00  0.00     0.206 HD
ENDROOT
BRANCH   1   9
HETATM    9  C   LIG     1      16.294  34.670  20.695  1.00  0.00     0.248 C 
BRANCH   9  10
HETATM   10  C   LIG     1      15.497  35.732  21.383  1.00  0.00     0.158 C 
HETATM   11  O   LIG     1      16.082  36.626  22.052  1.00  0.00    -0.649 OA
BRANCH  10  12
HETATM   12  O   LIG     1      14.113  35.759  21.244  1.00  0.00    -0.775 OA
HETATM   13  H   LIG     1      13.683  36.096  20.390  1.00  0.00     0.167 HD
ENDBRANCH  10  12
ENDBRANCH   9  10
ENDBRANCH   1   9
TORSDOF 3
ENDMDL
MODEL 14
REMARK VINA RESULT:      -4.0      9.494     10.669
REMARK  3 active torsions:
REMARK  status: ('A' for Active; 'I' for Inactive)
REMARK    1  A    between atoms: C_2  and  C_4 
REMARK    2  A    between atoms: C_2  and  O_3 
REMARK    3  A    between atoms: C_4  and  N_5 
REMARK       I    between atoms: N_5  and  C_6 
REMARK       I    between atoms: C_6  and  N_7 
ROOT
HETATM    1  N   LIG     1      15.082  32.089  15.924  1.00  0.00    -0.215 N 
HETATM    2  C   LIG     1      14.583  32.548  17.187  1.00  0.00     0.687 C 
HETATM    3  N   LIG     1      15.158  33.706  17.797  1.00  0.00    -0.234 N 
HETATM    4  N   LIG     1      13.614  31.918  17.775  1.00  0.00    -0.118 NA
HETATM    5  H   LIG     1      15.864  32.622  15.478  1.00  0.00     0.178 HD
HETATM    6  H   LIG     1      15.938  34.218  17.329  1.00  0.00     0.174 HD
HETATM    7  H   LIG     1      14.809  34.058  18.717  1.00  0.00     0.174 HD
HETATM    8  H   LIG     1      13.233  32.231  18.695  1.00  0.00     0.206 HD
ENDROOT
BRANCH   1   9
HETATM    9  C   LIG     1      14.531  30.910  15.256  1.00  0.00     0.248 C 
BRANCH   9  10
HETATM   10  C   LIG     1      15.288  30.612  14.001  1.00  0.00     0.158 C 
HETATM   11  O   LIG     1      16.148  31.429  13.574  1.00  0.00    -0.649 OA
BRANCH  10  12
HETATM   12  O   LIG     1      15.077  29.410  13.332  1.00  0.00    -0.775 OA
HETATM   13  H   LIG     1      15.031  28.535  13.841  1.00  0.00     0.167 HD
ENDBRANCH  10  12
ENDBRANCH   9  10
ENDBRANCH   1   9
TORSDOF 3
ENDMDL
MODEL 15
REMARK VINA RESULT:      -4.0      8.792      9.696
REMARK  3 active torsions:
REMARK  status: ('A' for Active; 'I' for Inactive)
REMARK    1  A    between atoms: C_2  and  C_4 
REMARK    2  A    between atoms: C_2  and  O_3 
REMARK    3  A    between atoms: C_4  and  N_5 
REMARK       I    between atoms: N_5  and  C_6 
REMARK       I    between atoms: C_6  and  N_7 
ROOT
HETATM    1  N   LIG     1      15.902  32.988  16.614  1.00  0.00    -0.215 N 
HETATM    2  C   LIG     1      16.518  32.751  15.341  1.00  0.00     0.687 C 
HETATM    3  N   LIG     1      17.942  32.802  15.223  1.00  0.00    -0.234 N 
HETATM    4  N   LIG     1      15.790  32.491  14.300  1.00  0.00    -0.118 NA
HETATM    5  H   LIG     1      16.520  33.195  17.432  1.00  0.00     0.178 HD
HETATM    6  H   LIG     1      18.535  33.011  16.057  1.00  0.00     0.174 HD
HETATM    7  H   LIG     1      18.412  32.633  14.306  1.00  0.00     0.174 HD
HETATM    8  H   LIG     1      16.214  32.315  13.363  1.00  0.00     0.206 HD
ENDROOT
BRANCH   1   9
HETATM    9  C   LIG     1      14.450  32.948  16.790  1.00  0.00     0.248 C 
BRANCH   9  10
HETATM   10  C   LIG     1      14.058  31.808  17.675  1.00  0.00     0.158 C 
HETATM   11  O   LIG     1      13.670  30.721  17.169  1.00  0.00    -0.649 OA
BRANCH  10  12
HETATM   12  O   LIG     1      14.167  31.933  19.057  1.00  0.00    -0.775 OA
HETATM   13  H   LIG     1      13.539  32.536  19.574  1.00  0.00     0.167 HD
ENDBRANCH  10  12
ENDBRANCH   9  10
ENDBRANCH   1   9
TORSDOF 3
ENDMDL
MODEL 16
REMARK VINA RESULT:      -4.0      8.335      9.417
REMARK  3 active torsions:
REMARK  status: ('A' for Active; 'I' for Inactive)
REMARK    1  A    between atoms: C_2  and  C_4 
REMARK    2  A    between atoms: C_2  and  O_3 
REMARK    3  A    between atoms: C_4  and  N_5 
REMARK       I    between atoms: N_5  and  C_6 
REMARK       I    between atoms: C_6  and  N_7 
ROOT
HETATM    1  N   LIG     1      14.478  31.577  16.982  1.00  0.00    -0.215 N 
HETATM    2  C   LIG     1      13.097  31.401  16.637  1.00  0.00     0.687 C 
HETATM    3  N   LIG     1      12.699  30.266  15.866  1.00  0.00    -0.234 N 
HETATM    4  N   LIG     1      12.212  32.267  17.022  1.00  0.00    -0.118 NA
HETATM    5  H   LIG     1      15.165  30.860  16.655  1.00  0.00     0.178 HD
HETATM    6  H   LIG     1      13.407  29.565  15.552  1.00  0.00     0.174 HD
HETATM    7  H   LIG     1      11.699  30.117  15.604  1.00  0.00     0.174 HD
HETATM    8  H   LIG     1      11.201  32.161  16.784  1.00  0.00     0.206 HD
ENDROOT
BRANCH   1   9
HETATM    9  C   LIG     1      14.939  32.721  17.769  1.00  0.00     0.248 C 
BRANCH   9  10
HETATM   10  C   LIG     1      15.107  32.339  19.205  1.00  0.00     0.158 C 
HETATM   11  O   LIG     1      15.938  32.952  19.928  1.00  0.00    -0.649 OA
BRANCH  10  12
HETATM   12  O   LIG     1      14.311  31.339  19.755  1.00  0.00    -0.775 OA
HETATM   13  H   LIG     1      14.713  30.453  20.039  1.00  0.00     0.167 HD
ENDBRANCH  10  12
ENDBRANCH   9  10
ENDBRANCH   1   9
TORSDOF 3
ENDMDL
MODEL 17
REMARK VINA RESULT:      -3.9      9.489     10.343
REMARK  3 active torsions:
REMARK  status: ('A' for Active; 'I' for Inactive)
REMARK    1  A    between atoms: C_2  and  C_4 
REMARK    2  A    between atoms: C_2  and  O_3 
REMARK    3  A    between atoms: C_4  and  N_5 
REMARK       I    between atoms: N_5  and  C_6 
REMARK       I    between atoms: C_6  and  N_7 
ROOT
HETATM    1  N   LIG     1      15.009  31.846  15.983  1.00  0.00    -0.215 N 
HETATM    2  C   LIG     1      14.184  32.580  16.897  1.00  0.00     0.687 C 
HETATM    3  N   LIG     1      12.979  31.992  17.392  1.00  0.00    -0.234 N 
HETATM    4  N   LIG     1      14.527  33.772  17.275  1.00  0.00    -0.118 NA
HETATM    5  H   LIG     1      14.702  30.887  15.700  1.00  0.00     0.178 HD
HETATM    6  H   LIG     1      12.696  31.033  17.092  1.00  0.00     0.174 HD
HETATM    7  H   LIG     1      12.363  32.509  18.058  1.00  0.00     0.174 HD
HETATM    8  H   LIG     1      13.943  34.327  17.938  1.00  0.00     0.206 HD
ENDROOT
BRANCH   1   9
HETATM    9  C   LIG     1      16.252  32.400  15.446  1.00  0.00     0.248 C 
BRANCH   9  10
HETATM   10  C   LIG     1      16.264  32.318  13.952  1.00  0.00     0.158 C 
HETATM   11  O   LIG     1      16.510  33.346  13.266  1.00  0.00    -0.649 OA
BRANCH  10  12
HETATM   12  O   LIG     1      16.050  31.095  13.324  1.00  0.00    -0.775 OA
HETATM   13  H   LIG     1      15.207  30.928  12.787  1.00  0.00     0.167 HD
ENDBRANCH  10  12
ENDBRANCH   9  10
ENDBRANCH   1   9
TORSDOF 3
ENDMDL
MODEL 18
REMARK VINA RESULT:      -3.8     11.055     12.303
REMARK  3 active torsions:
REMARK  status: ('A' for Active; 'I' for Inactive)
REMARK    1  A    between atoms: C_2  and  C_4 
REMARK    2  A    between atoms: C_2  and  O_3 
REMARK    3  A    between atoms: C_4  and  N_5 
REMARK       I    between atoms: N_5  and  C_6 
REMARK       I    between atoms: C_6  and  N_7 
ROOT
HETATM    1  N   LIG     1      14.684  29.941  14.823  1.00  0.00    -0.215 N 
HETATM    2  C   LIG     1      13.945  28.936  14.116  1.00  0.00     0.687 C 
HETATM    3  N   LIG     1      14.627  27.794  13.593  1.00  0.00    -0.234 N 
HETATM    4  N   LIG     1      12.665  29.060  13.952  1.00  0.00    -0.118 NA
HETATM    5  H   LIG     1      15.715  29.809  14.938  1.00  0.00     0.178 HD
HETATM    6  H   LIG     1      15.657  27.687  13.722  1.00  0.00     0.174 HD
HETATM    7  H   LIG     1      14.109  27.049  13.075  1.00  0.00     0.174 HD
HETATM    8  H   LIG     1      12.105  28.342  13.440  1.00  0.00     0.206 HD
ENDROOT
BRANCH   1   9
HETATM    9  C   LIG     1      14.036  31.130  15.379  1.00  0.00     0.248 C 
BRANCH   9  10
HETATM   10  C   LIG     1      13.412  30.820  16.702  1.00  0.00     0.158 C 
HETATM   11  O   LIG     1      14.004  31.139  17.769  1.00  0.00    -0.649 OA
BRANCH  10  12
HETATM   12  O   LIG     1      12.156  30.223  16.754  1.00  0.00    -0.775 OA
HETATM   13  H   LIG     1      11.454  30.431  16.054  1.00  0.00     0.167 HD
ENDBRANCH  10  12
ENDBRANCH   9  10
ENDBRANCH   1   9
TORSDOF 3
ENDMDL
MODEL 19
REMARK VINA RESULT:      -3.8      5.477      6.150
REMARK  3 active torsions:
REMARK  status: ('A' for Active; 'I' for Inactive)
REMARK    1  A    between atoms: C_2  and  C_4 
REMARK    2  A    between atoms: C_2  and  O_3 
REMARK    3  A    between atoms: C_4  and  N_5 
REMARK       I    between atoms: N_5  and  C_6 
REMARK       I    between atoms: C_6  and  N_7 
ROOT
HETATM    1  N   LIG     1      18.803  38.180  19.132  1.00  0.00    -0.215 N 
HETATM    2  C   LIG     1      18.595  38.523  20.508  1.00  0.00     0.687 C 
HETATM    3  N   LIG     1      17.864  37.634  21.356  1.00  0.00    -0.234 N 
HETATM    4  N   LIG     1      19.065  39.634  20.984  1.00  0.00    -0.118 NA
HETATM    5  H   LIG     1      18.409  37.277  18.781  1.00  0.00     0.178 HD
HETATM    6  H   LIG     1      17.482  36.739  20.980  1.00  0.00     0.174 HD
HETATM    7  H   LIG     1      17.700  37.864  22.362  1.00  0.00     0.174 HD
HETATM    8  H   LIG     1      18.927  39.906  21.982  1.00  0.00     0.206 HD
ENDROOT
BRANCH   1   9
HETATM    9  C   LIG     1      19.543  39.053  18.220  1.00  0.00     0.248 C 
BRANCH   9  10
HETATM   10  C   LIG     1      18.641  39.587  17.152  1.00  0.00     0.158 C 
HETATM   11  O   LIG     1      18.098  40.716  17.291  1.00  0.00    -0.649 OA
BRANCH  10  12
HETATM   12  O   LIG     1      18.440  38.856  15.986  1.00  0.00    -0.775 OA
HETATM   13  H   LIG     1      19.191  38.727  15.318  1.00  0.00     0.167 HD
ENDBRANCH  10  12
ENDBRANCH   9  10
ENDBRANCH   1   9
TORSDOF 3
ENDMDL
MODEL 20
REMARK VINA RESULT:      -3.8     11.693     12.748
REMARK  3 active torsions:
REMARK  status: ('A' for Active; 'I' for Inactive)
REMARK    1  A    between atoms: C_2  and  C_4 
REMARK    2  A    between atoms: C_2  and  O_3 
REMARK    3  A    between atoms: C_4  and  N_5 
REMARK       I    between atoms: N_5  and  C_6 
REMARK       I    between atoms: C_6  and  N_7 
ROOT
HETATM    1  N   LIG     1      15.326  29.705  14.232  1.00  0.00    -0.215 N 
HETATM    2  C   LIG     1      14.290  28.765  13.916  1.00  0.00     0.687 C 
HETATM    3  N   LIG     1      14.632  27.506  13.332  1.00  0.00    -0.234 N 
HETATM    4  N   LIG     1      13.050  29.053  14.157  1.00  0.00    -0.118 NA
HETATM    5  H   LIG     1      16.316  29.440  14.024  1.00  0.00     0.178 HD
HETATM    6  H   LIG     1      15.629  27.267  13.134  1.00  0.00     0.174 HD
HETATM    7  H   LIG     1      13.895  26.806  13.093  1.00  0.00     0.174 HD
HETATM    8  H   LIG     1      12.278  28.386  13.936  1.00  0.00     0.206 HD
ENDROOT
BRANCH   1   9
HETATM    9  C   LIG     1      15.032  31.007  14.830  1.00  0.00     0.248 C 
BRANCH   9  10
HETATM   10  C   LIG     1      15.903  32.069  14.237  1.00  0.00     0.158 C 
HETATM   11  O   LIG     1      16.111  33.140  14.868  1.00  0.00    -0.649 OA
BRANCH  10  12
HETATM   12  O   LIG     1      16.521  31.853  13.009  1.00  0.00    -0.775 OA
HETATM   13  H   LIG     1      16.631  30.914  12.642  1.00  0.00     0.167 HD
ENDBRANCH  10  12
ENDBRANCH   9  10
ENDBRANCH   1   9
TORSDOF 3
ENDMDL
