MODEL 1
REMARK VINA RESULT:      -6.2      0.000      0.000
REMARK  1 active torsions:
REMARK  status: ('A' for Active; 'I' for Inactive)
REMARK    1  A    between atoms: C_2  and  C_3 
ROOT
HETATM    1  C   LIG     1      17.633  37.350  21.260  1.00  0.00    -0.044 A 
HETATM    2  C   LIG     1      18.255  36.655  20.208  1.00  0.00     0.011 A 
HETATM    3  C   LIG     1      19.286  37.248  19.473  1.00  0.00     0.043 A 
HETATM    4  C   LIG     1      18.068  38.657  21.561  1.00  0.00     0.011 A 
HETATM    5  C   LIG     1      19.100  39.246  20.823  1.00  0.00     0.043 A 
HETATM    6  C   LIG     1      19.708  38.544  19.780  1.00  0.00     0.116 A 
HETATM    7  F   LIG     1      20.708  39.118  19.067  1.00  0.00    -0.206 F 
ENDROOT
BRANCH   1   8
HETATM    8  C   LIG     1      16.524  36.651  22.016  1.00  0.00     0.153 C 
HETATM    9 CL   LIG     1      17.025  35.195  22.926  1.00  0.00    -0.126 Cl
ENDBRANCH   1   8
TORSDOF 1
ENDMDL
MODEL 2
REMARK VINA RESULT:      -6.2      0.061      1.615
REMARK  1 active torsions:
REMARK  status: ('A' for Active; 'I' for Inactive)
REMARK    1  A    between atoms: C_2  and  C_3 
ROOT
HETATM    1  C   LIG     1      17.650  37.308  21.262  1.00  0.00    -0.044 A 
HETATM    2  C   LIG     1      18.066  38.608  21.599  1.00  0.00     0.011 A 
HETATM    3  C   LIG     1      19.080  39.242  20.875  1.00  0.00     0.043 A 
HETATM    4  C   LIG     1      18.273  36.655  20.178  1.00  0.00     0.011 A 
HETATM    5  C   LIG     1      19.287  37.294  19.457  1.00  0.00     0.043 A 
HETATM    6  C   LIG     1      19.691  38.585  19.804  1.00  0.00     0.116 A 
HETATM    7  F   LIG     1      20.674  39.201  19.102  1.00  0.00    -0.206 F 
ENDROOT
BRANCH   1   8
HETATM    8  C   LIG     1      16.547  36.679  22.085  1.00  0.00     0.153 C 
HETATM    9 CL   LIG     1      17.012  35.197  22.973  1.00  0.00    -0.126 Cl
ENDBRANCH   1   8
TORSDOF 1
ENDMDL
MODEL 3
REMARK VINA RESULT:      -6.2      4.437      5.402
REMARK  1 active torsions:
REMARK  status: ('A' for Active; 'I' for Inactive)
REMARK    1  A    between atoms: C_2  and  C_3 
ROOT
HETATM    1  C   LIG     1      17.171  37.389  23.981  1.00  0.00    -0.044 A 
HETATM    2  C   LIG     1      16.966  36.036  23.659  1.00  0.00     0.011 A 
HETATM    3  C   LIG     1      17.326  35.027  24.557  1.00  0.00     0.043 A 
HETATM    4  C   LIG     1      17.746  37.710  25.228  1.00  0.00     0.011 A 
HETATM    5  C   LIG     1      18.104  36.697  26.124  1.00  0.00     0.043 A 
HETATM    6  C   LIG     1      17.895  35.357  25.789  1.00  0.00     0.116 A 
HETATM    7  F   LIG     1      18.244  34.378  26.660  1.00  0.00    -0.206 F 
ENDROOT
BRANCH   1   8
HETATM    8  C   LIG     1      16.759  38.432  22.965  1.00  0.00     0.153 C 
HETATM    9 CL   LIG     1      18.061  38.981  21.869  1.00  0.00    -0.126 Cl
ENDBRANCH   1   8
TORSDOF 1
ENDMDL
MODEL 4
REMARK VINA RESULT:      -6.2      4.235      5.410
REMARK  1 active torsions:
REMARK  status: ('A' for Active; 'I' for Inactive)
REMARK    1  A    between atoms: C_2  and  C_3 
ROOT
HETATM    1  C   LIG     1      16.992  36.332  23.590  1.00  0.00    -0.044 A 
HETATM    2  C   LIG     1      17.398  37.501  24.256  1.00  0.00     0.011 A 
HETATM    3  C   LIG     1      17.949  37.436  25.540  1.00  0.00     0.043 A 
HETATM    4  C   LIG     1      17.151  35.090  24.240  1.00  0.00     0.011 A 
HETATM    5  C   LIG     1      17.702  35.030  25.524  1.00  0.00     0.043 A 
HETATM    6  C   LIG     1      18.101  36.201  26.174  1.00  0.00     0.116 A 
HETATM    7  F   LIG     1      18.635  36.138  27.418  1.00  0.00    -0.206 F 
ENDROOT
BRANCH   1   8
HETATM    8  C   LIG     1      16.404  36.472  22.203  1.00  0.00     0.153 C 
HETATM    9 CL   LIG     1      17.548  36.181  20.859  1.00  0.00    -0.126 Cl
ENDBRANCH   1   8
TORSDOF 1
ENDMDL
MODEL 5
REMARK VINA RESULT:      -6.2      4.419      5.594
REMARK  1 active torsions:
REMARK  status: ('A' for Active; 'I' for Inactive)
REMARK    1  A    between atoms: C_2  and  C_3 
ROOT
HETATM    1  C   LIG     1      17.206  37.382  23.899  1.00  0.00    -0.044 A 
HETATM    2  C   LIG     1      17.767  37.694  25.150  1.00  0.00     0.011 A 
HETATM    3  C   LIG     1      18.095  36.681  26.056  1.00  0.00     0.043 A 
HETATM    4  C   LIG     1      16.982  36.028  23.573  1.00  0.00     0.011 A 
HETATM    5  C   LIG     1      17.312  35.019  24.483  1.00  0.00     0.043 A 
HETATM    6  C   LIG     1      17.868  35.343  25.723  1.00  0.00     0.116 A 
HETATM    7  F   LIG     1      18.187  34.362  26.602  1.00  0.00    -0.206 F 
ENDROOT
BRANCH   1   8
HETATM    8  C   LIG     1      16.874  38.525  22.964  1.00  0.00     0.153 C 
HETATM    9 CL   LIG     1      18.240  39.120  21.975  1.00  0.00    -0.126 Cl
ENDBRANCH   1   8
TORSDOF 1
ENDMDL
MODEL 6
REMARK VINA RESULT:      -5.8      2.794      3.880
REMARK  1 active torsions:
REMARK  status: ('A' for Active; 'I' for Inactive)
REMARK    1  A    between atoms: C_2  and  C_3 
ROOT
HETATM    1  C   LIG     1      17.184  35.924  24.196  1.00  0.00    -0.044 A 
HETATM    2  C   LIG     1      17.433  37.241  24.621  1.00  0.00     0.011 A 
HETATM    3  C   LIG     1      17.475  38.292  23.699  1.00  0.00     0.043 A 
HETATM    4  C   LIG     1      16.977  35.682  22.822  1.00  0.00     0.011 A 
HETATM    5  C   LIG     1      17.021  36.736  21.904  1.00  0.00     0.043 A 
HETATM    6  C   LIG     1      17.270  38.039  22.341  1.00  0.00     0.116 A 
HETATM    7  F   LIG     1      17.311  39.059  21.448  1.00  0.00    -0.206 F 
ENDROOT
BRANCH   1   8
HETATM    8  C   LIG     1      17.151  34.833  25.244  1.00  0.00     0.153 C 
HETATM    9 CL   LIG     1      18.512  34.851  26.404  1.00  0.00    -0.126 Cl
ENDBRANCH   1   8
TORSDOF 1
ENDMDL
MODEL 7
REMARK VINA RESULT:      -5.8      2.937      3.951
REMARK  1 active torsions:
REMARK  status: ('A' for Active; 'I' for Inactive)
REMARK    1  A    between atoms: C_2  and  C_3 
ROOT
HETATM    1  C   LIG     1      17.280  37.029  24.147  1.00  0.00    -0.044 A 
HETATM    2  C   LIG     1      17.385  37.958  23.096  1.00  0.00     0.011 A 
HETATM    3  C   LIG     1      17.285  37.542  21.765  1.00  0.00     0.043 A 
HETATM    4  C   LIG     1      17.070  35.670  23.834  1.00  0.00     0.011 A 
HETATM    5  C   LIG     1      16.970  35.259  22.500  1.00  0.00     0.043 A 
HETATM    6  C   LIG     1      17.077  36.194  21.467  1.00  0.00     0.116 A 
HETATM    7  F   LIG     1      16.979  35.791  20.176  1.00  0.00    -0.206 F 
ENDROOT
BRANCH   1   8
HETATM    8  C   LIG     1      17.398  37.544  25.565  1.00  0.00     0.153 C 
HETATM    9 CL   LIG     1      18.499  36.613  26.623  1.00  0.00    -0.126 Cl
ENDBRANCH   1   8
TORSDOF 1
ENDMDL
MODEL 8
REMARK VINA RESULT:      -5.7      3.244      4.316
REMARK  1 active torsions:
REMARK  status: ('A' for Active; 'I' for Inactive)
REMARK    1  A    between atoms: C_2  and  C_3 
ROOT
HETATM    1  C   LIG     1      18.337  38.176  20.930  1.00  0.00    -0.044 A 
HETATM    2  C   LIG     1      17.686  38.335  22.166  1.00  0.00     0.011 A 
HETATM    3  C   LIG     1      16.963  37.281  22.732  1.00  0.00     0.043 A 
HETATM    4  C   LIG     1      18.250  36.931  20.272  1.00  0.00     0.011 A 
HETATM    5  C   LIG     1      17.526  35.879  20.843  1.00  0.00     0.043 A 
HETATM    6  C   LIG     1      16.883  36.053  22.071  1.00  0.00     0.116 A 
HETATM    7  F   LIG     1      16.183  35.030  22.621  1.00  0.00    -0.206 F 
ENDROOT
BRANCH   1   8
HETATM    8  C   LIG     1      19.102  39.356  20.373  1.00  0.00     0.153 C 
HETATM    9 CL   LIG     1      20.482  38.937  19.315  1.00  0.00    -0.126 Cl
ENDBRANCH   1   8
TORSDOF 1
ENDMDL
MODEL 9
REMARK VINA RESULT:      -5.7      3.227      4.022
REMARK  1 active torsions:
REMARK  status: ('A' for Active; 'I' for Inactive)
REMARK    1  A    between atoms: C_2  and  C_3 
ROOT
HETATM    1  C   LIG     1      18.279  37.698  20.683  1.00  0.00    -0.044 A 
HETATM    2  C   LIG     1      17.558  36.546  21.046  1.00  0.00     0.011 A 
HETATM    3  C   LIG     1      16.771  36.533  22.202  1.00  0.00     0.043 A 
HETATM    4  C   LIG     1      18.192  38.840  21.505  1.00  0.00     0.011 A 
HETATM    5  C   LIG     1      17.403  38.822  22.660  1.00  0.00     0.043 A 
HETATM    6  C   LIG     1      16.693  37.670  23.009  1.00  0.00     0.116 A 
HETATM    7  F   LIG     1      15.929  37.656  24.128  1.00  0.00    -0.206 F 
ENDROOT
BRANCH   1   8
HETATM    8  C   LIG     1      19.112  37.646  19.421  1.00  0.00     0.153 C 
HETATM    9 CL   LIG     1      20.496  38.778  19.377  1.00  0.00    -0.126 Cl
ENDBRANCH   1   8
TORSDOF 1
ENDMDL
MODEL 10
REMARK VINA RESULT:      -5.2      8.568      9.456
REMARK  1 active torsions:
REMARK  status: ('A' for Active; 'I' for Inactive)
REMARK    1  A    between atoms: C_2  and  C_3 
ROOT
HETATM    1  C   LIG     1      14.134  30.524  15.163  1.00  0.00    -0.044 A 
HETATM    2  C   LIG     1      15.284  31.295  14.921  1.00  0.00     0.011 A 
HETATM    3  C   LIG     1      15.585  32.399  15.725  1.00  0.00     0.043 A 
HETATM    4  C   LIG     1      13.289  30.882  16.234  1.00  0.00     0.011 A 
HETATM    5  C   LIG     1      13.594  31.987  17.036  1.00  0.00     0.043 A 
HETATM    6  C   LIG     1      14.740  32.745  16.782  1.00  0.00     0.116 A 
HETATM    7  F   LIG     1      15.032  33.815  17.562  1.00  0.00    -0.206 F 
ENDROOT
BRANCH   1   8
HETATM    8  C   LIG     1      13.867  29.343  14.256  1.00  0.00     0.153 C 
HETATM    9 CL   LIG     1      15.307  28.378  13.819  1.00  0.00    -0.126 Cl
ENDBRANCH   1   8
TORSDOF 1
ENDMDL
MODEL 11
REMARK VINA RESULT:      -5.2      9.140     10.109
REMARK  1 active torsions:
REMARK  status: ('A' for Active; 'I' for Inactive)
REMARK    1  A    between atoms: C_2  and  C_3 
ROOT
HETATM    1  C   LIG     1      15.084  31.777  15.560  1.00  0.00    -0.044 A 
HETATM    2  C   LIG     1      15.541  31.050  14.447  1.00  0.00     0.011 A 
HETATM    3  C   LIG     1      14.796  29.981  13.938  1.00  0.00     0.043 A 
HETATM    4  C   LIG     1      13.859  31.410  16.154  1.00  0.00     0.011 A 
HETATM    5  C   LIG     1      13.117  30.340  15.642  1.00  0.00     0.043 A 
HETATM    6  C   LIG     1      13.585  29.626  14.535  1.00  0.00     0.116 A 
HETATM    7  F   LIG     1      12.863  28.590  14.042  1.00  0.00    -0.206 F 
ENDROOT
BRANCH   1   8
HETATM    8  C   LIG     1      15.937  32.922  16.060  1.00  0.00     0.153 C 
HETATM    9 CL   LIG     1      15.052  34.202  16.941  1.00  0.00    -0.126 Cl
ENDBRANCH   1   8
TORSDOF 1
ENDMDL
MODEL 12
REMARK VINA RESULT:      -5.2      9.147     10.195
REMARK  1 active torsions:
REMARK  status: ('A' for Active; 'I' for Inactive)
REMARK    1  A    between atoms: C_2  and  C_3 
ROOT
HETATM    1  C   LIG     1      15.181  31.785  15.431  1.00  0.00    -0.044 A 
HETATM    2  C   LIG     1      13.978  31.451  16.078  1.00  0.00     0.011 A 
HETATM    3  C   LIG     1      13.209  30.369  15.638  1.00  0.00     0.043 A 
HETATM    4  C   LIG     1      15.598  31.009  14.330  1.00  0.00     0.011 A 
HETATM    5  C   LIG     1      14.824  29.929  13.893  1.00  0.00     0.043 A 
HETATM    6  C   LIG     1      13.631  29.608  14.546  1.00  0.00     0.116 A 
HETATM    7  F   LIG     1      12.885  28.560  14.120  1.00  0.00    -0.206 F 
ENDROOT
BRANCH   1   8
HETATM    8  C   LIG     1      15.966  32.967  15.957  1.00  0.00     0.153 C 
HETATM    9 CL   LIG     1      15.021  34.138  16.924  1.00  0.00    -0.126 Cl
ENDBRANCH   1   8
TORSDOF 1
ENDMDL
MODEL 13
REMARK VINA RESULT:      -5.1      9.291     10.253
REMARK  1 active torsions:
REMARK  status: ('A' for Active; 'I' for Inactive)
REMARK    1  A    between atoms: C_2  and  C_3 
ROOT
HETATM    1  C   LIG     1      15.277  31.804  15.375  1.00  0.00    -0.044 A 
HETATM    2  C   LIG     1      15.611  31.053  14.234  1.00  0.00     0.011 A 
HETATM    3  C   LIG     1      14.808  29.984  13.824  1.00  0.00     0.043 A 
HETATM    4  C   LIG     1      14.115  31.460  16.098  1.00  0.00     0.011 A 
HETATM    5  C   LIG     1      13.315  30.391  15.683  1.00  0.00     0.043 A 
HETATM    6  C   LIG     1      13.660  29.653  14.548  1.00  0.00     0.116 A 
HETATM    7  F   LIG     1      12.881  28.617  14.149  1.00  0.00    -0.206 F 
ENDROOT
BRANCH   1   8
HETATM    8  C   LIG     1      16.188  32.947  15.765  1.00  0.00     0.153 C 
HETATM    9 CL   LIG     1      17.780  32.962  14.950  1.00  0.00    -0.126 Cl
ENDBRANCH   1   8
TORSDOF 1
ENDMDL
MODEL 14
REMARK VINA RESULT:      -5.0      7.871      8.758
REMARK  1 active torsions:
REMARK  status: ('A' for Active; 'I' for Inactive)
REMARK    1  A    between atoms: C_2  and  C_3 
ROOT
HETATM    1  C   LIG     1      15.033  32.247  16.787  1.00  0.00    -0.044 A 
HETATM    2  C   LIG     1      14.091  31.241  16.512  1.00  0.00     0.011 A 
HETATM    3  C   LIG     1      14.116  30.554  15.294  1.00  0.00     0.043 A 
HETATM    4  C   LIG     1      16.007  32.551  15.813  1.00  0.00     0.011 A 
HETATM    5  C   LIG     1      16.028  31.861  14.596  1.00  0.00     0.043 A 
HETATM    6  C   LIG     1      15.084  30.864  14.337  1.00  0.00     0.116 A 
HETATM    7  F   LIG     1      15.109  30.197  13.156  1.00  0.00    -0.206 F 
ENDROOT
BRANCH   1   8
HETATM    8  C   LIG     1      14.951  32.952  18.123  1.00  0.00     0.153 C 
HETATM    9 CL   LIG     1      15.602  32.030  19.511  1.00  0.00    -0.126 Cl
ENDBRANCH   1   8
TORSDOF 1
ENDMDL
MODEL 15
REMARK VINA RESULT:      -5.0      8.530      9.640
REMARK  1 active torsions:
REMARK  status: ('A' for Active; 'I' for Inactive)
REMARK    1  A    between atoms: C_2  and  C_3 
ROOT
HETATM    1  C   LIG     1      16.078  32.232  15.231  1.00  0.00    -0.044 A 
HETATM    2  C   LIG     1      15.411  32.607  16.410  1.00  0.00     0.011 A 
HETATM    3  C   LIG     1      14.254  31.936  16.819  1.00  0.00     0.043 A 
HETATM    4  C   LIG     1      15.562  31.164  14.468  1.00  0.00     0.011 A 
HETATM    5  C   LIG     1      14.405  30.495  14.882  1.00  0.00     0.043 A 
HETATM    6  C   LIG     1      13.752  30.880  16.055  1.00  0.00     0.116 A 
HETATM    7  F   LIG     1      12.631  30.228  16.453  1.00  0.00    -0.206 F 
ENDROOT
BRANCH   1   8
HETATM    8  C   LIG     1      17.323  33.000  14.845  1.00  0.00     0.153 C 
HETATM    9 CL   LIG     1      17.537  33.269  13.090  1.00  0.00    -0.126 Cl
ENDBRANCH   1   8
TORSDOF 1
ENDMDL
MODEL 16
REMARK VINA RESULT:      -5.0      8.483      9.464
REMARK  1 active torsions:
REMARK  status: ('A' for Active; 'I' for Inactive)
REMARK    1  A    between atoms: C_2  and  C_3 
ROOT
HETATM    1  C   LIG     1      16.118  32.279  15.312  1.00  0.00    -0.044 A 
HETATM    2  C   LIG     1      15.648  31.194  14.551  1.00  0.00     0.011 A 
HETATM    3  C   LIG     1      14.483  30.516  14.919  1.00  0.00     0.043 A 
HETATM    4  C   LIG     1      15.390  32.672  16.455  1.00  0.00     0.011 A 
HETATM    5  C   LIG     1      14.225  31.990  16.819  1.00  0.00     0.043 A 
HETATM    6  C   LIG     1      13.771  30.914  16.053  1.00  0.00     0.116 A 
HETATM    7  F   LIG     1      12.640  30.256  16.410  1.00  0.00    -0.206 F 
ENDROOT
BRANCH   1   8
HETATM    8  C   LIG     1      17.385  32.970  14.859  1.00  0.00     0.153 C 
HETATM    9 CL   LIG     1      17.463  33.347  13.112  1.00  0.00    -0.126 Cl
ENDBRANCH   1   8
TORSDOF 1
ENDMDL
MODEL 17
REMARK VINA RESULT:      -4.9      8.464      9.380
REMARK  1 active torsions:
REMARK  status: ('A' for Active; 'I' for Inactive)
REMARK    1  A    between atoms: C_2  and  C_3 
ROOT
HETATM    1  C   LIG     1      14.532  31.774  16.317  1.00  0.00    -0.044 A 
HETATM    2  C   LIG     1      15.648  32.179  15.563  1.00  0.00     0.011 A 
HETATM    3  C   LIG     1      15.999  31.503  14.391  1.00  0.00     0.043 A 
HETATM    4  C   LIG     1      13.772  30.674  15.868  1.00  0.00     0.011 A 
HETATM    5  C   LIG     1      14.127  30.001  14.695  1.00  0.00     0.043 A 
HETATM    6  C   LIG     1      15.239  30.414  13.956  1.00  0.00     0.116 A 
HETATM    7  F   LIG     1      15.580  29.760  12.819  1.00  0.00    -0.206 F 
ENDROOT
BRANCH   1   8
HETATM    8  C   LIG     1      14.207  32.548  17.576  1.00  0.00     0.153 C 
HETATM    9 CL   LIG     1      14.740  31.780  19.100  1.00  0.00    -0.126 Cl
ENDBRANCH   1   8
TORSDOF 1
ENDMDL
MODEL 18
REMARK VINA RESULT:      -4.6      3.601      4.678
REMARK  1 active torsions:
REMARK  status: ('A' for Active; 'I' for Inactive)
REMARK    1  A    between atoms: C_2  and  C_3 
ROOT
HETATM    1  C   LIG     1      17.438  36.435  20.847  1.00  0.00    -0.044 A 
HETATM    2  C   LIG     1      16.754  35.839  19.774  1.00  0.00     0.011 A 
HETATM    3  C   LIG     1      15.769  34.874  20.005  1.00  0.00     0.043 A 
HETATM    4  C   LIG     1      17.112  36.045  22.162  1.00  0.00     0.011 A 
HETATM    5  C   LIG     1      16.125  35.079  22.388  1.00  0.00     0.043 A 
HETATM    6  C   LIG     1      15.454  34.494  21.312  1.00  0.00     0.116 A 
HETATM    7  F   LIG     1      14.498  33.559  21.535  1.00  0.00    -0.206 F 
ENDROOT
BRANCH   1   8
HETATM    8  C   LIG     1      18.493  37.472  20.529  1.00  0.00     0.153 C 
HETATM    9 CL   LIG     1      18.340  39.013  21.424  1.00  0.00    -0.126 Cl
ENDBRANCH   1   8
TORSDOF 1
ENDMDL
MODEL 19
REMARK VINA RESULT:      -4.6      9.907     10.745
REMARK  1 active torsions:
REMARK  status: ('A' for Active; 'I' for Inactive)
REMARK    1  A    between atoms: C_2  and  C_3 
ROOT
HETATM    1  C   LIG     1      13.568  29.442  14.451  1.00  0.00    -0.044 A 
HETATM    2  C   LIG     1      14.823  29.793  13.923  1.00  0.00     0.011 A 
HETATM    3  C   LIG     1      15.535  30.879  14.442  1.00  0.00     0.043 A 
HETATM    4  C   LIG     1      13.041  30.203  15.514  1.00  0.00     0.011 A 
HETATM    5  C   LIG     1      13.757  31.288  16.030  1.00  0.00     0.043 A 
HETATM    6  C   LIG     1      15.003  31.627  15.494  1.00  0.00     0.116 A 
HETATM    7  F   LIG     1      15.694  32.679  15.997  1.00  0.00    -0.206 F 
ENDROOT
BRANCH   1   8
HETATM    8  C   LIG     1      12.849  28.256  13.845  1.00  0.00     0.153 C 
HETATM    9 CL   LIG     1      11.233  28.612  13.166  1.00  0.00    -0.126 Cl
ENDBRANCH   1   8
TORSDOF 1
ENDMDL
MODEL 20
REMARK VINA RESULT:      -4.5      7.949      8.711
REMARK  1 active torsions:
REMARK  status: ('A' for Active; 'I' for Inactive)
REMARK    1  A    between atoms: C_2  and  C_3 
ROOT
HETATM    1  C   LIG     1      15.133  31.327  14.763  1.00  0.00    -0.044 A 
HETATM    2  C   LIG     1      15.756  31.479  13.512  1.00  0.00     0.011 A 
HETATM    3  C   LIG     1      16.742  32.451  13.320  1.00  0.00     0.043 A 
HETATM    4  C   LIG     1      15.523  32.172  15.823  1.00  0.00     0.011 A 
HETATM    5  C   LIG     1      16.511  33.143  15.626  1.00  0.00     0.043 A 
HETATM    6  C   LIG     1      17.120  33.283  14.376  1.00  0.00     0.116 A 
HETATM    7  F   LIG     1      18.077  34.225  14.190  1.00  0.00    -0.206 F 
ENDROOT
BRANCH   1   8
HETATM    8  C   LIG     1      14.074  30.256  14.904  1.00  0.00     0.153 C 
HETATM    9 CL   LIG     1      12.828  30.577  16.146  1.00  0.00    -0.126 Cl
ENDBRANCH   1   8
TORSDOF 1
ENDMDL
