REMARK  3 active torsions:
REMARK  status: ('A' for Active; 'I' for Inactive)
REMARK    1  A    between atoms: C_2  and  C_4 
REMARK    2  A    between atoms: C_2  and  O_3 
REMARK    3  A    between atoms: C_4  and  N_5 
REMARK       I    between atoms: N_5  and  C_6 
REMARK       I    between atoms: C_6  and  N_7 
ROOT
HETATM    1  N   LIG     1      -0.114  -0.255   0.017  1.00  0.00    -0.215 N 
HETATM    2  C   LIG     1      -1.479   0.177  -0.059  1.00  0.00     0.687 C 
HETATM    3  N   LIG     1      -2.354  -0.410  -1.025  1.00  0.00    -0.234 N 
HETATM    4  N   LIG     1      -1.920   1.095   0.743  1.00  0.00    -0.118 NA
HETATM    5  H   LIG     1       0.208  -0.998  -0.645  1.00  0.00     0.178 HD
HETATM    6  H   LIG     1      -2.006  -1.150  -1.674  1.00  0.00     0.174 HD
HETATM    7  H   LIG     1      -3.352  -0.111  -1.098  1.00  0.00     0.174 HD
HETATM    8  H   LIG     1      -2.909   1.427   0.707  1.00  0.00     0.206 HD
ENDROOT
BRANCH   1   9
HETATM    9  C   LIG     1       0.824   0.312   0.986  1.00  0.00     0.248 C 
BRANCH   9  10
HETATM   10  C   LIG     1       2.175  -0.314   0.841  1.00  0.00     0.158 C 
HETATM   11  O   LIG     1       2.459  -1.358   1.487  1.00  0.00    -0.649 OA
BRANCH  10  12
HETATM   12  O   LIG     1       3.100   0.231  -0.044  1.00  0.00    -0.775 OA
HETATM   13  H   LIG     1       4.013  -0.192  -0.166  1.00  0.00     0.167 HD
ENDBRANCH  10  12
ENDBRANCH   9  10
ENDBRANCH   1   9
TORSDOF 3
