REMARK  2 active torsions:
REMARK  status: ('A' for Active; 'I' for Inactive)
REMARK    1  A    between atoms: C_2  and  C_14 
REMARK       I    between atoms: C_2  and  N_3 
REMARK       I    between atoms: N_3  and  C_4 
REMARK       I    between atoms: C_4  and  N_5 
REMARK    2  A    between atoms: N_5  and  C_6 
ROOT
HETATM    1  O   LIG     1      -1.831  -0.847   1.822  1.00  0.00    -0.267 OA
HETATM    2  C   LIG     1      -1.902  -0.389   0.649  1.00  0.00     0.265 C 
HETATM    3  N   LIG     1      -0.707  -0.223  -0.134  1.00  0.00    -0.275 N 
HETATM    4  C   LIG     1       0.621  -0.289   0.408  1.00  0.00     0.327 C 
HETATM    5  N   LIG     1       1.749  -0.222  -0.478  1.00  0.00    -0.309 N 
HETATM    6  O   LIG     1       0.797  -0.431   1.649  1.00  0.00    -0.247 OA
HETATM    7  H   LIG     1      -0.804  -0.071  -1.163  1.00  0.00     0.173 HD
HETATM    8  H   LIG     1       1.575  -0.387  -1.496  1.00  0.00     0.170 HD
ENDROOT
BRANCH   2   9
HETATM    9  C   LIG     1      -3.229  -0.059   0.079  1.00  0.00     0.109 A 
HETATM   10  C   LIG     1      -3.394   1.056  -0.769  1.00  0.00     0.135 A 
HETATM   11  C   LIG     1      -4.652   1.357  -1.300  1.00  0.00     0.043 A 
HETATM   12  F   LIG     1      -2.353   1.881  -1.049  1.00  0.00    -0.205 F 
HETATM   13  C   LIG     1      -5.755   0.560  -0.991  1.00  0.00     0.006 A 
HETATM   14  C   LIG     1      -5.606  -0.539  -0.144  1.00  0.00     0.043 A 
HETATM   15  C   LIG     1      -4.353  -0.850   0.394  1.00  0.00     0.135 A 
HETATM   16  F   LIG     1      -4.236  -1.935   1.200  1.00  0.00    -0.205 F 
ENDBRANCH   2   9
BRANCH   5  17
HETATM   17  C   LIG     1       3.110  -0.059  -0.044  1.00  0.00     0.036 A 
HETATM   18  C   LIG     1       4.144  -0.656  -0.782  1.00  0.00     0.031 A 
HETATM   19  C   LIG     1       5.477  -0.494  -0.393  1.00  0.00     0.026 A 
HETATM   20  C   LIG     1       5.791   0.279   0.729  1.00  0.00     0.034 A 
HETATM   21  C   LIG     1       4.770   0.897   1.457  1.00  0.00     0.026 A 
HETATM   22 CL   LIG     1       7.464   0.484   1.214  1.00  0.00    -0.084 Cl
HETATM   23  C   LIG     1       3.436   0.737   1.071  1.00  0.00     0.031 A 
ENDBRANCH   5  17
TORSDOF 2
