MODEL 1
REMARK VINA RESULT:     -10.4      0.000      0.000
REMARK  2 active torsions:
REMARK  status: ('A' for Active; 'I' for Inactive)
REMARK    1  A    between atoms: C_2  and  C_14 
REMARK       I    between atoms: C_2  and  N_3 
REMARK       I    between atoms: N_3  and  C_4 
REMARK       I    between atoms: C_4  and  N_5 
REMARK    2  A    between atoms: N_5  and  C_6 
ROOT
HETATM    1  O   LIG     1      16.442  34.341  21.481  1.00  0.00    -0.267 OA
HETATM    2  C   LIG     1      16.415  35.323  20.691  1.00  0.00     0.265 C 
HETATM    3  N   LIG     1      15.803  35.190  19.396  1.00  0.00    -0.275 N 
HETATM    4  C   LIG     1      15.443  33.932  18.806  1.00  0.00     0.327 C 
HETATM    5  N   LIG     1      14.734  33.915  17.557  1.00  0.00    -0.309 N 
HETATM    6  O   LIG     1      15.722  32.850  19.391  1.00  0.00    -0.247 OA
HETATM    7  H   LIG     1      15.581  36.059  18.859  1.00  0.00     0.173 HD
HETATM    8  H   LIG     1      14.278  34.804  17.247  1.00  0.00     0.170 HD
ENDROOT
BRANCH   2   9
HETATM    9  C   LIG     1      16.986  36.619  21.125  1.00  0.00     0.109 A 
HETATM   10  C   LIG     1      18.177  37.112  20.551  1.00  0.00     0.135 A 
HETATM   11  C   LIG     1      18.706  38.337  20.970  1.00  0.00     0.043 A 
HETATM   12  F   LIG     1      18.853  36.393  19.619  1.00  0.00    -0.205 F 
HETATM   13  C   LIG     1      18.065  39.078  21.963  1.00  0.00     0.006 A 
HETATM   14  C   LIG     1      16.893  38.594  22.547  1.00  0.00     0.043 A 
HETATM   15  C   LIG     1      16.353  37.371  22.136  1.00  0.00     0.135 A 
HETATM   16  F   LIG     1      15.203  36.936  22.709  1.00  0.00    -0.205 F 
ENDBRANCH   2   9
BRANCH   5  17
HETATM   17  C   LIG     1      14.514  32.733  16.768  1.00  0.00     0.036 A 
HETATM   18  C   LIG     1      13.343  31.984  16.962  1.00  0.00     0.031 A 
HETATM   19  C   LIG     1      13.096  30.844  16.192  1.00  0.00     0.026 A 
HETATM   20  C   LIG     1      14.009  30.449  15.210  1.00  0.00     0.034 A 
HETATM   21  C   LIG     1      15.167  31.202  14.993  1.00  0.00     0.026 A 
HETATM   22 CL   LIG     1      13.696  29.020  14.243  1.00  0.00    -0.084 Cl
HETATM   23  C   LIG     1      15.417  32.343  15.761  1.00  0.00     0.031 A 
ENDBRANCH   5  17
TORSDOF 2
ENDMDL
MODEL 2
REMARK VINA RESULT:     -10.3      0.240      1.838
REMARK  2 active torsions:
REMARK  status: ('A' for Active; 'I' for Inactive)
REMARK    1  A    between atoms: C_2  and  C_14 
REMARK       I    between atoms: C_2  and  N_3 
REMARK       I    between atoms: N_3  and  C_4 
REMARK       I    between atoms: C_4  and  N_5 
REMARK    2  A    between atoms: N_5  and  C_6 
ROOT
HETATM    1  O   LIG     1      16.533  34.523  21.508  1.00  0.00    -0.267 OA
HETATM    2  C   LIG     1      16.569  35.484  20.693  1.00  0.00     0.265 C 
HETATM    3  N   LIG     1      15.993  35.341  19.382  1.00  0.00    -0.275 N 
HETATM    4  C   LIG     1      15.602  34.082  18.813  1.00  0.00     0.327 C 
HETATM    5  N   LIG     1      14.933  34.059  17.543  1.00  0.00    -0.309 N 
HETATM    6  O   LIG     1      15.820  33.006  19.434  1.00  0.00    -0.247 OA
HETATM    7  H   LIG     1      15.823  36.203  18.817  1.00  0.00     0.173 HD
HETATM    8  H   LIG     1      14.523  34.957  17.196  1.00  0.00     0.170 HD
ENDROOT
BRANCH   2   9
HETATM    9  C   LIG     1      17.178  36.768  21.112  1.00  0.00     0.109 A 
HETATM   10  C   LIG     1      16.605  37.534  22.149  1.00  0.00     0.135 A 
HETATM   11  C   LIG     1      17.190  38.745  22.535  1.00  0.00     0.043 A 
HETATM   12  F   LIG     1      15.458  37.140  22.758  1.00  0.00    -0.205 F 
HETATM   13  C   LIG     1      18.341  39.206  21.895  1.00  0.00     0.006 A 
HETATM   14  C   LIG     1      18.909  38.462  20.860  1.00  0.00     0.043 A 
HETATM   15  C   LIG     1      18.334  37.250  20.464  1.00  0.00     0.135 A 
HETATM   16  F   LIG     1      18.919  36.540  19.468  1.00  0.00    -0.205 F 
ENDBRANCH   2   9
BRANCH   5  17
HETATM   17  C   LIG     1      14.691  32.867  16.777  1.00  0.00     0.036 A 
HETATM   18  C   LIG     1      13.533  32.112  17.025  1.00  0.00     0.031 A 
HETATM   19  C   LIG     1      13.264  30.961  16.279  1.00  0.00     0.026 A 
HETATM   20  C   LIG     1      14.142  30.560  15.267  1.00  0.00     0.034 A 
HETATM   21  C   LIG     1      15.285  31.318  14.997  1.00  0.00     0.026 A 
HETATM   22 CL   LIG     1      13.802  29.118  14.330  1.00  0.00    -0.084 Cl
HETATM   23  C   LIG     1      15.557  32.470  15.741  1.00  0.00     0.031 A 
ENDBRANCH   5  17
TORSDOF 2
ENDMDL
MODEL 3
REMARK VINA RESULT:     -10.0      4.212      8.157
REMARK  2 active torsions:
REMARK  status: ('A' for Active; 'I' for Inactive)
REMARK    1  A    between atoms: C_2  and  C_14 
REMARK       I    between atoms: C_2  and  N_3 
REMARK       I    between atoms: N_3  and  C_4 
REMARK       I    between atoms: C_4  and  N_5 
REMARK    2  A    between atoms: N_5  and  C_6 
ROOT
HETATM    1  O   LIG     1      15.751  34.516  16.371  1.00  0.00    -0.267 OA
HETATM    2  C   LIG     1      15.270  33.504  16.951  1.00  0.00     0.265 C 
HETATM    3  N   LIG     1      15.015  33.537  18.366  1.00  0.00    -0.275 N 
HETATM    4  C   LIG     1      15.514  34.556  19.246  1.00  0.00     0.327 C 
HETATM    5  N   LIG     1      15.108  34.559  20.624  1.00  0.00    -0.309 N 
HETATM    6  O   LIG     1      16.282  35.456  18.809  1.00  0.00    -0.247 OA
HETATM    7  H   LIG     1      14.409  32.793  18.780  1.00  0.00     0.173 HD
HETATM    8  H   LIG     1      14.272  33.987  20.883  1.00  0.00     0.170 HD
ENDROOT
BRANCH   2   9
HETATM    9  C   LIG     1      14.942  32.299  16.154  1.00  0.00     0.109 A 
HETATM   10  C   LIG     1      15.867  31.772  15.228  1.00  0.00     0.135 A 
HETATM   11  C   LIG     1      15.544  30.634  14.481  1.00  0.00     0.043 A 
HETATM   12  F   LIG     1      17.062  32.378  15.011  1.00  0.00    -0.205 F 
HETATM   13  C   LIG     1      14.304  30.016  14.641  1.00  0.00     0.006 A 
HETATM   14  C   LIG     1      13.377  30.536  15.546  1.00  0.00     0.043 A 
HETATM   15  C   LIG     1      13.687  31.673  16.298  1.00  0.00     0.135 A 
HETATM   16  F   LIG     1      12.772  32.144  17.182  1.00  0.00    -0.205 F 
ENDBRANCH   2   9
BRANCH   5  17
HETATM   17  C   LIG     1      15.702  35.384  21.640  1.00  0.00     0.036 A 
HETATM   18  C   LIG     1      15.204  36.679  21.855  1.00  0.00     0.031 A 
HETATM   19  C   LIG     1      15.750  37.493  22.851  1.00  0.00     0.026 A 
HETATM   20  C   LIG     1      16.791  37.015  23.654  1.00  0.00     0.034 A 
HETATM   21  C   LIG     1      17.278  35.719  23.464  1.00  0.00     0.026 A 
HETATM   22 CL   LIG     1      17.473  38.036  24.907  1.00  0.00    -0.084 Cl
HETATM   23  C   LIG     1      16.734  34.902  22.468  1.00  0.00     0.031 A 
ENDBRANCH   5  17
TORSDOF 2
ENDMDL
MODEL 4
REMARK VINA RESULT:     -10.0      4.212      8.345
REMARK  2 active torsions:
REMARK  status: ('A' for Active; 'I' for Inactive)
REMARK    1  A    between atoms: C_2  and  C_14 
REMARK       I    between atoms: C_2  and  N_3 
REMARK       I    between atoms: N_3  and  C_4 
REMARK       I    between atoms: C_4  and  N_5 
REMARK    2  A    between atoms: N_5  and  C_6 
ROOT
HETATM    1  O   LIG     1      15.748  34.535  16.378  1.00  0.00    -0.267 OA
HETATM    2  C   LIG     1      15.271  33.519  16.955  1.00  0.00     0.265 C 
HETATM    3  N   LIG     1      15.016  33.546  18.370  1.00  0.00    -0.275 N 
HETATM    4  C   LIG     1      15.512  34.563  19.254  1.00  0.00     0.327 C 
HETATM    5  N   LIG     1      15.107  34.561  20.631  1.00  0.00    -0.309 N 
HETATM    6  O   LIG     1      16.277  35.468  18.819  1.00  0.00    -0.247 OA
HETATM    7  H   LIG     1      14.414  32.798  18.781  1.00  0.00     0.173 HD
HETATM    8  H   LIG     1      14.273  33.985  20.889  1.00  0.00     0.170 HD
ENDROOT
BRANCH   2   9
HETATM    9  C   LIG     1      14.947  32.316  16.153  1.00  0.00     0.109 A 
HETATM   10  C   LIG     1      13.702  31.668  16.293  1.00  0.00     0.135 A 
HETATM   11  C   LIG     1      13.408  30.534  15.531  1.00  0.00     0.043 A 
HETATM   12  F   LIG     1      12.787  32.102  17.198  1.00  0.00    -0.205 F 
HETATM   13  C   LIG     1      14.347  30.030  14.629  1.00  0.00     0.006 A 
HETATM   14  C   LIG     1      15.586  30.656  14.490  1.00  0.00     0.043 A 
HETATM   15  C   LIG     1      15.892  31.791  15.248  1.00  0.00     0.135 A 
HETATM   16  F   LIG     1      17.098  32.388  15.077  1.00  0.00    -0.205 F 
ENDBRANCH   2   9
BRANCH   5  17
HETATM   17  C   LIG     1      15.699  35.384  21.650  1.00  0.00     0.036 A 
HETATM   18  C   LIG     1      15.197  36.677  21.868  1.00  0.00     0.031 A 
HETATM   19  C   LIG     1      15.741  37.489  22.868  1.00  0.00     0.026 A 
HETATM   20  C   LIG     1      16.783  37.011  23.670  1.00  0.00     0.034 A 
HETATM   21  C   LIG     1      17.274  35.717  23.476  1.00  0.00     0.026 A 
HETATM   22 CL   LIG     1      17.462  38.030  24.925  1.00  0.00    -0.084 Cl
HETATM   23  C   LIG     1      16.732  34.902  22.477  1.00  0.00     0.031 A 
ENDBRANCH   5  17
TORSDOF 2
ENDMDL
MODEL 5
REMARK VINA RESULT:      -8.8      2.669      3.454
REMARK  2 active torsions:
REMARK  status: ('A' for Active; 'I' for Inactive)
REMARK    1  A    between atoms: C_2  and  C_14 
REMARK       I    between atoms: C_2  and  N_3 
REMARK       I    between atoms: N_3  and  C_4 
REMARK       I    between atoms: C_4  and  N_5 
REMARK    2  A    between atoms: N_5  and  C_6 
ROOT
HETATM    1  O   LIG     1      15.521  37.134  22.537  1.00  0.00    -0.267 OA
HETATM    2  C   LIG     1      16.403  36.297  22.872  1.00  0.00     0.265 C 
HETATM    3  N   LIG     1      16.680  35.164  22.031  1.00  0.00    -0.275 N 
HETATM    4  C   LIG     1      15.839  34.749  20.945  1.00  0.00     0.327 C 
HETATM    5  N   LIG     1      16.263  33.672  20.095  1.00  0.00    -0.309 N 
HETATM    6  O   LIG     1      14.748  35.341  20.720  1.00  0.00    -0.247 OA
HETATM    7  H   LIG     1      17.558  34.623  22.200  1.00  0.00     0.173 HD
HETATM    8  H   LIG     1      17.272  33.397  20.129  1.00  0.00     0.170 HD
ENDROOT
BRANCH   2   9
HETATM    9  C   LIG     1      17.170  36.516  24.121  1.00  0.00     0.109 A 
HETATM   10  C   LIG     1      17.775  37.762  24.388  1.00  0.00     0.135 A 
HETATM   11  C   LIG     1      18.497  37.954  25.570  1.00  0.00     0.043 A 
HETATM   12  F   LIG     1      17.709  38.778  23.491  1.00  0.00    -0.205 F 
HETATM   13  C   LIG     1      18.630  36.915  26.491  1.00  0.00     0.006 A 
HETATM   14  C   LIG     1      18.046  35.674  26.232  1.00  0.00     0.043 A 
HETATM   15  C   LIG     1      17.321  35.469  25.053  1.00  0.00     0.135 A 
HETATM   16  F   LIG     1      16.750  34.257  24.837  1.00  0.00    -0.205 F 
ENDBRANCH   2   9
BRANCH   5  17
HETATM   17  C   LIG     1      15.421  33.028  19.123  1.00  0.00     0.036 A 
HETATM   18  C   LIG     1      15.229  33.633  17.871  1.00  0.00     0.031 A 
HETATM   19  C   LIG     1      14.433  33.016  16.901  1.00  0.00     0.026 A 
HETATM   20  C   LIG     1      13.833  31.782  17.168  1.00  0.00     0.034 A 
HETATM   21  C   LIG     1      14.038  31.160  18.403  1.00  0.00     0.026 A 
HETATM   22 CL   LIG     1      12.837  31.008  15.949  1.00  0.00    -0.084 Cl
HETATM   23  C   LIG     1      14.833  31.774  19.375  1.00  0.00     0.031 A 
ENDBRANCH   5  17
TORSDOF 2
ENDMDL
MODEL 6
REMARK VINA RESULT:      -8.4      2.625      3.392
REMARK  2 active torsions:
REMARK  status: ('A' for Active; 'I' for Inactive)
REMARK    1  A    between atoms: C_2  and  C_14 
REMARK       I    between atoms: C_2  and  N_3 
REMARK       I    between atoms: N_3  and  C_4 
REMARK       I    between atoms: C_4  and  N_5 
REMARK    2  A    between atoms: N_5  and  C_6 
ROOT
HETATM    1  O   LIG     1      16.115  37.273  22.007  1.00  0.00    -0.267 OA
HETATM    2  C   LIG     1      16.666  36.307  22.602  1.00  0.00     0.265 C 
HETATM    3  N   LIG     1      16.754  35.021  21.964  1.00  0.00    -0.275 N 
HETATM    4  C   LIG     1      16.019  34.661  20.784  1.00  0.00     0.327 C 
HETATM    5  N   LIG     1      16.263  33.391  20.161  1.00  0.00    -0.309 N 
HETATM    6  O   LIG     1      15.185  35.464  20.283  1.00  0.00    -0.247 OA
HETATM    7  H   LIG     1      17.409  34.312  22.363  1.00  0.00     0.173 HD
HETATM    8  H   LIG     1      17.138  32.882  20.426  1.00  0.00     0.170 HD
ENDROOT
BRANCH   2   9
HETATM    9  C   LIG     1      17.250  36.524  23.947  1.00  0.00     0.109 A 
HETATM   10  C   LIG     1      17.300  35.476  24.890  1.00  0.00     0.135 A 
HETATM   11  C   LIG     1      17.854  35.693  26.155  1.00  0.00     0.043 A 
HETATM   12  F   LIG     1      16.775  34.256  24.607  1.00  0.00    -0.205 F 
HETATM   13  C   LIG     1      18.356  36.949  26.497  1.00  0.00     0.006 A 
HETATM   14  C   LIG     1      18.301  37.997  25.576  1.00  0.00     0.043 A 
HETATM   15  C   LIG     1      17.749  37.792  24.308  1.00  0.00     0.135 A 
HETATM   16  F   LIG     1      17.726  38.824  23.428  1.00  0.00    -0.205 F 
ENDBRANCH   2   9
BRANCH   5  17
HETATM   17  C   LIG     1      15.446  32.831  19.118  1.00  0.00     0.036 A 
HETATM   18  C   LIG     1      14.756  31.632  19.354  1.00  0.00     0.031 A 
HETATM   19  C   LIG     1      13.939  31.079  18.363  1.00  0.00     0.026 A 
HETATM   20  C   LIG     1      13.791  31.728  17.133  1.00  0.00     0.034 A 
HETATM   21  C   LIG     1      14.456  32.934  16.898  1.00  0.00     0.026 A 
HETATM   22 CL   LIG     1      12.763  31.035  15.893  1.00  0.00    -0.084 Cl
HETATM   23  C   LIG     1      15.274  33.490  17.886  1.00  0.00     0.031 A 
ENDBRANCH   5  17
TORSDOF 2
ENDMDL
MODEL 7
REMARK VINA RESULT:      -7.7      6.043      8.702
REMARK  2 active torsions:
REMARK  status: ('A' for Active; 'I' for Inactive)
REMARK    1  A    between atoms: C_2  and  C_14 
REMARK       I    between atoms: C_2  and  N_3 
REMARK       I    between atoms: N_3  and  C_4 
REMARK       I    between atoms: C_4  and  N_5 
REMARK    2  A    between atoms: N_5  and  C_6 
ROOT
HETATM    1  O   LIG     1      16.190  34.090  15.961  1.00  0.00    -0.267 OA
HETATM    2  C   LIG     1      16.111  33.021  15.296  1.00  0.00     0.265 C 
HETATM    3  N   LIG     1      17.121  32.702  14.322  1.00  0.00    -0.275 N 
HETATM    4  C   LIG     1      18.095  33.640  13.842  1.00  0.00     0.327 C 
HETATM    5  N   LIG     1      19.130  33.191  12.953  1.00  0.00    -0.309 N 
HETATM    6  O   LIG     1      18.060  34.844  14.216  1.00  0.00    -0.247 OA
HETATM    7  H   LIG     1      17.169  31.723  13.958  1.00  0.00     0.173 HD
HETATM    8  H   LIG     1      19.298  32.161  12.889  1.00  0.00     0.170 HD
ENDROOT
BRANCH   2   9
HETATM    9  C   LIG     1      14.991  32.087  15.555  1.00  0.00     0.109 A 
HETATM   10  C   LIG     1      14.131  32.278  16.656  1.00  0.00     0.135 A 
HETATM   11  C   LIG     1      13.077  31.389  16.889  1.00  0.00     0.043 A 
HETATM   12  F   LIG     1      14.333  33.295  17.532  1.00  0.00    -0.205 F 
HETATM   13  C   LIG     1      12.872  30.303  16.038  1.00  0.00     0.006 A 
HETATM   14  C   LIG     1      13.723  30.097  14.952  1.00  0.00     0.043 A 
HETATM   15  C   LIG     1      14.781  30.979  14.708  1.00  0.00     0.135 A 
HETATM   16  F   LIG     1      15.581  30.763  13.634  1.00  0.00    -0.205 F 
ENDBRANCH   2   9
BRANCH   5  17
HETATM   17  C   LIG     1      20.021  34.066  12.240  1.00  0.00     0.036 A 
HETATM   18  C   LIG     1      21.251  34.416  12.818  1.00  0.00     0.031 A 
HETATM   19  C   LIG     1      22.143  35.248  12.136  1.00  0.00     0.026 A 
HETATM   20  C   LIG     1      21.822  35.726  10.862  1.00  0.00     0.034 A 
HETATM   21  C   LIG     1      20.609  35.364  10.267  1.00  0.00     0.026 A 
HETATM   22 CL   LIG     1      22.944  36.766  10.005  1.00  0.00    -0.084 Cl
HETATM   23  C   LIG     1      19.714  34.532  10.947  1.00  0.00     0.031 A 
ENDBRANCH   5  17
TORSDOF 2
ENDMDL
MODEL 8
REMARK VINA RESULT:      -7.5      6.089      8.558
REMARK  2 active torsions:
REMARK  status: ('A' for Active; 'I' for Inactive)
REMARK    1  A    between atoms: C_2  and  C_14 
REMARK       I    between atoms: C_2  and  N_3 
REMARK       I    between atoms: N_3  and  C_4 
REMARK       I    between atoms: C_4  and  N_5 
REMARK    2  A    between atoms: N_5  and  C_6 
ROOT
HETATM    1  O   LIG     1      16.158  34.035  15.919  1.00  0.00    -0.267 OA
HETATM    2  C   LIG     1      16.088  32.960  15.264  1.00  0.00     0.265 C 
HETATM    3  N   LIG     1      17.114  32.626  14.313  1.00  0.00    -0.275 N 
HETATM    4  C   LIG     1      18.101  33.556  13.841  1.00  0.00     0.327 C 
HETATM    5  N   LIG     1      19.150  33.093  12.977  1.00  0.00    -0.309 N 
HETATM    6  O   LIG     1      18.064  34.764  14.202  1.00  0.00    -0.247 OA
HETATM    7  H   LIG     1      17.165  31.644  13.960  1.00  0.00     0.173 HD
HETATM    8  H   LIG     1      19.315  32.062  12.926  1.00  0.00     0.170 HD
ENDROOT
BRANCH   2   9
HETATM    9  C   LIG     1      14.959  32.033  15.512  1.00  0.00     0.109 A 
HETATM   10  C   LIG     1      14.759  30.903  14.693  1.00  0.00     0.135 A 
HETATM   11  C   LIG     1      13.689  30.036  14.936  1.00  0.00     0.043 A 
HETATM   12  F   LIG     1      15.568  30.658  13.630  1.00  0.00    -0.205 F 
HETATM   13  C   LIG     1      12.807  30.286  15.989  1.00  0.00     0.006 A 
HETATM   14  C   LIG     1      12.988  31.408  16.799  1.00  0.00     0.043 A 
HETATM   15  C   LIG     1      14.054  32.283  16.564  1.00  0.00     0.135 A 
HETATM   16  F   LIG     1      14.214  33.355  17.380  1.00  0.00    -0.205 F 
ENDBRANCH   2   9
BRANCH   5  17
HETATM   17  C   LIG     1      20.058  33.957  12.271  1.00  0.00     0.036 A 
HETATM   18  C   LIG     1      19.694  34.454  11.010  1.00  0.00     0.031 A 
HETATM   19  C   LIG     1      20.550  35.313  10.314  1.00  0.00     0.026 A 
HETATM   20  C   LIG     1      21.770  35.697  10.878  1.00  0.00     0.034 A 
HETATM   21  C   LIG     1      22.131  35.226  12.144  1.00  0.00     0.026 A 
HETATM   22 CL   LIG     1      22.841  36.777  10.005  1.00  0.00    -0.084 Cl
HETATM   23  C   LIG     1      21.278  34.366  12.843  1.00  0.00     0.031 A 
ENDBRANCH   5  17
TORSDOF 2
ENDMDL
MODEL 9
REMARK VINA RESULT:      -7.5      2.035      2.485
REMARK  2 active torsions:
REMARK  status: ('A' for Active; 'I' for Inactive)
REMARK    1  A    between atoms: C_2  and  C_14 
REMARK       I    between atoms: C_2  and  N_3 
REMARK       I    between atoms: N_3  and  C_4 
REMARK       I    between atoms: C_4  and  N_5 
REMARK    2  A    between atoms: N_5  and  C_6 
ROOT
HETATM    1  O   LIG     1      17.318  36.905  20.371  1.00  0.00    -0.267 OA
HETATM    2  C   LIG     1      16.952  36.204  21.354  1.00  0.00     0.265 C 
HETATM    3  N   LIG     1      16.465  34.867  21.145  1.00  0.00    -0.275 N 
HETATM    4  C   LIG     1      16.103  34.339  19.860  1.00  0.00     0.327 C 
HETATM    5  N   LIG     1      15.734  32.956  19.744  1.00  0.00    -0.309 N 
HETATM    6  O   LIG     1      16.133  35.075  18.836  1.00  0.00    -0.247 OA
HETATM    7  H   LIG     1      16.392  34.230  21.970  1.00  0.00     0.173 HD
HETATM    8  H   LIG     1      15.986  32.320  20.535  1.00  0.00     0.170 HD
ENDROOT
BRANCH   2   9
HETATM    9  C   LIG     1      17.063  36.761  22.722  1.00  0.00     0.109 A 
HETATM   10  C   LIG     1      16.982  38.152  22.945  1.00  0.00     0.135 A 
HETATM   11  C   LIG     1      17.090  38.665  24.242  1.00  0.00     0.043 A 
HETATM   12  F   LIG     1      16.845  39.018  21.910  1.00  0.00    -0.205 F 
HETATM   13  C   LIG     1      17.283  37.806  25.324  1.00  0.00     0.006 A 
HETATM   14  C   LIG     1      17.377  36.429  25.114  1.00  0.00     0.043 A 
HETATM   15  C   LIG     1      17.272  35.904  23.822  1.00  0.00     0.135 A 
HETATM   16  F   LIG     1      17.349  34.560  23.652  1.00  0.00    -0.205 F 
ENDBRANCH   2   9
BRANCH   5  17
HETATM   17  C   LIG     1      15.148  32.370  18.569  1.00  0.00     0.036 A 
HETATM   18  C   LIG     1      14.149  31.395  18.710  1.00  0.00     0.031 A 
HETATM   19  C   LIG     1      13.549  30.826  17.583  1.00  0.00     0.026 A 
HETATM   20  C   LIG     1      13.931  31.238  16.303  1.00  0.00     0.034 A 
HETATM   21  C   LIG     1      14.908  32.226  16.151  1.00  0.00     0.026 A 
HETATM   22 CL   LIG     1      13.175  30.527  14.889  1.00  0.00    -0.084 Cl
HETATM   23  C   LIG     1      15.511  32.797  17.276  1.00  0.00     0.031 A 
ENDBRANCH   5  17
TORSDOF 2
ENDMDL
