REMARK  1 active torsions:
REMARK  status: ('A' for Active; 'I' for Inactive)
REMARK    1  A    between atoms: C_6  and  C_7 
ROOT
HETATM    1 CL   LIG     1       5.257   0.625   0.181  1.00  0.00    -0.084 Cl
HETATM    2  C   LIG     1       3.517   0.418   0.121  1.00  0.00     0.037 A 
HETATM    3  C   LIG     1       2.879  -0.408   1.049  1.00  0.00     0.048 A 
HETATM    4  C   LIG     1       1.491  -0.579   1.008  1.00  0.00     0.048 A 
HETATM    5 CL   LIG     1       0.739  -1.605   2.226  1.00  0.00    -0.083 Cl
HETATM    6  C   LIG     1       0.726   0.086   0.025  1.00  0.00     0.018 A 
HETATM    7  C   LIG     1       1.379   0.920  -0.909  1.00  0.00     0.048 A 
HETATM    8 CL   LIG     1       0.491   1.751  -2.184  1.00  0.00    -0.083 Cl
HETATM    9  C   LIG     1       2.768   1.080  -0.855  1.00  0.00     0.048 A 
ENDROOT
BRANCH   6  10
HETATM   10  C   LIG     1      -0.741  -0.088  -0.025  1.00  0.00    -0.023 A 
HETATM   11  C   LIG     1      -1.294  -1.325  -0.396  1.00  0.00     0.012 A 
HETATM   12  C   LIG     1      -2.682  -1.488  -0.443  1.00  0.00     0.001 A 
HETATM   13  C   LIG     1      -3.524  -0.419  -0.121  1.00  0.00     0.000 A 
HETATM   14  C   LIG     1      -2.979   0.814   0.248  1.00  0.00     0.001 A 
HETATM   15  C   LIG     1      -1.592   0.981   0.297  1.00  0.00     0.012 A 
ENDBRANCH   6  10
TORSDOF 1
