MODEL 1
REMARK VINA RESULT:      -7.5      0.000      0.000
REMARK  1 active torsions:
REMARK  status: ('A' for Active; 'I' for Inactive)
REMARK    1  A    between atoms: C_8  and  C_9 
ROOT
HETATM    1 CL   LIG     1      15.999  38.725  22.715  1.00  0.00    -0.083 Cl
HETATM    2  C   LIG     1      16.740  37.591  23.839  1.00  0.00     0.045 A 
HETATM    3  C   LIG     1      17.077  38.042  25.122  1.00  0.00     0.026 A 
HETATM    4  C   LIG     1      17.691  37.182  26.034  1.00  0.00     0.025 A 
HETATM    5  C   LIG     1      17.977  35.864  25.670  1.00  0.00     0.035 A 
HETATM    6 CL   LIG     1      18.750  34.785  26.817  1.00  0.00    -0.084 Cl
HETATM    7  C   LIG     1      17.645  35.404  24.392  1.00  0.00     0.038 A 
HETATM    8  C   LIG     1      17.027  36.261  23.467  1.00  0.00    -0.001 A 
ENDROOT
BRANCH   8   9
HETATM    9  C   LIG     1      16.673  35.746  22.127  1.00  0.00    -0.001 A 
HETATM   10  C   LIG     1      15.829  34.627  22.021  1.00  0.00     0.038 A 
HETATM   11  C   LIG     1      15.491  34.113  20.765  1.00  0.00     0.035 A 
HETATM   12  C   LIG     1      15.995  34.710  19.607  1.00  0.00     0.025 A 
HETATM   13 CL   LIG     1      14.436  32.716  20.645  1.00  0.00    -0.084 Cl
HETATM   14  C   LIG     1      16.835  35.822  19.701  1.00  0.00     0.026 A 
HETATM   15  C   LIG     1      17.179  36.345  20.954  1.00  0.00     0.045 A 
HETATM   16 CL   LIG     1      18.212  37.769  21.017  1.00  0.00    -0.083 Cl
ENDBRANCH   8   9
TORSDOF 1
ENDMDL
MODEL 2
REMARK VINA RESULT:      -7.5      0.087      5.117
REMARK  1 active torsions:
REMARK  status: ('A' for Active; 'I' for Inactive)
REMARK    1  A    between atoms: C_8  and  C_9 
ROOT
HETATM    1 CL   LIG     1      18.269  37.846  21.081  1.00  0.00    -0.083 Cl
HETATM    2  C   LIG     1      17.246  36.416  20.990  1.00  0.00     0.045 A 
HETATM    3  C   LIG     1      16.920  35.904  19.728  1.00  0.00     0.026 A 
HETATM    4  C   LIG     1      16.089  34.789  19.613  1.00  0.00     0.025 A 
HETATM    5  C   LIG     1      15.573  34.177  20.758  1.00  0.00     0.035 A 
HETATM    6 CL   LIG     1      14.528  32.776  20.611  1.00  0.00    -0.084 Cl
HETATM    7  C   LIG     1      15.893  34.681  22.023  1.00  0.00     0.038 A 
HETATM    8  C   LIG     1      16.728  35.803  22.151  1.00  0.00    -0.001 A 
ENDROOT
BRANCH   8   9
HETATM    9  C   LIG     1      17.062  36.307  23.500  1.00  0.00    -0.001 A 
HETATM   10  C   LIG     1      17.676  35.445  24.424  1.00  0.00     0.038 A 
HETATM   11  C   LIG     1      17.988  35.894  25.711  1.00  0.00     0.035 A 
HETATM   12  C   LIG     1      17.689  37.207  26.085  1.00  0.00     0.025 A 
HETATM   13 CL   LIG     1      18.754  34.809  26.856  1.00  0.00    -0.084 Cl
HETATM   14  C   LIG     1      17.079  38.072  25.173  1.00  0.00     0.026 A 
HETATM   15  C   LIG     1      16.762  37.632  23.883  1.00  0.00     0.045 A 
HETATM   16 CL   LIG     1      16.025  38.772  22.761  1.00  0.00    -0.083 Cl
ENDBRANCH   8   9
TORSDOF 1
ENDMDL
MODEL 3
REMARK VINA RESULT:      -7.1      2.619      3.862
REMARK  1 active torsions:
REMARK  status: ('A' for Active; 'I' for Inactive)
REMARK    1  A    between atoms: C_8  and  C_9 
ROOT
HETATM    1 CL   LIG     1      15.545  37.676  22.775  1.00  0.00    -0.083 Cl
HETATM    2  C   LIG     1      17.020  37.925  21.847  1.00  0.00     0.045 A 
HETATM    3  C   LIG     1      17.756  39.097  22.060  1.00  0.00     0.026 A 
HETATM    4  C   LIG     1      18.917  39.345  21.324  1.00  0.00     0.025 A 
HETATM    5  C   LIG     1      19.349  38.424  20.367  1.00  0.00     0.035 A 
HETATM    6 CL   LIG     1      20.807  38.737  19.442  1.00  0.00    -0.084 Cl
HETATM    7  C   LIG     1      18.621  37.250  20.146  1.00  0.00     0.038 A 
HETATM    8  C   LIG     1      17.452  36.991  20.881  1.00  0.00    -0.001 A 
ENDROOT
BRANCH   8   9
HETATM    9  C   LIG     1      16.709  35.737  20.639  1.00  0.00    -0.001 A 
HETATM   10  C   LIG     1      16.210  35.469  19.353  1.00  0.00     0.038 A 
HETATM   11  C   LIG     1      15.491  34.296  19.103  1.00  0.00     0.035 A 
HETATM   12  C   LIG     1      15.264  33.382  20.135  1.00  0.00     0.025 A 
HETATM   13 CL   LIG     1      14.874  33.974  17.492  1.00  0.00    -0.084 Cl
HETATM   14  C   LIG     1      15.755  33.638  21.417  1.00  0.00     0.026 A 
HETATM   15  C   LIG     1      16.476  34.810  21.678  1.00  0.00     0.045 A 
HETATM   16 CL   LIG     1      17.104  35.068  23.303  1.00  0.00    -0.083 Cl
ENDBRANCH   8   9
TORSDOF 1
ENDMDL
MODEL 4
REMARK VINA RESULT:      -7.1      2.640      5.641
REMARK  1 active torsions:
REMARK  status: ('A' for Active; 'I' for Inactive)
REMARK    1  A    between atoms: C_8  and  C_9 
ROOT
HETATM    1 CL   LIG     1      17.168  35.045  23.245  1.00  0.00    -0.083 Cl
HETATM    2  C   LIG     1      16.526  34.795  21.625  1.00  0.00     0.045 A 
HETATM    3  C   LIG     1      15.807  33.622  21.362  1.00  0.00     0.026 A 
HETATM    4  C   LIG     1      15.306  33.374  20.083  1.00  0.00     0.025 A 
HETATM    5  C   LIG     1      15.521  34.296  19.055  1.00  0.00     0.035 A 
HETATM    6 CL   LIG     1      14.890  33.982  17.448  1.00  0.00    -0.084 Cl
HETATM    7  C   LIG     1      16.237  35.470  19.308  1.00  0.00     0.038 A 
HETATM    8  C   LIG     1      16.746  35.729  20.591  1.00  0.00    -0.001 A 
ENDROOT
BRANCH   8   9
HETATM    9  C   LIG     1      17.488  36.985  20.835  1.00  0.00    -0.001 A 
HETATM   10  C   LIG     1      18.655  37.249  20.099  1.00  0.00     0.038 A 
HETATM   11  C   LIG     1      19.382  38.423  20.322  1.00  0.00     0.035 A 
HETATM   12  C   LIG     1      18.949  39.340  21.282  1.00  0.00     0.025 A 
HETATM   13 CL   LIG     1      20.837  38.741  19.396  1.00  0.00    -0.084 Cl
HETATM   14  C   LIG     1      17.790  39.088  22.020  1.00  0.00     0.026 A 
HETATM   15  C   LIG     1      17.055  37.916  21.804  1.00  0.00     0.045 A 
HETATM   16 CL   LIG     1      15.583  37.661  22.735  1.00  0.00    -0.083 Cl
ENDBRANCH   8   9
TORSDOF 1
ENDMDL
MODEL 5
REMARK VINA RESULT:      -6.0      1.523      3.006
REMARK  1 active torsions:
REMARK  status: ('A' for Active; 'I' for Inactive)
REMARK    1  A    between atoms: C_8  and  C_9 
ROOT
HETATM    1 CL   LIG     1      17.045  39.800  22.817  1.00  0.00    -0.083 Cl
HETATM    2  C   LIG     1      17.229  38.343  23.788  1.00  0.00     0.045 A 
HETATM    3  C   LIG     1      17.083  38.440  25.177  1.00  0.00     0.026 A 
HETATM    4  C   LIG     1      17.249  37.313  25.984  1.00  0.00     0.025 A 
HETATM    5  C   LIG     1      17.565  36.080  25.410  1.00  0.00     0.035 A 
HETATM    6 CL   LIG     1      17.774  34.665  26.426  1.00  0.00    -0.084 Cl
HETATM    7  C   LIG     1      17.713  35.972  24.023  1.00  0.00     0.038 A 
HETATM    8  C   LIG     1      17.548  37.100  23.202  1.00  0.00    -0.001 A 
ENDROOT
BRANCH   8   9
HETATM    9  C   LIG     1      17.695  36.956  21.738  1.00  0.00    -0.001 A 
HETATM   10  C   LIG     1      18.555  37.824  21.044  1.00  0.00     0.038 A 
HETATM   11  C   LIG     1      18.701  37.718  19.658  1.00  0.00     0.035 A 
HETATM   12  C   LIG     1      17.987  36.745  18.953  1.00  0.00     0.025 A 
HETATM   13 CL   LIG     1      19.778  38.808  18.803  1.00  0.00    -0.084 Cl
HETATM   14  C   LIG     1      17.130  35.877  19.632  1.00  0.00     0.026 A 
HETATM   15  C   LIG     1      16.977  35.975  21.021  1.00  0.00     0.045 A 
HETATM   16 CL   LIG     1      15.910  34.835  21.834  1.00  0.00    -0.083 Cl
ENDBRANCH   8   9
TORSDOF 1
ENDMDL
MODEL 6
REMARK VINA RESULT:      -6.0      1.485      5.306
REMARK  1 active torsions:
REMARK  status: ('A' for Active; 'I' for Inactive)
REMARK    1  A    between atoms: C_8  and  C_9 
ROOT
HETATM    1 CL   LIG     1      15.828  34.822  21.864  1.00  0.00    -0.083 Cl
HETATM    2  C   LIG     1      16.913  35.937  21.040  1.00  0.00     0.045 A 
HETATM    3  C   LIG     1      17.048  35.837  19.650  1.00  0.00     0.026 A 
HETATM    4  C   LIG     1      17.919  36.684  18.963  1.00  0.00     0.025 A 
HETATM    5  C   LIG     1      18.665  37.637  19.660  1.00  0.00     0.035 A 
HETATM    6 CL   LIG     1      19.760  38.700  18.795  1.00  0.00    -0.084 Cl
HETATM    7  C   LIG     1      18.538  37.745  21.049  1.00  0.00     0.038 A 
HETATM    8  C   LIG     1      17.664  36.898  21.750  1.00  0.00    -0.001 A 
ENDROOT
BRANCH   8   9
HETATM    9  C   LIG     1      17.537  37.042  23.215  1.00  0.00    -0.001 A 
HETATM   10  C   LIG     1      17.700  35.913  24.035  1.00  0.00     0.038 A 
HETATM   11  C   LIG     1      17.571  36.021  25.423  1.00  0.00     0.035 A 
HETATM   12  C   LIG     1      17.276  37.258  26.003  1.00  0.00     0.025 A 
HETATM   13 CL   LIG     1      17.778  34.604  26.436  1.00  0.00    -0.084 Cl
HETATM   14  C   LIG     1      17.111  38.387  25.197  1.00  0.00     0.026 A 
HETATM   15  C   LIG     1      17.239  38.289  23.806  1.00  0.00     0.045 A 
HETATM   16 CL   LIG     1      17.056  39.749  22.839  1.00  0.00    -0.083 Cl
ENDBRANCH   8   9
TORSDOF 1
ENDMDL
MODEL 7
REMARK VINA RESULT:      -5.8      8.392     11.026
REMARK  1 active torsions:
REMARK  status: ('A' for Active; 'I' for Inactive)
REMARK    1  A    between atoms: C_8  and  C_9 
ROOT
HETATM    1 CL   LIG     1      13.336  30.565  17.025  1.00  0.00    -0.083 Cl
HETATM    2  C   LIG     1      14.524  31.225  15.907  1.00  0.00     0.045 A 
HETATM    3  C   LIG     1      15.299  32.317  16.319  1.00  0.00     0.026 A 
HETATM    4  C   LIG     1      16.232  32.887  15.452  1.00  0.00     0.025 A 
HETATM    5  C   LIG     1      16.399  32.372  14.164  1.00  0.00     0.035 A 
HETATM    6 CL   LIG     1      17.572  33.090  13.076  1.00  0.00    -0.084 Cl
HETATM    7  C   LIG     1      15.630  31.281  13.743  1.00  0.00     0.038 A 
HETATM    8  C   LIG     1      14.688  30.701  14.607  1.00  0.00    -0.001 A 
ENDROOT
BRANCH   8   9
HETATM    9  C   LIG     1      13.899  29.540  14.143  1.00  0.00    -0.001 A 
HETATM   10  C   LIG     1      12.526  29.699  13.888  1.00  0.00     0.038 A 
HETATM   11  C   LIG     1      11.756  28.613  13.462  1.00  0.00     0.035 A 
HETATM   12  C   LIG     1      12.349  27.360  13.288  1.00  0.00     0.025 A 
HETATM   13 CL   LIG     1      10.042  28.823  13.147  1.00  0.00    -0.084 Cl
HETATM   14  C   LIG     1      13.713  27.191  13.538  1.00  0.00     0.026 A 
HETATM   15  C   LIG     1      14.494  28.272  13.966  1.00  0.00     0.045 A 
HETATM   16 CL   LIG     1      16.214  28.015  14.234  1.00  0.00    -0.083 Cl
ENDBRANCH   8   9
TORSDOF 1
ENDMDL
MODEL 8
REMARK VINA RESULT:      -5.6      2.326      5.482
REMARK  1 active torsions:
REMARK  status: ('A' for Active; 'I' for Inactive)
REMARK    1  A    between atoms: C_8  and  C_9 
ROOT
HETATM    1 CL   LIG     1      16.809  34.806  23.418  1.00  0.00    -0.083 Cl
HETATM    2  C   LIG     1      16.350  34.738  21.720  1.00  0.00     0.045 A 
HETATM    3  C   LIG     1      15.667  33.607  21.255  1.00  0.00     0.026 A 
HETATM    4  C   LIG     1      15.309  33.503  19.909  1.00  0.00     0.025 A 
HETATM    5  C   LIG     1      15.634  34.526  19.016  1.00  0.00     0.035 A 
HETATM    6 CL   LIG     1      15.185  34.393  17.326  1.00  0.00    -0.084 Cl
HETATM    7  C   LIG     1      16.317  35.660  19.471  1.00  0.00     0.038 A 
HETATM    8  C   LIG     1      16.681  35.775  20.822  1.00  0.00    -0.001 A 
ENDROOT
BRANCH   8   9
HETATM    9  C   LIG     1      17.389  36.990  21.280  1.00  0.00    -0.001 A 
HETATM   10  C   LIG     1      17.127  37.496  22.564  1.00  0.00     0.038 A 
HETATM   11  C   LIG     1      17.774  38.651  23.014  1.00  0.00     0.035 A 
HETATM   12  C   LIG     1      18.684  39.311  22.185  1.00  0.00     0.025 A 
HETATM   13 CL   LIG     1      17.439  39.274  24.620  1.00  0.00    -0.084 Cl
HETATM   14  C   LIG     1      18.952  38.816  20.906  1.00  0.00     0.026 A 
HETATM   15  C   LIG     1      18.310  37.660  20.446  1.00  0.00     0.045 A 
HETATM   16 CL   LIG     1      18.708  37.058  18.840  1.00  0.00    -0.083 Cl
ENDBRANCH   8   9
TORSDOF 1
ENDMDL
MODEL 9
REMARK VINA RESULT:      -5.5     15.065     16.215
REMARK  1 active torsions:
REMARK  status: ('A' for Active; 'I' for Inactive)
REMARK    1  A    between atoms: C_8  and  C_9 
ROOT
HETATM    1 CL   LIG     1      28.310  23.238  22.210  1.00  0.00    -0.083 Cl
HETATM    2  C   LIG     1      26.569  23.179  21.956  1.00  0.00     0.045 A 
HETATM    3  C   LIG     1      25.754  22.726  23.000  1.00  0.00     0.026 A 
HETATM    4  C   LIG     1      24.371  22.638  22.829  1.00  0.00     0.025 A 
HETATM    5  C   LIG     1      23.792  23.000  21.610  1.00  0.00     0.035 A 
HETATM    6 CL   LIG     1      22.054  22.888  21.396  1.00  0.00    -0.084 Cl
HETATM    7  C   LIG     1      24.598  23.454  20.561  1.00  0.00     0.038 A 
HETATM    8  C   LIG     1      25.990  23.546  20.723  1.00  0.00    -0.001 A 
ENDROOT
BRANCH   8   9
HETATM    9  C   LIG     1      26.817  24.043  19.603  1.00  0.00    -0.001 A 
HETATM   10  C   LIG     1      27.160  25.405  19.552  1.00  0.00     0.038 A 
HETATM   11  C   LIG     1      27.930  25.901  18.495  1.00  0.00     0.035 A 
HETATM   12  C   LIG     1      28.361  25.043  17.481  1.00  0.00     0.025 A 
HETATM   13 CL   LIG     1      28.352  27.603  18.443  1.00  0.00    -0.084 Cl
HETATM   14  C   LIG     1      28.026  23.687  17.522  1.00  0.00     0.026 A 
HETATM   15  C   LIG     1      27.255  23.180  18.576  1.00  0.00     0.045 A 
HETATM   16 CL   LIG     1      26.889  21.458  18.599  1.00  0.00    -0.083 Cl
ENDBRANCH   8   9
TORSDOF 1
ENDMDL
MODEL 10
REMARK VINA RESULT:      -5.5     15.068     16.378
REMARK  1 active torsions:
REMARK  status: ('A' for Active; 'I' for Inactive)
REMARK    1  A    between atoms: C_8  and  C_9 
ROOT
HETATM    1 CL   LIG     1      26.909  21.482  18.544  1.00  0.00    -0.083 Cl
HETATM    2  C   LIG     1      27.273  23.204  18.533  1.00  0.00     0.045 A 
HETATM    3  C   LIG     1      28.047  23.720  17.486  1.00  0.00     0.026 A 
HETATM    4  C   LIG     1      28.380  25.075  17.456  1.00  0.00     0.025 A 
HETATM    5  C   LIG     1      27.945  25.927  18.474  1.00  0.00     0.035 A 
HETATM    6 CL   LIG     1      28.366  27.629  18.434  1.00  0.00    -0.084 Cl
HETATM    7  C   LIG     1      27.171  25.422  19.524  1.00  0.00     0.038 A 
HETATM    8  C   LIG     1      26.830  24.060  19.564  1.00  0.00    -0.001 A 
ENDROOT
BRANCH   8   9
HETATM    9  C   LIG     1      25.999  23.555  20.678  1.00  0.00    -0.001 A 
HETATM   10  C   LIG     1      24.605  23.481  20.518  1.00  0.00     0.038 A 
HETATM   11  C   LIG     1      23.797  23.020  21.562  1.00  0.00     0.035 A 
HETATM   12  C   LIG     1      24.374  22.631  22.773  1.00  0.00     0.025 A 
HETATM   13 CL   LIG     1      22.057  22.933  21.350  1.00  0.00    -0.084 Cl
HETATM   14  C   LIG     1      25.759  22.700  22.942  1.00  0.00     0.026 A 
HETATM   15  C   LIG     1      26.577  23.160  21.904  1.00  0.00     0.045 A 
HETATM   16 CL   LIG     1      28.319  23.195  22.156  1.00  0.00    -0.083 Cl
ENDBRANCH   8   9
TORSDOF 1
ENDMDL
MODEL 11
REMARK VINA RESULT:      -5.5     15.206     17.065
REMARK  1 active torsions:
REMARK  status: ('A' for Active; 'I' for Inactive)
REMARK    1  A    between atoms: C_8  and  C_9 
ROOT
HETATM    1 CL   LIG     1      21.794  23.065  21.346  1.00  0.00    -0.083 Cl
HETATM    2  C   LIG     1      23.012  22.078  20.546  1.00  0.00     0.045 A 
HETATM    3  C   LIG     1      22.917  21.887  19.162  1.00  0.00     0.026 A 
HETATM    4  C   LIG     1      23.847  21.088  18.494  1.00  0.00     0.025 A 
HETATM    5  C   LIG     1      24.880  20.473  19.205  1.00  0.00     0.035 A 
HETATM    6 CL   LIG     1      26.048  19.469  18.364  1.00  0.00    -0.084 Cl
HETATM    7  C   LIG     1      24.984  20.658  20.588  1.00  0.00     0.038 A 
HETATM    8  C   LIG     1      24.054  21.459  21.269  1.00  0.00    -0.001 A 
ENDROOT
BRANCH   8   9
HETATM    9  C   LIG     1      24.194  21.650  22.728  1.00  0.00    -0.001 A 
HETATM   10  C   LIG     1      25.053  22.651  23.211  1.00  0.00     0.038 A 
HETATM   11  C   LIG     1      25.215  22.842  24.587  1.00  0.00     0.035 A 
HETATM   12  C   LIG     1      24.520  22.034  25.490  1.00  0.00     0.025 A 
HETATM   13 CL   LIG     1      26.290  24.096  25.178  1.00  0.00    -0.084 Cl
HETATM   14  C   LIG     1      23.664  21.035  25.021  1.00  0.00     0.026 A 
HETATM   15  C   LIG     1      23.496  20.836  23.645  1.00  0.00     0.045 A 
HETATM   16 CL   LIG     1      22.378  19.587  23.105  1.00  0.00    -0.083 Cl
ENDBRANCH   8   9
TORSDOF 1
ENDMDL
MODEL 12
REMARK VINA RESULT:      -5.4     15.122     16.268
REMARK  1 active torsions:
REMARK  status: ('A' for Active; 'I' for Inactive)
REMARK    1  A    between atoms: C_8  and  C_9 
ROOT
HETATM    1 CL   LIG     1      26.284  21.875  22.481  1.00  0.00    -0.083 Cl
HETATM    2  C   LIG     1      26.682  23.253  21.461  1.00  0.00     0.045 A 
HETATM    3  C   LIG     1      27.628  24.178  21.922  1.00  0.00     0.026 A 
HETATM    4  C   LIG     1      27.951  25.299  21.155  1.00  0.00     0.025 A 
HETATM    5  C   LIG     1      27.329  25.507  19.922  1.00  0.00     0.035 A 
HETATM    6 CL   LIG     1      27.735  26.917  18.960  1.00  0.00    -0.084 Cl
HETATM    7  C   LIG     1      26.382  24.590  19.453  1.00  0.00     0.038 A 
HETATM    8  C   LIG     1      26.050  23.459  20.216  1.00  0.00    -0.001 A 
ENDROOT
BRANCH   8   9
HETATM    9  C   LIG     1      25.058  22.497  19.691  1.00  0.00    -0.001 A 
HETATM   10  C   LIG     1      25.415  21.651  18.628  1.00  0.00     0.038 A 
HETATM   11  C   LIG     1      24.490  20.743  18.104  1.00  0.00     0.035 A 
HETATM   12  C   LIG     1      23.200  20.674  18.637  1.00  0.00     0.025 A 
HETATM   13 CL   LIG     1      24.948  19.691  16.777  1.00  0.00    -0.084 Cl
HETATM   14  C   LIG     1      22.834  21.511  19.694  1.00  0.00     0.026 A 
HETATM   15  C   LIG     1      23.753  22.424  20.225  1.00  0.00     0.045 A 
HETATM   16 CL   LIG     1      23.253  23.431  21.580  1.00  0.00    -0.083 Cl
ENDBRANCH   8   9
TORSDOF 1
ENDMDL
MODEL 13
REMARK VINA RESULT:      -5.4     15.285     16.497
REMARK  1 active torsions:
REMARK  status: ('A' for Active; 'I' for Inactive)
REMARK    1  A    between atoms: C_8  and  C_9 
ROOT
HETATM    1 CL   LIG     1      22.426  19.233  22.909  1.00  0.00    -0.083 Cl
HETATM    2  C   LIG     1      23.418  20.538  23.550  1.00  0.00     0.045 A 
HETATM    3  C   LIG     1      23.535  20.671  24.939  1.00  0.00     0.026 A 
HETATM    4  C   LIG     1      24.290  21.709  25.487  1.00  0.00     0.025 A 
HETATM    5  C   LIG     1      24.933  22.626  24.651  1.00  0.00     0.035 A 
HETATM    6 CL   LIG     1      25.880  23.931  25.342  1.00  0.00    -0.084 Cl
HETATM    7  C   LIG     1      24.822  22.502  23.262  1.00  0.00     0.038 A 
HETATM    8  C   LIG     1      24.065  21.461  22.700  1.00  0.00    -0.001 A 
ENDROOT
BRANCH   8   9
HETATM    9  C   LIG     1      23.976  21.343  21.229  1.00  0.00    -0.001 A 
HETATM   10  C   LIG     1      24.914  20.554  20.544  1.00  0.00     0.038 A 
HETATM   11  C   LIG     1      24.859  20.439  19.151  1.00  0.00     0.035 A 
HETATM   12  C   LIG     1      23.868  21.112  18.433  1.00  0.00     0.025 A 
HETATM   13 CL   LIG     1      26.036  19.449  18.307  1.00  0.00    -0.084 Cl
HETATM   14  C   LIG     1      22.930  21.900  19.105  1.00  0.00     0.026 A 
HETATM   15  C   LIG     1      22.976  22.022  20.499  1.00  0.00     0.045 A 
HETATM   16 CL   LIG     1      21.751  22.999  21.300  1.00  0.00    -0.083 Cl
ENDBRANCH   8   9
TORSDOF 1
ENDMDL
MODEL 14
REMARK VINA RESULT:      -5.3     15.928     17.861
REMARK  1 active torsions:
REMARK  status: ('A' for Active; 'I' for Inactive)
REMARK    1  A    between atoms: C_8  and  C_9 
ROOT
HETATM    1 CL   LIG     1      24.146  19.306  21.634  1.00  0.00    -0.083 Cl
HETATM    2  C   LIG     1      23.276  19.255  20.105  1.00  0.00     0.045 A 
HETATM    3  C   LIG     1      22.418  18.176  19.857  1.00  0.00     0.026 A 
HETATM    4  C   LIG     1      21.731  18.085  18.645  1.00  0.00     0.025 A 
HETATM    5  C   LIG     1      21.897  19.071  17.669  1.00  0.00     0.035 A 
HETATM    6 CL   LIG     1      21.034  18.954  16.147  1.00  0.00    -0.084 Cl
HETATM    7  C   LIG     1      22.752  20.153  17.907  1.00  0.00     0.038 A 
HETATM    8  C   LIG     1      23.447  20.254  19.123  1.00  0.00    -0.001 A 
ENDROOT
BRANCH   8   9
HETATM    9  C   LIG     1      24.333  21.415  19.355  1.00  0.00    -0.001 A 
HETATM   10  C   LIG     1      25.549  21.503  18.658  1.00  0.00     0.038 A 
HETATM   11  C   LIG     1      26.410  22.584  18.871  1.00  0.00     0.035 A 
HETATM   12  C   LIG     1      26.064  23.584  19.783  1.00  0.00     0.025 A 
HETATM   13 CL   LIG     1      27.926  22.683  17.994  1.00  0.00    -0.084 Cl
HETATM   14  C   LIG     1      24.857  23.506  20.481  1.00  0.00     0.026 A 
HETATM   15  C   LIG     1      23.987  22.428  20.275  1.00  0.00     0.045 A 
HETATM   16 CL   LIG     1      22.463  22.395  21.155  1.00  0.00    -0.083 Cl
ENDBRANCH   8   9
TORSDOF 1
ENDMDL
MODEL 15
REMARK VINA RESULT:      -5.3     15.229     16.523
REMARK  1 active torsions:
REMARK  status: ('A' for Active; 'I' for Inactive)
REMARK    1  A    between atoms: C_8  and  C_9 
ROOT
HETATM    1 CL   LIG     1      26.830  20.857  18.733  1.00  0.00    -0.083 Cl
HETATM    2  C   LIG     1      27.052  22.602  18.710  1.00  0.00     0.045 A 
HETATM    3  C   LIG     1      28.043  23.142  17.880  1.00  0.00     0.026 A 
HETATM    4  C   LIG     1      28.269  24.519  17.854  1.00  0.00     0.025 A 
HETATM    5  C   LIG     1      27.507  25.369  18.659  1.00  0.00     0.035 A 
HETATM    6 CL   LIG     1      27.793  27.100  18.625  1.00  0.00    -0.084 Cl
HETATM    7  C   LIG     1      26.515  24.841  19.491  1.00  0.00     0.038 A 
HETATM    8  C   LIG     1      26.279  23.457  19.525  1.00  0.00    -0.001 A 
ENDROOT
BRANCH   8   9
HETATM    9  C   LIG     1      25.215  22.925  20.402  1.00  0.00    -0.001 A 
HETATM   10  C   LIG     1      25.401  22.938  21.795  1.00  0.00     0.038 A 
HETATM   11  C   LIG     1      24.414  22.428  22.645  1.00  0.00     0.035 A 
HETATM   12  C   LIG     1      23.236  21.900  22.111  1.00  0.00     0.025 A 
HETATM   13 CL   LIG     1      24.658  22.450  24.382  1.00  0.00    -0.084 Cl
HETATM   14  C   LIG     1      23.042  21.882  20.728  1.00  0.00     0.026 A 
HETATM   15  C   LIG     1      24.023  22.390  19.868  1.00  0.00     0.045 A 
HETATM   16 CL   LIG     1      23.714  22.376  18.135  1.00  0.00    -0.083 Cl
ENDBRANCH   8   9
TORSDOF 1
ENDMDL
MODEL 16
REMARK VINA RESULT:      -5.2     15.198     16.217
REMARK  1 active torsions:
REMARK  status: ('A' for Active; 'I' for Inactive)
REMARK    1  A    between atoms: C_8  and  C_9 
ROOT
HETATM    1 CL   LIG     1      25.852  25.109  18.261  1.00  0.00    -0.083 Cl
HETATM    2  C   LIG     1      26.531  24.603  19.804  1.00  0.00     0.045 A 
HETATM    3  C   LIG     1      27.443  25.450  20.446  1.00  0.00     0.026 A 
HETATM    4  C   LIG     1      28.025  25.073  21.657  1.00  0.00     0.025 A 
HETATM    5  C   LIG     1      27.702  23.844  22.237  1.00  0.00     0.035 A 
HETATM    6 CL   LIG     1      28.434  23.371  23.759  1.00  0.00    -0.084 Cl
HETATM    7  C   LIG     1      26.792  22.990  21.604  1.00  0.00     0.038 A 
HETATM    8  C   LIG     1      26.201  23.360  20.385  1.00  0.00    -0.001 A 
ENDROOT
BRANCH   8   9
HETATM    9  C   LIG     1      25.232  22.446  19.744  1.00  0.00    -0.001 A 
HETATM   10  C   LIG     1      25.646  21.654  18.660  1.00  0.00     0.038 A 
HETATM   11  C   LIG     1      24.744  20.792  18.028  1.00  0.00     0.035 A 
HETATM   12  C   LIG     1      23.422  20.716  18.473  1.00  0.00     0.025 A 
HETATM   13 CL   LIG     1      25.273  19.808  16.675  1.00  0.00    -0.084 Cl
HETATM   14  C   LIG     1      23.000  21.499  19.550  1.00  0.00     0.026 A 
HETATM   15  C   LIG     1      23.895  22.365  20.190  1.00  0.00     0.045 A 
HETATM   16 CL   LIG     1      23.322  23.304  21.564  1.00  0.00    -0.083 Cl
ENDBRANCH   8   9
TORSDOF 1
ENDMDL
MODEL 17
REMARK VINA RESULT:      -5.2     15.544     16.621
REMARK  1 active torsions:
REMARK  status: ('A' for Active; 'I' for Inactive)
REMARK    1  A    between atoms: C_8  and  C_9 
ROOT
HETATM    1 CL   LIG     1      23.553  22.137  18.014  1.00  0.00    -0.083 Cl
HETATM    2  C   LIG     1      24.026  22.343  19.697  1.00  0.00     0.045 A 
HETATM    3  C   LIG     1      23.055  22.177  20.692  1.00  0.00     0.026 A 
HETATM    4  C   LIG     1      23.383  22.359  22.036  1.00  0.00     0.025 A 
HETATM    5  C   LIG     1      24.686  22.711  22.398  1.00  0.00     0.035 A 
HETATM    6 CL   LIG     1      25.097  22.940  24.088  1.00  0.00    -0.084 Cl
HETATM    7  C   LIG     1      25.664  22.879  21.412  1.00  0.00     0.038 A 
HETATM    8  C   LIG     1      25.344  22.698  20.056  1.00  0.00    -0.001 A 
ENDROOT
BRANCH   8   9
HETATM    9  C   LIG     1      26.399  22.867  19.035  1.00  0.00    -0.001 A 
HETATM   10  C   LIG     1      27.061  21.733  18.535  1.00  0.00     0.038 A 
HETATM   11  C   LIG     1      28.073  21.869  17.579  1.00  0.00     0.035 A 
HETATM   12  C   LIG     1      28.432  23.137  17.117  1.00  0.00     0.025 A 
HETATM   13 CL   LIG     1      28.892  20.445  16.962  1.00  0.00    -0.084 Cl
HETATM   14  C   LIG     1      27.780  24.271  17.607  1.00  0.00     0.026 A 
HETATM   15  C   LIG     1      26.766  24.147  18.564  1.00  0.00     0.045 A 
HETATM   16 CL   LIG     1      25.952  25.604  19.124  1.00  0.00    -0.083 Cl
ENDBRANCH   8   9
TORSDOF 1
ENDMDL
MODEL 18
REMARK VINA RESULT:      -5.2     15.183     16.793
REMARK  1 active torsions:
REMARK  status: ('A' for Active; 'I' for Inactive)
REMARK    1  A    between atoms: C_8  and  C_9 
ROOT
HETATM    1 CL   LIG     1      23.226  23.405  21.525  1.00  0.00    -0.083 Cl
HETATM    2  C   LIG     1      23.831  22.460  20.169  1.00  0.00     0.045 A 
HETATM    3  C   LIG     1      22.929  21.672  19.444  1.00  0.00     0.026 A 
HETATM    4  C   LIG     1      23.374  20.887  18.380  1.00  0.00     0.025 A 
HETATM    5  C   LIG     1      24.727  20.881  18.031  1.00  0.00     0.035 A 
HETATM    6 CL   LIG     1      25.285  19.893  16.694  1.00  0.00    -0.084 Cl
HETATM    7  C   LIG     1      25.637  21.665  18.749  1.00  0.00     0.038 A 
HETATM    8  C   LIG     1      25.199  22.458  19.822  1.00  0.00    -0.001 A 
ENDROOT
BRANCH   8   9
HETATM    9  C   LIG     1      26.179  23.288  20.554  1.00  0.00    -0.001 A 
HETATM   10  C   LIG     1      26.672  22.840  21.791  1.00  0.00     0.038 A 
HETATM   11  C   LIG     1      27.588  23.615  22.510  1.00  0.00     0.035 A 
HETATM   12  C   LIG     1      28.017  24.842  21.999  1.00  0.00     0.025 A 
HETATM   13 CL   LIG     1      28.197  23.044  24.053  1.00  0.00    -0.084 Cl
HETATM   14  C   LIG     1      27.533  25.297  20.770  1.00  0.00     0.026 A 
HETATM   15  C   LIG     1      26.616  24.529  20.043  1.00  0.00     0.045 A 
HETATM   16 CL   LIG     1      26.063  25.131  18.484  1.00  0.00    -0.083 Cl
ENDBRANCH   8   9
TORSDOF 1
ENDMDL
MODEL 19
REMARK VINA RESULT:      -5.1     14.970     15.904
REMARK  1 active torsions:
REMARK  status: ('A' for Active; 'I' for Inactive)
REMARK    1  A    between atoms: C_8  and  C_9 
ROOT
HETATM    1 CL   LIG     1      26.330  25.461  18.734  1.00  0.00    -0.083 Cl
HETATM    2  C   LIG     1      27.107  25.028  20.253  1.00  0.00     0.045 A 
HETATM    3  C   LIG     1      28.170  25.815  20.711  1.00  0.00     0.026 A 
HETATM    4  C   LIG     1      28.830  25.488  21.897  1.00  0.00     0.025 A 
HETATM    5  C   LIG     1      28.434  24.369  22.634  1.00  0.00     0.035 A 
HETATM    6 CL   LIG     1      29.265  23.959  24.124  1.00  0.00    -0.084 Cl
HETATM    7  C   LIG     1      27.373  23.576  22.185  1.00  0.00     0.038 A 
HETATM    8  C   LIG     1      26.702  23.896  20.993  1.00  0.00    -0.001 A 
ENDROOT
BRANCH   8   9
HETATM    9  C   LIG     1      25.574  23.051  20.548  1.00  0.00    -0.001 A 
HETATM   10  C   LIG     1      24.294  23.274  21.083  1.00  0.00     0.038 A 
HETATM   11  C   LIG     1      23.214  22.477  20.689  1.00  0.00     0.035 A 
HETATM   12  C   LIG     1      23.405  21.453  19.759  1.00  0.00     0.025 A 
HETATM   13 CL   LIG     1      21.620  22.766  21.364  1.00  0.00    -0.084 Cl
HETATM   14  C   LIG     1      24.673  21.222  19.221  1.00  0.00     0.026 A 
HETATM   15  C   LIG     1      25.761  22.014  19.609  1.00  0.00     0.045 A 
HETATM   16 CL   LIG     1      27.331  21.705  18.876  1.00  0.00    -0.083 Cl
ENDBRANCH   8   9
TORSDOF 1
ENDMDL
MODEL 20
REMARK VINA RESULT:      -5.0     15.394     16.840
REMARK  1 active torsions:
REMARK  status: ('A' for Active; 'I' for Inactive)
REMARK    1  A    between atoms: C_8  and  C_9 
ROOT
HETATM    1 CL   LIG     1      26.664  21.434  17.539  1.00  0.00    -0.083 Cl
HETATM    2  C   LIG     1      25.370  21.813  18.670  1.00  0.00     0.045 A 
HETATM    3  C   LIG     1      24.167  21.102  18.576  1.00  0.00     0.026 A 
HETATM    4  C   LIG     1      23.107  21.392  19.437  1.00  0.00     0.025 A 
HETATM    5  C   LIG     1      23.239  22.396  20.398  1.00  0.00     0.035 A 
HETATM    6 CL   LIG     1      21.906  22.760  21.479  1.00  0.00    -0.084 Cl
HETATM    7  C   LIG     1      24.437  23.112  20.501  1.00  0.00     0.038 A 
HETATM    8  C   LIG     1      25.509  22.829  19.639  1.00  0.00    -0.001 A 
ENDROOT
BRANCH   8   9
HETATM    9  C   LIG     1      26.769  23.591  19.778  1.00  0.00    -0.001 A 
HETATM   10  C   LIG     1      26.873  24.862  19.190  1.00  0.00     0.038 A 
HETATM   11  C   LIG     1      28.059  25.596  19.295  1.00  0.00     0.035 A 
HETATM   12  C   LIG     1      29.150  25.065  19.987  1.00  0.00     0.025 A 
HETATM   13 CL   LIG     1      28.176  27.183  18.556  1.00  0.00    -0.084 Cl
HETATM   14  C   LIG     1      29.058  23.801  20.575  1.00  0.00     0.026 A 
HETATM   15  C   LIG     1      27.875  23.058  20.476  1.00  0.00     0.045 A 
HETATM   16 CL   LIG     1      27.798  21.486  21.265  1.00  0.00    -0.083 Cl
ENDBRANCH   8   9
TORSDOF 1
ENDMDL
