REMARK  1 active torsions:
REMARK  status: ('A' for Active; 'I' for Inactive)
REMARK    1  A    between atoms: C_8  and  C_9 
ROOT
HETATM    1 CL   LIG     1       0.485   2.631   0.885  1.00  0.00    -0.083 Cl
HETATM    2  C   LIG     1       1.388   1.215   0.358  1.00  0.00     0.045 A 
HETATM    3  C   LIG     1       2.787   1.255   0.408  1.00  0.00     0.026 A 
HETATM    4  C   LIG     1       3.540   0.163  -0.027  1.00  0.00     0.025 A 
HETATM    5  C   LIG     1       2.901  -0.978  -0.518  1.00  0.00     0.035 A 
HETATM    6 CL   LIG     1       3.849  -2.349  -1.065  1.00  0.00    -0.084 Cl
HETATM    7  C   LIG     1       1.504  -1.028  -0.572  1.00  0.00     0.038 A 
HETATM    8  C   LIG     1       0.737   0.065  -0.137  1.00  0.00    -0.001 A 
ENDROOT
BRANCH   8   9
HETATM    9  C   LIG     1      -0.738  -0.019  -0.191  1.00  0.00    -0.001 A 
HETATM   10  C   LIG     1      -1.469  -0.063   1.008  1.00  0.00     0.038 A 
HETATM   11  C   LIG     1      -2.864  -0.157   0.983  1.00  0.00     0.035 A 
HETATM   12  C   LIG     1      -3.539  -0.209  -0.239  1.00  0.00     0.025 A 
HETATM   13 CL   LIG     1      -3.766  -0.211   2.487  1.00  0.00    -0.084 Cl
HETATM   14  C   LIG     1      -2.822  -0.166  -1.437  1.00  0.00     0.026 A 
HETATM   15  C   LIG     1      -1.425  -0.072  -1.423  1.00  0.00     0.045 A 
HETATM   16 CL   LIG     1      -0.571   0.014  -2.960  1.00  0.00    -0.083 Cl
ENDBRANCH   8   9
TORSDOF 1
