REMARK  1 active torsions:
REMARK  status: ('A' for Active; 'I' for Inactive)
REMARK    1  A    between atoms: C_9  and  C_10 
ROOT
HETATM    1 CL   LIG     1       3.905  -0.575  -2.342  1.00  0.00    -0.082 Cl
HETATM    2  C   LIG     1       2.925  -0.408  -0.890  1.00  0.00     0.058 A 
HETATM    3  C   LIG     1       3.503  -0.443   0.389  1.00  0.00     0.079 A 
HETATM    4 CL   LIG     1       5.245  -0.660   0.562  1.00  0.00    -0.081 Cl
HETATM    5  C   LIG     1       2.688  -0.307   1.529  1.00  0.00     0.080 A 
HETATM    6 CL   LIG     1       3.410  -0.356   3.139  1.00  0.00    -0.081 Cl
HETATM    7  C   LIG     1       1.298  -0.135   1.385  1.00  0.00     0.068 A 
HETATM    8 CL   LIG     1       0.273   0.004   2.817  1.00  0.00    -0.082 Cl
HETATM    9  C   LIG     1       0.726  -0.100   0.098  1.00  0.00     0.001 A 
HETATM   10  C   LIG     1       1.546  -0.236  -1.030  1.00  0.00     0.040 A 
ENDROOT
BRANCH   9  11
HETATM   11  C   LIG     1      -0.728   0.093  -0.092  1.00  0.00     0.001 A 
HETATM   12  C   LIG     1      -1.287   1.348   0.179  1.00  0.00     0.040 A 
HETATM   13  C   LIG     1      -2.654   1.572  -0.001  1.00  0.00     0.058 A 
HETATM   14  C   LIG     1      -3.482   0.535  -0.460  1.00  0.00     0.079 A 
HETATM   15 CL   LIG     1      -3.300   3.169   0.358  1.00  0.00    -0.082 Cl
HETATM   16  C   LIG     1      -2.930  -0.731  -0.736  1.00  0.00     0.080 A 
HETATM   17 CL   LIG     1      -5.208   0.822  -0.686  1.00  0.00    -0.081 Cl
HETATM   18 CL   LIG     1      -3.968  -2.039  -1.308  1.00  0.00    -0.081 Cl
HETATM   19  C   LIG     1      -1.552  -0.954  -0.553  1.00  0.00     0.068 A 
HETATM   20 CL   LIG     1      -0.866  -2.551  -0.869  1.00  0.00    -0.082 Cl
ENDBRANCH   9  11
TORSDOF 1
