MODEL 1
REMARK VINA RESULT:      -5.8      0.000      0.000
REMARK  1 active torsions:
REMARK  status: ('A' for Active; 'I' for Inactive)
REMARK    1  A    between atoms: C_6  and  C_7 
ROOT
HETATM    1 CL   LIG     1      16.196  35.406  21.675  1.00  0.00    -0.084 Cl
HETATM    2  C   LIG     1      15.736  34.389  20.323  1.00  0.00     0.037 A 
HETATM    3  C   LIG     1      15.678  34.924  19.034  1.00  0.00     0.048 A 
HETATM    4  C   LIG     1      15.312  34.119  17.950  1.00  0.00     0.048 A 
HETATM    5 CL   LIG     1      15.291  34.840  16.343  1.00  0.00    -0.083 Cl
HETATM    6  C   LIG     1      14.998  32.758  18.154  1.00  0.00     0.018 A 
HETATM    7  C   LIG     1      15.059  32.225  19.461  1.00  0.00     0.048 A 
HETATM    8 CL   LIG     1      14.645  30.545  19.793  1.00  0.00    -0.083 Cl
HETATM    9  C   LIG     1      15.427  33.043  20.535  1.00  0.00     0.048 A 
ENDROOT
BRANCH   6  10
HETATM   10  C   LIG     1      14.611  31.900  17.014  1.00  0.00    -0.023 A 
HETATM   11  C   LIG     1      15.537  31.616  15.997  1.00  0.00     0.012 A 
HETATM   12  C   LIG     1      15.169  30.805  14.919  1.00  0.00     0.001 A 
HETATM   13  C   LIG     1      13.877  30.274  14.851  1.00  0.00     0.000 A 
HETATM   14  C   LIG     1      12.951  30.554  15.860  1.00  0.00     0.001 A 
HETATM   15  C   LIG     1      13.315  31.364  16.940  1.00  0.00     0.012 A 
ENDBRANCH   6  10
TORSDOF 1
ENDMDL
MODEL 2
REMARK VINA RESULT:      -5.7      0.058      2.382
REMARK  1 active torsions:
REMARK  status: ('A' for Active; 'I' for Inactive)
REMARK    1  A    between atoms: C_6  and  C_7 
ROOT
HETATM    1 CL   LIG     1      16.177  35.324  21.709  1.00  0.00    -0.084 Cl
HETATM    2  C   LIG     1      15.726  34.325  20.340  1.00  0.00     0.037 A 
HETATM    3  C   LIG     1      15.395  32.982  20.534  1.00  0.00     0.048 A 
HETATM    4  C   LIG     1      15.034  32.178  19.447  1.00  0.00     0.048 A 
HETATM    5 CL   LIG     1      14.592  30.502  19.758  1.00  0.00    -0.083 Cl
HETATM    6  C   LIG     1      15.003  32.723  18.145  1.00  0.00     0.018 A 
HETATM    7  C   LIG     1      15.339  34.081  17.958  1.00  0.00     0.048 A 
HETATM    8 CL   LIG     1      15.356  34.816  16.356  1.00  0.00    -0.083 Cl
HETATM    9  C   LIG     1      15.698  34.872  19.055  1.00  0.00     0.048 A 
ENDROOT
BRANCH   6  10
HETATM   10  C   LIG     1      14.622  31.880  16.991  1.00  0.00    -0.023 A 
HETATM   11  C   LIG     1      15.555  31.607  15.977  1.00  0.00     0.012 A 
HETATM   12  C   LIG     1      15.193  30.811  14.886  1.00  0.00     0.001 A 
HETATM   13  C   LIG     1      13.901  30.284  14.802  1.00  0.00     0.000 A 
HETATM   14  C   LIG     1      12.969  30.553  15.808  1.00  0.00     0.001 A 
HETATM   15  C   LIG     1      13.327  31.348  16.900  1.00  0.00     0.012 A 
ENDBRANCH   6  10
TORSDOF 1
ENDMDL
MODEL 3
REMARK VINA RESULT:      -5.0      2.288      3.811
REMARK  1 active torsions:
REMARK  status: ('A' for Active; 'I' for Inactive)
REMARK    1  A    between atoms: C_6  and  C_7 
ROOT
HETATM    1 CL   LIG     1      15.300  34.671  17.760  1.00  0.00    -0.084 Cl
HETATM    2  C   LIG     1      15.036  33.205  16.837  1.00  0.00     0.037 A 
HETATM    3  C   LIG     1      15.695  33.016  15.621  1.00  0.00     0.048 A 
HETATM    4  C   LIG     1      15.489  31.848  14.878  1.00  0.00     0.048 A 
HETATM    5 CL   LIG     1      16.374  31.651  13.368  1.00  0.00    -0.083 Cl
HETATM    6  C   LIG     1      14.611  30.851  15.357  1.00  0.00     0.018 A 
HETATM    7  C   LIG     1      13.949  31.050  16.589  1.00  0.00     0.048 A 
HETATM    8 CL   LIG     1      12.813  29.865  17.228  1.00  0.00    -0.083 Cl
HETATM    9  C   LIG     1      14.165  32.224  17.319  1.00  0.00     0.048 A 
ENDROOT
BRANCH   6  10
HETATM   10  C   LIG     1      14.388  29.614  14.579  1.00  0.00    -0.023 A 
HETATM   11  C   LIG     1      13.082  29.193  14.280  1.00  0.00     0.012 A 
HETATM   12  C   LIG     1      12.873  28.022  13.544  1.00  0.00     0.001 A 
HETATM   13  C   LIG     1      13.965  27.267  13.104  1.00  0.00     0.000 A 
HETATM   14  C   LIG     1      15.266  27.682  13.400  1.00  0.00     0.001 A 
HETATM   15  C   LIG     1      15.480  28.852  14.135  1.00  0.00     0.012 A 
ENDBRANCH   6  10
TORSDOF 1
ENDMDL
MODEL 4
REMARK VINA RESULT:      -4.9     13.840     15.282
REMARK  1 active torsions:
REMARK  status: ('A' for Active; 'I' for Inactive)
REMARK    1  A    between atoms: C_6  and  C_7 
ROOT
HETATM    1 CL   LIG     1      22.210  19.430  17.892  1.00  0.00    -0.084 Cl
HETATM    2  C   LIG     1      23.334  20.625  18.509  1.00  0.00     0.037 A 
HETATM    3  C   LIG     1      24.591  20.772  17.918  1.00  0.00     0.048 A 
HETATM    4  C   LIG     1      25.495  21.724  18.404  1.00  0.00     0.048 A 
HETATM    5 CL   LIG     1      27.051  21.887  17.597  1.00  0.00    -0.083 Cl
HETATM    6  C   LIG     1      25.138  22.543  19.497  1.00  0.00     0.018 A 
HETATM    7  C   LIG     1      23.865  22.389  20.088  1.00  0.00     0.048 A 
HETATM    8 CL   LIG     1      23.368  23.352  21.477  1.00  0.00    -0.083 Cl
HETATM    9  C   LIG     1      22.973  21.432  19.591  1.00  0.00     0.048 A 
ENDROOT
BRANCH   6  10
HETATM   10  C   LIG     1      26.086  23.552  20.016  1.00  0.00    -0.023 A 
HETATM   11  C   LIG     1      26.887  23.260  21.133  1.00  0.00     0.012 A 
HETATM   12  C   LIG     1      27.783  24.216  21.623  1.00  0.00     0.001 A 
HETATM   13  C   LIG     1      27.884  25.465  21.003  1.00  0.00     0.000 A 
HETATM   14  C   LIG     1      27.089  25.760  19.892  1.00  0.00     0.001 A 
HETATM   15  C   LIG     1      26.192  24.807  19.398  1.00  0.00     0.012 A 
ENDBRANCH   6  10
TORSDOF 1
ENDMDL
MODEL 5
REMARK VINA RESULT:      -4.9     13.827     15.322
REMARK  1 active torsions:
REMARK  status: ('A' for Active; 'I' for Inactive)
REMARK    1  A    between atoms: C_6  and  C_7 
ROOT
HETATM    1 CL   LIG     1      22.180  19.431  17.886  1.00  0.00    -0.084 Cl
HETATM    2  C   LIG     1      23.306  20.623  18.504  1.00  0.00     0.037 A 
HETATM    3  C   LIG     1      22.946  21.432  19.584  1.00  0.00     0.048 A 
HETATM    4  C   LIG     1      23.839  22.386  20.083  1.00  0.00     0.048 A 
HETATM    5 CL   LIG     1      23.341  23.352  21.470  1.00  0.00    -0.083 Cl
HETATM    6  C   LIG     1      25.114  22.537  19.496  1.00  0.00     0.018 A 
HETATM    7  C   LIG     1      25.471  21.715  18.404  1.00  0.00     0.048 A 
HETATM    8 CL   LIG     1      27.031  21.873  17.600  1.00  0.00    -0.083 Cl
HETATM    9  C   LIG     1      24.566  20.765  17.916  1.00  0.00     0.048 A 
ENDROOT
BRANCH   6  10
HETATM   10  C   LIG     1      26.064  23.542  20.017  1.00  0.00    -0.023 A 
HETATM   11  C   LIG     1      26.190  24.790  19.385  1.00  0.00     0.012 A 
HETATM   12  C   LIG     1      27.090  25.739  19.880  1.00  0.00     0.001 A 
HETATM   13  C   LIG     1      27.866  25.449  21.006  1.00  0.00     0.000 A 
HETATM   14  C   LIG     1      27.745  24.208  21.638  1.00  0.00     0.001 A 
HETATM   15  C   LIG     1      26.846  23.256  21.147  1.00  0.00     0.012 A 
ENDBRANCH   6  10
TORSDOF 1
ENDMDL
MODEL 6
REMARK VINA RESULT:      -4.8     14.008     14.957
REMARK  1 active torsions:
REMARK  status: ('A' for Active; 'I' for Inactive)
REMARK    1  A    between atoms: C_6  and  C_7 
ROOT
HETATM    1 CL   LIG     1      27.234  24.879  20.631  1.00  0.00    -0.084 Cl
HETATM    2  C   LIG     1      26.149  23.577  20.182  1.00  0.00     0.037 A 
HETATM    3  C   LIG     1      24.884  23.489  20.767  1.00  0.00     0.048 A 
HETATM    4  C   LIG     1      24.013  22.452  20.416  1.00  0.00     0.048 A 
HETATM    5 CL   LIG     1      22.417  22.413  21.161  1.00  0.00    -0.083 Cl
HETATM    6  C   LIG     1      24.409  21.488  19.463  1.00  0.00     0.018 A 
HETATM    7  C   LIG     1      25.690  21.586  18.876  1.00  0.00     0.048 A 
HETATM    8 CL   LIG     1      26.263  20.397  17.708  1.00  0.00    -0.083 Cl
HETATM    9  C   LIG     1      26.550  22.628  19.239  1.00  0.00     0.048 A 
ENDROOT
BRANCH   6  10
HETATM   10  C   LIG     1      23.494  20.391  19.085  1.00  0.00    -0.023 A 
HETATM   11  C   LIG     1      23.301  19.301  19.950  1.00  0.00     0.012 A 
HETATM   12  C   LIG     1      22.435  18.264  19.591  1.00  0.00     0.001 A 
HETATM   13  C   LIG     1      21.759  18.308  18.367  1.00  0.00     0.000 A 
HETATM   14  C   LIG     1      21.949  19.389  17.502  1.00  0.00     0.001 A 
HETATM   15  C   LIG     1      22.813  20.428  17.858  1.00  0.00     0.012 A 
ENDBRANCH   6  10
TORSDOF 1
ENDMDL
MODEL 7
REMARK VINA RESULT:      -4.8     14.006     14.932
REMARK  1 active torsions:
REMARK  status: ('A' for Active; 'I' for Inactive)
REMARK    1  A    between atoms: C_6  and  C_7 
ROOT
HETATM    1 CL   LIG     1      26.948  24.954  20.419  1.00  0.00    -0.084 Cl
HETATM    2  C   LIG     1      25.915  23.586  20.053  1.00  0.00     0.037 A 
HETATM    3  C   LIG     1      26.372  22.570  19.210  1.00  0.00     0.048 A 
HETATM    4  C   LIG     1      25.553  21.475  18.913  1.00  0.00     0.048 A 
HETATM    5 CL   LIG     1      26.198  20.208  17.872  1.00  0.00    -0.083 Cl
HETATM    6  C   LIG     1      24.257  21.391  19.466  1.00  0.00     0.018 A 
HETATM    7  C   LIG     1      23.803  22.422  20.318  1.00  0.00     0.048 A 
HETATM    8 CL   LIG     1      22.184  22.399  21.013  1.00  0.00    -0.083 Cl
HETATM    9  C   LIG     1      24.633  23.511  20.605  1.00  0.00     0.048 A 
ENDROOT
BRANCH   6  10
HETATM   10  C   LIG     1      23.386  20.237  19.158  1.00  0.00    -0.023 A 
HETATM   11  C   LIG     1      23.255  19.184  20.079  1.00  0.00     0.012 A 
HETATM   12  C   LIG     1      22.431  18.093  19.786  1.00  0.00     0.001 A 
HETATM   13  C   LIG     1      21.735  18.047  18.574  1.00  0.00     0.000 A 
HETATM   14  C   LIG     1      21.862  19.091  17.654  1.00  0.00     0.001 A 
HETATM   15  C   LIG     1      22.684  20.184  17.944  1.00  0.00     0.012 A 
ENDBRANCH   6  10
TORSDOF 1
ENDMDL
MODEL 8
REMARK VINA RESULT:      -4.7     13.910     15.536
REMARK  1 active torsions:
REMARK  status: ('A' for Active; 'I' for Inactive)
REMARK    1  A    between atoms: C_6  and  C_7 
ROOT
HETATM    1 CL   LIG     1      22.766  18.009  16.476  1.00  0.00    -0.084 Cl
HETATM    2  C   LIG     1      23.543  19.405  17.197  1.00  0.00     0.037 A 
HETATM    3  C   LIG     1      24.899  19.649  16.964  1.00  0.00     0.048 A 
HETATM    4  C   LIG     1      25.527  20.760  17.537  1.00  0.00     0.048 A 
HETATM    5 CL   LIG     1      27.229  21.035  17.178  1.00  0.00    -0.083 Cl
HETATM    6  C   LIG     1      24.790  21.645  18.355  1.00  0.00     0.018 A 
HETATM    7  C   LIG     1      23.420  21.391  18.584  1.00  0.00     0.048 A 
HETATM    8 CL   LIG     1      22.450  22.433  19.623  1.00  0.00    -0.083 Cl
HETATM    9  C   LIG     1      22.807  20.275  18.005  1.00  0.00     0.048 A 
ENDROOT
BRANCH   6  10
HETATM   10  C   LIG     1      25.445  22.822  18.962  1.00  0.00    -0.023 A 
HETATM   11  C   LIG     1      25.564  24.018  18.236  1.00  0.00     0.012 A 
HETATM   12  C   LIG     1      26.184  25.131  18.812  1.00  0.00     0.001 A 
HETATM   13  C   LIG     1      26.689  25.056  20.114  1.00  0.00     0.000 A 
HETATM   14  C   LIG     1      26.573  23.868  20.841  1.00  0.00     0.001 A 
HETATM   15  C   LIG     1      25.953  22.753  20.269  1.00  0.00     0.012 A 
ENDBRANCH   6  10
TORSDOF 1
ENDMDL
MODEL 9
REMARK VINA RESULT:      -4.7     13.906     15.566
REMARK  1 active torsions:
REMARK  status: ('A' for Active; 'I' for Inactive)
REMARK    1  A    between atoms: C_6  and  C_7 
ROOT
HETATM    1 CL   LIG     1      22.764  18.031  16.416  1.00  0.00    -0.084 Cl
HETATM    2  C   LIG     1      23.541  19.420  17.152  1.00  0.00     0.037 A 
HETATM    3  C   LIG     1      22.804  20.286  17.962  1.00  0.00     0.048 A 
HETATM    4  C   LIG     1      23.416  21.396  18.553  1.00  0.00     0.048 A 
HETATM    5 CL   LIG     1      22.443  22.432  19.593  1.00  0.00    -0.083 Cl
HETATM    6  C   LIG     1      24.788  21.647  18.332  1.00  0.00     0.018 A 
HETATM    7  C   LIG     1      25.526  20.766  17.512  1.00  0.00     0.048 A 
HETATM    8 CL   LIG     1      27.232  21.039  17.165  1.00  0.00    -0.083 Cl
HETATM    9  C   LIG     1      24.899  19.660  16.928  1.00  0.00     0.048 A 
ENDROOT
BRANCH   6  10
HETATM   10  C   LIG     1      25.443  22.818  18.953  1.00  0.00    -0.023 A 
HETATM   11  C   LIG     1      25.564  24.022  18.239  1.00  0.00     0.012 A 
HETATM   12  C   LIG     1      26.185  25.128  18.827  1.00  0.00     0.001 A 
HETATM   13  C   LIG     1      26.687  25.039  20.129  1.00  0.00     0.000 A 
HETATM   14  C   LIG     1      26.570  23.844  20.844  1.00  0.00     0.001 A 
HETATM   15  C   LIG     1      25.950  22.735  20.259  1.00  0.00     0.012 A 
ENDBRANCH   6  10
TORSDOF 1
ENDMDL
MODEL 10
REMARK VINA RESULT:      -4.6     13.900     15.017
REMARK  1 active torsions:
REMARK  status: ('A' for Active; 'I' for Inactive)
REMARK    1  A    between atoms: C_6  and  C_7 
ROOT
HETATM    1 CL   LIG     1      22.459  20.236  23.180  1.00  0.00    -0.084 Cl
HETATM    2  C   LIG     1      23.510  21.205  22.165  1.00  0.00     0.037 A 
HETATM    3  C   LIG     1      24.626  21.838  22.718  1.00  0.00     0.048 A 
HETATM    4  C   LIG     1      25.470  22.613  21.916  1.00  0.00     0.048 A 
HETATM    5 CL   LIG     1      26.880  23.359  22.663  1.00  0.00    -0.083 Cl
HETATM    6  C   LIG     1      25.198  22.759  20.538  1.00  0.00     0.018 A 
HETATM    7  C   LIG     1      24.069  22.114  19.987  1.00  0.00     0.048 A 
HETATM    8 CL   LIG     1      23.650  22.282  18.284  1.00  0.00    -0.083 Cl
HETATM    9  C   LIG     1      23.234  21.343  20.803  1.00  0.00     0.048 A 
ENDROOT
BRANCH   6  10
HETATM   10  C   LIG     1      26.085  23.575  19.683  1.00  0.00    -0.023 A 
HETATM   11  C   LIG     1      27.037  22.954  18.857  1.00  0.00     0.012 A 
HETATM   12  C   LIG     1      27.876  23.728  18.048  1.00  0.00     0.001 A 
HETATM   13  C   LIG     1      27.770  25.122  18.060  1.00  0.00     0.000 A 
HETATM   14  C   LIG     1      26.825  25.744  18.881  1.00  0.00     0.001 A 
HETATM   15  C   LIG     1      25.984  24.975  19.690  1.00  0.00     0.012 A 
ENDBRANCH   6  10
TORSDOF 1
ENDMDL
MODEL 11
REMARK VINA RESULT:      -4.6     13.896     14.999
REMARK  1 active torsions:
REMARK  status: ('A' for Active; 'I' for Inactive)
REMARK    1  A    between atoms: C_6  and  C_7 
ROOT
HETATM    1 CL   LIG     1      22.436  20.057  23.112  1.00  0.00    -0.084 Cl
HETATM    2  C   LIG     1      23.482  21.061  22.126  1.00  0.00     0.037 A 
HETATM    3  C   LIG     1      23.221  21.216  20.763  1.00  0.00     0.048 A 
HETATM    4  C   LIG     1      24.051  22.015  19.969  1.00  0.00     0.048 A 
HETATM    5 CL   LIG     1      23.651  22.200  18.264  1.00  0.00    -0.083 Cl
HETATM    6  C   LIG     1      25.160  22.673  20.546  1.00  0.00     0.018 A 
HETATM    7  C   LIG     1      25.416  22.512  21.925  1.00  0.00     0.048 A 
HETATM    8 CL   LIG     1      26.802  23.274  22.702  1.00  0.00    -0.083 Cl
HETATM    9  C   LIG     1      24.577  21.709  22.705  1.00  0.00     0.048 A 
ENDROOT
BRANCH   6  10
HETATM   10  C   LIG     1      26.041  23.520  19.715  1.00  0.00    -0.023 A 
HETATM   11  C   LIG     1      27.029  22.934  18.907  1.00  0.00     0.012 A 
HETATM   12  C   LIG     1      27.862  23.737  18.122  1.00  0.00     0.001 A 
HETATM   13  C   LIG     1      27.714  25.127  18.139  1.00  0.00     0.000 A 
HETATM   14  C   LIG     1      26.733  25.716  18.942  1.00  0.00     0.001 A 
HETATM   15  C   LIG     1      25.897  24.917  19.728  1.00  0.00     0.012 A 
ENDBRANCH   6  10
TORSDOF 1
ENDMDL
MODEL 12
REMARK VINA RESULT:      -4.6     13.908     14.899
REMARK  1 active torsions:
REMARK  status: ('A' for Active; 'I' for Inactive)
REMARK    1  A    between atoms: C_6  and  C_7 
ROOT
HETATM    1 CL   LIG     1      28.481  25.972  17.988  1.00  0.00    -0.084 Cl
HETATM    2  C   LIG     1      27.366  24.919  18.838  1.00  0.00     0.037 A 
HETATM    3  C   LIG     1      27.518  24.700  20.208  1.00  0.00     0.048 A 
HETATM    4  C   LIG     1      26.633  23.860  20.894  1.00  0.00     0.048 A 
HETATM    5 CL   LIG     1      26.854  23.650  22.628  1.00  0.00    -0.083 Cl
HETATM    6  C   LIG     1      25.577  23.230  20.200  1.00  0.00     0.018 A 
HETATM    7  C   LIG     1      25.429  23.458  18.814  1.00  0.00     0.048 A 
HETATM    8 CL   LIG     1      24.157  22.676  17.879  1.00  0.00    -0.083 Cl
HETATM    9  C   LIG     1      26.324  24.300  18.143  1.00  0.00     0.048 A 
ENDROOT
BRANCH   6  10
HETATM   10  C   LIG     1      24.636  22.343  20.916  1.00  0.00    -0.023 A 
HETATM   11  C   LIG     1      23.383  22.826  21.328  1.00  0.00     0.012 A 
HETATM   12  C   LIG     1      22.494  21.986  22.006  1.00  0.00     0.001 A 
HETATM   13  C   LIG     1      22.851  20.661  22.275  1.00  0.00     0.000 A 
HETATM   14  C   LIG     1      24.097  20.175  21.868  1.00  0.00     0.001 A 
HETATM   15  C   LIG     1      24.988  21.012  21.190  1.00  0.00     0.012 A 
ENDBRANCH   6  10
TORSDOF 1
ENDMDL
MODEL 13
REMARK VINA RESULT:      -4.5     20.394     21.781
REMARK  1 active torsions:
REMARK  status: ('A' for Active; 'I' for Inactive)
REMARK    1  A    between atoms: C_6  and  C_7 
ROOT
HETATM    1 CL   LIG     1      29.531  26.825  30.540  1.00  0.00    -0.084 Cl
HETATM    2  C   LIG     1      28.969  27.813  31.875  1.00  0.00     0.037 A 
HETATM    3  C   LIG     1      28.314  27.219  32.957  1.00  0.00     0.048 A 
HETATM    4  C   LIG     1      27.862  27.999  34.026  1.00  0.00     0.048 A 
HETATM    5 CL   LIG     1      27.074  27.190  35.378  1.00  0.00    -0.083 Cl
HETATM    6  C   LIG     1      28.067  29.396  34.017  1.00  0.00     0.018 A 
HETATM    7  C   LIG     1      28.731  29.989  32.920  1.00  0.00     0.048 A 
HETATM    8 CL   LIG     1      28.989  31.729  32.827  1.00  0.00    -0.083 Cl
HETATM    9  C   LIG     1      29.176  29.194  31.858  1.00  0.00     0.048 A 
ENDROOT
BRANCH   6  10
HETATM   10  C   LIG     1      27.594  30.229  35.143  1.00  0.00    -0.023 A 
HETATM   11  C   LIG     1      28.482  30.609  36.164  1.00  0.00     0.012 A 
HETATM   12  C   LIG     1      28.033  31.396  37.228  1.00  0.00     0.001 A 
HETATM   13  C   LIG     1      26.697  31.807  37.281  1.00  0.00     0.000 A 
HETATM   14  C   LIG     1      25.810  31.431  36.269  1.00  0.00     0.001 A 
HETATM   15  C   LIG     1      26.255  30.645  35.202  1.00  0.00     0.012 A 
ENDBRANCH   6  10
TORSDOF 1
ENDMDL
MODEL 14
REMARK VINA RESULT:      -4.5     14.262     15.194
REMARK  1 active torsions:
REMARK  status: ('A' for Active; 'I' for Inactive)
REMARK    1  A    between atoms: C_6  and  C_7 
ROOT
HETATM    1 CL   LIG     1      26.246  23.312  24.421  1.00  0.00    -0.084 Cl
HETATM    2  C   LIG     1      25.428  22.463  23.123  1.00  0.00     0.037 A 
HETATM    3  C   LIG     1      26.067  21.410  22.465  1.00  0.00     0.048 A 
HETATM    4  C   LIG     1      25.421  20.728  21.428  1.00  0.00     0.048 A 
HETATM    5 CL   LIG     1      26.264  19.386  20.659  1.00  0.00    -0.083 Cl
HETATM    6  C   LIG     1      24.116  21.102  21.041  1.00  0.00     0.018 A 
HETATM    7  C   LIG     1      23.477  22.167  21.713  1.00  0.00     0.048 A 
HETATM    8 CL   LIG     1      21.863  22.709  21.259  1.00  0.00    -0.083 Cl
HETATM    9  C   LIG     1      24.136  22.840  22.748  1.00  0.00     0.048 A 
ENDROOT
BRANCH   6  10
HETATM   10  C   LIG     1      23.426  20.386  19.948  1.00  0.00    -0.023 A 
HETATM   11  C   LIG     1      22.810  19.147  20.192  1.00  0.00     0.012 A 
HETATM   12  C   LIG     1      22.158  18.471  19.156  1.00  0.00     0.001 A 
HETATM   13  C   LIG     1      22.117  19.026  17.873  1.00  0.00     0.000 A 
HETATM   14  C   LIG     1      22.729  20.258  17.625  1.00  0.00     0.001 A 
HETATM   15  C   LIG     1      23.382  20.938  18.658  1.00  0.00     0.012 A 
ENDBRANCH   6  10
TORSDOF 1
ENDMDL
MODEL 15
REMARK VINA RESULT:      -4.5     14.376     15.391
REMARK  1 active torsions:
REMARK  status: ('A' for Active; 'I' for Inactive)
REMARK    1  A    between atoms: C_6  and  C_7 
ROOT
HETATM    1 CL   LIG     1      30.524  24.423  16.350  1.00  0.00    -0.084 Cl
HETATM    2  C   LIG     1      29.024  23.905  17.095  1.00  0.00     0.037 A 
HETATM    3  C   LIG     1      28.182  24.842  17.696  1.00  0.00     0.048 A 
HETATM    4  C   LIG     1      26.983  24.437  18.293  1.00  0.00     0.048 A 
HETATM    5 CL   LIG     1      25.945  25.669  19.005  1.00  0.00    -0.083 Cl
HETATM    6  C   LIG     1      26.618  23.073  18.289  1.00  0.00     0.018 A 
HETATM    7  C   LIG     1      27.475  22.132  17.679  1.00  0.00     0.048 A 
HETATM    8 CL   LIG     1      27.099  20.410  17.669  1.00  0.00    -0.083 Cl
HETATM    9  C   LIG     1      28.671  22.553  17.087  1.00  0.00     0.048 A 
ENDROOT
BRANCH   6  10
HETATM   10  C   LIG     1      25.353  22.636  18.917  1.00  0.00    -0.023 A 
HETATM   11  C   LIG     1      25.258  22.523  20.314  1.00  0.00     0.012 A 
HETATM   12  C   LIG     1      24.061  22.110  20.906  1.00  0.00     0.001 A 
HETATM   13  C   LIG     1      22.953  21.806  20.108  1.00  0.00     0.000 A 
HETATM   14  C   LIG     1      23.042  21.916  18.717  1.00  0.00     0.001 A 
HETATM   15  C   LIG     1      24.237  22.330  18.121  1.00  0.00     0.012 A 
ENDBRANCH   6  10
TORSDOF 1
ENDMDL
MODEL 16
REMARK VINA RESULT:      -4.4      2.430      5.720
REMARK  1 active torsions:
REMARK  status: ('A' for Active; 'I' for Inactive)
REMARK    1  A    between atoms: C_6  and  C_7 
ROOT
HETATM    1 CL   LIG     1      14.279  28.276  12.996  1.00  0.00    -0.084 Cl
HETATM    2  C   LIG     1      14.495  29.514  14.219  1.00  0.00     0.037 A 
HETATM    3  C   LIG     1      13.442  29.839  15.078  1.00  0.00     0.048 A 
HETATM    4  C   LIG     1      13.606  30.826  16.056  1.00  0.00     0.048 A 
HETATM    5 CL   LIG     1      12.255  31.168  17.133  1.00  0.00    -0.083 Cl
HETATM    6  C   LIG     1      14.841  31.500  16.181  1.00  0.00     0.018 A 
HETATM    7  C   LIG     1      15.900  31.164  15.309  1.00  0.00     0.048 A 
HETATM    8 CL   LIG     1      17.455  31.989  15.384  1.00  0.00    -0.083 Cl
HETATM    9  C   LIG     1      15.720  30.175  14.335  1.00  0.00     0.048 A 
ENDROOT
BRANCH   6  10
HETATM   10  C   LIG     1      15.023  32.543  17.212  1.00  0.00    -0.023 A 
HETATM   11  C   LIG     1      15.202  32.182  18.558  1.00  0.00     0.012 A 
HETATM   12  C   LIG     1      15.374  33.170  19.533  1.00  0.00     0.001 A 
HETATM   13  C   LIG     1      15.368  34.521  19.170  1.00  0.00     0.000 A 
HETATM   14  C   LIG     1      15.189  34.885  17.832  1.00  0.00     0.001 A 
HETATM   15  C   LIG     1      15.018  33.900  16.855  1.00  0.00     0.012 A 
ENDBRANCH   6  10
TORSDOF 1
ENDMDL
MODEL 17
REMARK VINA RESULT:      -4.4     14.441     16.006
REMARK  1 active torsions:
REMARK  status: ('A' for Active; 'I' for Inactive)
REMARK    1  A    between atoms: C_6  and  C_7 
ROOT
HETATM    1 CL   LIG     1      23.968  20.068  17.408  1.00  0.00    -0.084 Cl
HETATM    2  C   LIG     1      24.019  20.504  19.106  1.00  0.00     0.037 A 
HETATM    3  C   LIG     1      23.143  21.471  19.606  1.00  0.00     0.048 A 
HETATM    4  C   LIG     1      23.177  21.825  20.959  1.00  0.00     0.048 A 
HETATM    5 CL   LIG     1      22.025  23.025  21.538  1.00  0.00    -0.083 Cl
HETATM    6  C   LIG     1      24.099  21.203  21.829  1.00  0.00     0.018 A 
HETATM    7  C   LIG     1      24.980  20.226  21.315  1.00  0.00     0.048 A 
HETATM    8 CL   LIG     1      26.180  19.436  22.336  1.00  0.00    -0.083 Cl
HETATM    9  C   LIG     1      24.934  19.884  19.960  1.00  0.00     0.048 A 
ENDROOT
BRANCH   6  10
HETATM   10  C   LIG     1      24.141  21.570  23.260  1.00  0.00    -0.023 A 
HETATM   11  C   LIG     1      23.416  20.822  24.203  1.00  0.00     0.012 A 
HETATM   12  C   LIG     1      23.456  21.170  25.557  1.00  0.00     0.001 A 
HETATM   13  C   LIG     1      24.219  22.265  25.976  1.00  0.00     0.000 A 
HETATM   14  C   LIG     1      24.941  23.013  25.041  1.00  0.00     0.001 A 
HETATM   15  C   LIG     1      24.904  22.668  23.687  1.00  0.00     0.012 A 
ENDBRANCH   6  10
TORSDOF 1
ENDMDL
MODEL 18
REMARK VINA RESULT:      -4.4     14.276     15.832
REMARK  1 active torsions:
REMARK  status: ('A' for Active; 'I' for Inactive)
REMARK    1  A    between atoms: C_6  and  C_7 
ROOT
HETATM    1 CL   LIG     1      21.194  17.933  16.477  1.00  0.00    -0.084 Cl
HETATM    2  C   LIG     1      22.007  18.817  17.754  1.00  0.00     0.037 A 
HETATM    3  C   LIG     1      22.577  20.064  17.487  1.00  0.00     0.048 A 
HETATM    4  C   LIG     1      23.228  20.776  18.500  1.00  0.00     0.048 A 
HETATM    5 CL   LIG     1      23.896  22.359  18.112  1.00  0.00    -0.083 Cl
HETATM    6  C   LIG     1      23.312  20.236  19.802  1.00  0.00     0.018 A 
HETATM    7  C   LIG     1      22.733  18.974  20.063  1.00  0.00     0.048 A 
HETATM    8 CL   LIG     1      22.832  18.225  21.654  1.00  0.00    -0.083 Cl
HETATM    9  C   LIG     1      22.086  18.274  19.039  1.00  0.00     0.048 A 
ENDROOT
BRANCH   6  10
HETATM   10  C   LIG     1      23.997  20.981  20.878  1.00  0.00    -0.023 A 
HETATM   11  C   LIG     1      25.371  20.792  21.106  1.00  0.00     0.012 A 
HETATM   12  C   LIG     1      26.017  21.498  22.125  1.00  0.00     0.001 A 
HETATM   13  C   LIG     1      25.298  22.395  22.921  1.00  0.00     0.000 A 
HETATM   14  C   LIG     1      23.932  22.587  22.698  1.00  0.00     0.001 A 
HETATM   15  C   LIG     1      23.282  21.884  21.680  1.00  0.00     0.012 A 
ENDBRANCH   6  10
TORSDOF 1
ENDMDL
MODEL 19
REMARK VINA RESULT:      -4.4     14.162     14.992
REMARK  1 active torsions:
REMARK  status: ('A' for Active; 'I' for Inactive)
REMARK    1  A    between atoms: C_6  and  C_7 
ROOT
HETATM    1 CL   LIG     1      28.671  25.796  22.410  1.00  0.00    -0.084 Cl
HETATM    2  C   LIG     1      27.633  24.713  21.502  1.00  0.00     0.037 A 
HETATM    3  C   LIG     1      27.275  23.475  22.039  1.00  0.00     0.048 A 
HETATM    4  C   LIG     1      26.448  22.604  21.322  1.00  0.00     0.048 A 
HETATM    5 CL   LIG     1      26.002  21.071  22.066  1.00  0.00    -0.083 Cl
HETATM    6  C   LIG     1      25.969  22.976  20.047  1.00  0.00     0.018 A 
HETATM    7  C   LIG     1      26.335  24.230  19.511  1.00  0.00     0.048 A 
HETATM    8 CL   LIG     1      25.803  24.742  17.911  1.00  0.00    -0.083 Cl
HETATM    9  C   LIG     1      27.164  25.089  20.241  1.00  0.00     0.048 A 
ENDROOT
BRANCH   6  10
HETATM   10  C   LIG     1      25.093  22.063  19.282  1.00  0.00    -0.023 A 
HETATM   11  C   LIG     1      25.646  21.168  18.350  1.00  0.00     0.012 A 
HETATM   12  C   LIG     1      24.817  20.305  17.627  1.00  0.00     0.001 A 
HETATM   13  C   LIG     1      23.433  20.331  17.830  1.00  0.00     0.000 A 
HETATM   14  C   LIG     1      22.878  21.219  18.755  1.00  0.00     0.001 A 
HETATM   15  C   LIG     1      23.704  22.083  19.480  1.00  0.00     0.012 A 
ENDBRANCH   6  10
TORSDOF 1
ENDMDL
MODEL 20
REMARK VINA RESULT:      -4.4     14.391     15.414
REMARK  1 active torsions:
REMARK  status: ('A' for Active; 'I' for Inactive)
REMARK    1  A    between atoms: C_6  and  C_7 
ROOT
HETATM    1 CL   LIG     1      25.181  22.438  22.977  1.00  0.00    -0.084 Cl
HETATM    2  C   LIG     1      26.066  23.356  21.774  1.00  0.00     0.037 A 
HETATM    3  C   LIG     1      27.303  23.919  22.095  1.00  0.00     0.048 A 
HETATM    4  C   LIG     1      28.016  24.654  21.141  1.00  0.00     0.048 A 
HETATM    5 CL   LIG     1      29.587  25.310  21.594  1.00  0.00    -0.083 Cl
HETATM    6  C   LIG     1      27.486  24.829  19.844  1.00  0.00     0.018 A 
HETATM    7  C   LIG     1      26.235  24.256  19.528  1.00  0.00     0.048 A 
HETATM    8 CL   LIG     1      25.498  24.466  17.941  1.00  0.00    -0.083 Cl
HETATM    9  C   LIG     1      25.534  23.525  20.493  1.00  0.00     0.048 A 
ENDROOT
BRANCH   6  10
HETATM   10  C   LIG     1      28.233  25.603  18.830  1.00  0.00    -0.023 A 
HETATM   11  C   LIG     1      29.007  24.940  17.863  1.00  0.00     0.012 A 
HETATM   12  C   LIG     1      29.713  25.673  16.905  1.00  0.00     0.001 A 
HETATM   13  C   LIG     1      29.650  27.070  16.905  1.00  0.00     0.000 A 
HETATM   14  C   LIG     1      28.882  27.735  17.865  1.00  0.00     0.001 A 
HETATM   15  C   LIG     1      28.174  27.006  18.825  1.00  0.00     0.012 A 
ENDBRANCH   6  10
TORSDOF 1
ENDMDL
