MODEL 1
REMARK VINA RESULT:      -4.8      0.000      0.000
REMARK  1 active torsions:
REMARK  status: ('A' for Active; 'I' for Inactive)
REMARK    1  A    between atoms: C_9  and  C_10 
ROOT
HETATM    1 CL   LIG     1      22.434  22.799  21.276  1.00  0.00    -0.082 Cl
HETATM    2  C   LIG     1      24.182  22.885  21.459  1.00  0.00     0.058 A 
HETATM    3  C   LIG     1      24.818  22.418  22.620  1.00  0.00     0.079 A 
HETATM    4 CL   LIG     1      23.861  21.730  23.933  1.00  0.00    -0.081 Cl
HETATM    5  C   LIG     1      26.219  22.503  22.733  1.00  0.00     0.080 A 
HETATM    6 CL   LIG     1      27.023  21.922  24.193  1.00  0.00    -0.081 Cl
HETATM    7  C   LIG     1      26.978  23.054  21.682  1.00  0.00     0.068 A 
HETATM    8 CL   LIG     1      28.733  23.189  21.838  1.00  0.00    -0.082 Cl
HETATM    9  C   LIG     1      26.332  23.519  20.520  1.00  0.00     0.001 A 
HETATM   10  C   LIG     1      24.937  23.430  20.418  1.00  0.00     0.040 A 
ENDROOT
BRANCH   9  11
HETATM   11  C   LIG     1      27.098  24.091  19.392  1.00  0.00     0.001 A 
HETATM   12  C   LIG     1      27.383  25.462  19.390  1.00  0.00     0.040 A 
HETATM   13  C   LIG     1      28.115  26.035  18.348  1.00  0.00     0.058 A 
HETATM   14  C   LIG     1      28.575  25.236  17.289  1.00  0.00     0.079 A 
HETATM   15 CL   LIG     1      28.441  27.764  18.400  1.00  0.00    -0.082 Cl
HETATM   16  C   LIG     1      28.294  23.856  17.280  1.00  0.00     0.080 A 
HETATM   17 CL   LIG     1      29.499  25.965  15.974  1.00  0.00    -0.081 Cl
HETATM   18 CL   LIG     1      28.865  22.849  15.948  1.00  0.00    -0.081 Cl
HETATM   19  C   LIG     1      27.555  23.281  18.332  1.00  0.00     0.068 A 
HETATM   20 CL   LIG     1      27.176  21.556  18.305  1.00  0.00    -0.082 Cl
ENDBRANCH   9  11
TORSDOF 1
ENDMDL
MODEL 2
REMARK VINA RESULT:      -4.8      0.121      6.457
REMARK  1 active torsions:
REMARK  status: ('A' for Active; 'I' for Inactive)
REMARK    1  A    between atoms: C_9  and  C_10 
ROOT
HETATM    1 CL   LIG     1      28.479  27.743  18.320  1.00  0.00    -0.082 Cl
HETATM    2  C   LIG     1      28.157  26.014  18.295  1.00  0.00     0.058 A 
HETATM    3  C   LIG     1      28.599  25.204  17.237  1.00  0.00     0.079 A 
HETATM    4 CL   LIG     1      29.495  25.919  15.896  1.00  0.00    -0.081 Cl
HETATM    5  C   LIG     1      28.322  23.824  17.249  1.00  0.00     0.080 A 
HETATM    6 CL   LIG     1      28.871  22.803  15.918  1.00  0.00    -0.081 Cl
HETATM    7  C   LIG     1      27.605  23.258  18.321  1.00  0.00     0.068 A 
HETATM    8 CL   LIG     1      27.232  21.532  18.320  1.00  0.00    -0.082 Cl
HETATM    9  C   LIG     1      27.166  24.078  19.380  1.00  0.00     0.001 A 
HETATM   10  C   LIG     1      27.447  25.450  19.358  1.00  0.00     0.040 A 
ENDROOT
BRANCH   9  11
HETATM   11  C   LIG     1      26.423  23.517  20.529  1.00  0.00     0.001 A 
HETATM   12  C   LIG     1      25.024  23.475  20.477  1.00  0.00     0.040 A 
HETATM   13  C   LIG     1      24.289  22.941  21.538  1.00  0.00     0.058 A 
HETATM   14  C   LIG     1      24.950  22.436  22.669  1.00  0.00     0.079 A 
HETATM   15 CL   LIG     1      22.533  22.917  21.418  1.00  0.00    -0.082 Cl
HETATM   16  C   LIG     1      26.357  22.472  22.731  1.00  0.00     0.080 A 
HETATM   17 CL   LIG     1      24.018  21.762  24.006  1.00  0.00    -0.081 Cl
HETATM   18 CL   LIG     1      27.193  21.844  24.153  1.00  0.00    -0.081 Cl
HETATM   19  C   LIG     1      27.096  23.012  21.661  1.00  0.00     0.068 A 
HETATM   20 CL   LIG     1      28.858  23.086  21.753  1.00  0.00    -0.082 Cl
ENDBRANCH   9  11
TORSDOF 1
ENDMDL
MODEL 3
REMARK VINA RESULT:      -4.8      2.003      3.757
REMARK  1 active torsions:
REMARK  status: ('A' for Active; 'I' for Inactive)
REMARK    1  A    between atoms: C_9  and  C_10 
ROOT
HETATM    1 CL   LIG     1      22.489  22.514  20.704  1.00  0.00    -0.082 Cl
HETATM    2  C   LIG     1      23.952  22.335  19.743  1.00  0.00     0.058 A 
HETATM    3  C   LIG     1      24.052  21.357  18.741  1.00  0.00     0.079 A 
HETATM    4 CL   LIG     1      22.694  20.276  18.427  1.00  0.00    -0.081 Cl
HETATM    5  C   LIG     1      25.239  21.242  17.992  1.00  0.00     0.080 A 
HETATM    6 CL   LIG     1      25.370  20.009  16.735  1.00  0.00    -0.081 Cl
HETATM    7  C   LIG     1      26.320  22.106  18.247  1.00  0.00     0.068 A 
HETATM    8 CL   LIG     1      27.819  21.940  17.328  1.00  0.00    -0.082 Cl
HETATM    9  C   LIG     1      26.211  23.086  19.254  1.00  0.00     0.001 A 
HETATM   10  C   LIG     1      25.026  23.192  19.993  1.00  0.00     0.040 A 
ENDROOT
BRANCH   9  11
HETATM   11  C   LIG     1      27.321  24.020  19.540  1.00  0.00     0.001 A 
HETATM   12  C   LIG     1      27.381  25.235  18.847  1.00  0.00     0.040 A 
HETATM   13  C   LIG     1      28.407  26.149  19.100  1.00  0.00     0.058 A 
HETATM   14  C   LIG     1      29.390  25.855  20.059  1.00  0.00     0.079 A 
HETATM   15 CL   LIG     1      28.432  27.659  18.196  1.00  0.00    -0.082 Cl
HETATM   16  C   LIG     1      29.339  24.636  20.762  1.00  0.00     0.080 A 
HETATM   17 CL   LIG     1      30.684  27.011  20.375  1.00  0.00    -0.081 Cl
HETATM   18 CL   LIG     1      30.576  24.259  21.964  1.00  0.00    -0.081 Cl
HETATM   19  C   LIG     1      28.304  23.716  20.504  1.00  0.00     0.068 A 
HETATM   20 CL   LIG     1      28.259  22.174  21.364  1.00  0.00    -0.082 Cl
ENDBRANCH   9  11
TORSDOF 1
ENDMDL
MODEL 4
REMARK VINA RESULT:      -4.7      1.799      6.520
REMARK  1 active torsions:
REMARK  status: ('A' for Active; 'I' for Inactive)
REMARK    1  A    between atoms: C_9  and  C_10 
ROOT
HETATM    1 CL   LIG     1      29.700  23.501  14.776  1.00  0.00    -0.082 Cl
HETATM    2  C   LIG     1      28.937  24.209  16.195  1.00  0.00     0.058 A 
HETATM    3  C   LIG     1      29.166  25.547  16.556  1.00  0.00     0.079 A 
HETATM    4 CL   LIG     1      30.238  26.551  15.579  1.00  0.00    -0.081 Cl
HETATM    5  C   LIG     1      28.540  26.080  17.699  1.00  0.00     0.080 A 
HETATM    6 CL   LIG     1      28.829  27.760  18.159  1.00  0.00    -0.081 Cl
HETATM    7  C   LIG     1      27.686  25.274  18.475  1.00  0.00     0.068 A 
HETATM    8 CL   LIG     1      26.926  25.935  19.926  1.00  0.00    -0.082 Cl
HETATM    9  C   LIG     1      27.461  23.933  18.106  1.00  0.00     0.001 A 
HETATM   10  C   LIG     1      28.089  23.412  16.967  1.00  0.00     0.040 A 
ENDROOT
BRANCH   9  11
HETATM   11  C   LIG     1      26.560  23.061  18.890  1.00  0.00     0.001 A 
HETATM   12  C   LIG     1      25.245  22.870  18.447  1.00  0.00     0.040 A 
HETATM   13  C   LIG     1      24.369  22.043  19.153  1.00  0.00     0.058 A 
HETATM   14  C   LIG     1      24.803  21.391  20.319  1.00  0.00     0.079 A 
HETATM   15 CL   LIG     1      22.728  21.844  18.550  1.00  0.00    -0.082 Cl
HETATM   16  C   LIG     1      26.124  21.575  20.773  1.00  0.00     0.080 A 
HETATM   17 CL   LIG     1      23.693  20.347  21.208  1.00  0.00    -0.081 Cl
HETATM   18 CL   LIG     1      26.672  20.762  22.240  1.00  0.00    -0.081 Cl
HETATM   19  C   LIG     1      27.004  22.410  20.059  1.00  0.00     0.068 A 
HETATM   20 CL   LIG     1      28.651  22.665  20.647  1.00  0.00    -0.082 Cl
ENDBRANCH   9  11
TORSDOF 1
ENDMDL
MODEL 5
REMARK VINA RESULT:      -4.7      1.930      2.987
REMARK  1 active torsions:
REMARK  status: ('A' for Active; 'I' for Inactive)
REMARK    1  A    between atoms: C_9  and  C_10 
ROOT
HETATM    1 CL   LIG     1      22.854  21.686  18.289  1.00  0.00    -0.082 Cl
HETATM    2  C   LIG     1      24.467  21.901  18.957  1.00  0.00     0.058 A 
HETATM    3  C   LIG     1      24.871  21.229  20.121  1.00  0.00     0.079 A 
HETATM    4 CL   LIG     1      23.749  20.145  20.945  1.00  0.00    -0.081 Cl
HETATM    5  C   LIG     1      26.170  21.425  20.628  1.00  0.00     0.080 A 
HETATM    6 CL   LIG     1      26.679  20.586  22.095  1.00  0.00    -0.081 Cl
HETATM    7  C   LIG     1      27.060  22.292  19.967  1.00  0.00     0.068 A 
HETATM    8 CL   LIG     1      28.679  22.562  20.621  1.00  0.00    -0.082 Cl
HETATM    9  C   LIG     1      26.648  22.962  18.798  1.00  0.00     0.001 A 
HETATM   10  C   LIG     1      25.353  22.760  18.302  1.00  0.00     0.040 A 
ENDROOT
BRANCH   9  11
HETATM   11  C   LIG     1      27.561  23.870  18.069  1.00  0.00     0.001 A 
HETATM   12  C   LIG     1      28.294  23.368  16.987  1.00  0.00     0.040 A 
HETATM   13  C   LIG     1      29.156  24.198  16.266  1.00  0.00     0.058 A 
HETATM   14  C   LIG     1      29.293  25.549  16.623  1.00  0.00     0.079 A 
HETATM   15 CL   LIG     1      30.053  23.512  14.916  1.00  0.00    -0.082 Cl
HETATM   16  C   LIG     1      28.561  26.064  17.710  1.00  0.00     0.080 A 
HETATM   17 CL   LIG     1      30.384  26.594  15.710  1.00  0.00    -0.081 Cl
HETATM   18 CL   LIG     1      28.734  27.760  18.166  1.00  0.00    -0.081 Cl
HETATM   19  C   LIG     1      27.693  25.225  18.435  1.00  0.00     0.068 A 
HETATM   20 CL   LIG     1      26.798  25.863  19.818  1.00  0.00    -0.082 Cl
ENDBRANCH   9  11
TORSDOF 1
ENDMDL
MODEL 6
REMARK VINA RESULT:      -4.6      4.300      6.888
REMARK  1 active torsions:
REMARK  status: ('A' for Active; 'I' for Inactive)
REMARK    1  A    between atoms: C_9  and  C_10 
ROOT
HETATM    1 CL   LIG     1      26.944  18.663  19.961  1.00  0.00    -0.082 Cl
HETATM    2  C   LIG     1      25.858  19.976  20.398  1.00  0.00     0.058 A 
HETATM    3  C   LIG     1      24.866  20.428  19.513  1.00  0.00     0.079 A 
HETATM    4 CL   LIG     1      24.693  19.677  17.926  1.00  0.00    -0.081 Cl
HETATM    5  C   LIG     1      24.014  21.482  19.896  1.00  0.00     0.080 A 
HETATM    6 CL   LIG     1      22.769  22.057  18.784  1.00  0.00    -0.081 Cl
HETATM    7  C   LIG     1      24.158  22.079  21.163  1.00  0.00     0.068 A 
HETATM    8 CL   LIG     1      23.110  23.422  21.630  1.00  0.00    -0.082 Cl
HETATM    9  C   LIG     1      25.155  21.619  22.045  1.00  0.00     0.001 A 
HETATM   10  C   LIG     1      25.997  20.569  21.655  1.00  0.00     0.040 A 
ENDROOT
BRANCH   9  11
HETATM   11  C   LIG     1      25.326  22.212  23.389  1.00  0.00     0.001 A 
HETATM   12  C   LIG     1      26.317  23.183  23.581  1.00  0.00     0.040 A 
HETATM   13  C   LIG     1      26.500  23.775  24.833  1.00  0.00     0.058 A 
HETATM   14  C   LIG     1      25.684  23.402  25.914  1.00  0.00     0.079 A 
HETATM   15 CL   LIG     1      27.763  24.987  25.015  1.00  0.00    -0.082 Cl
HETATM   16  C   LIG     1      24.684  22.427  25.731  1.00  0.00     0.080 A 
HETATM   17 CL   LIG     1      25.918  24.152  27.493  1.00  0.00    -0.081 Cl
HETATM   18 CL   LIG     1      23.660  21.950  27.088  1.00  0.00    -0.081 Cl
HETATM   19  C   LIG     1      24.503  21.831  24.468  1.00  0.00     0.068 A 
HETATM   20 CL   LIG     1      23.269  20.586  24.248  1.00  0.00    -0.082 Cl
ENDBRANCH   9  11
TORSDOF 1
ENDMDL
MODEL 7
REMARK VINA RESULT:      -4.5      4.251      5.443
REMARK  1 active torsions:
REMARK  status: ('A' for Active; 'I' for Inactive)
REMARK    1  A    between atoms: C_9  and  C_10 
ROOT
HETATM    1 CL   LIG     1      26.119  24.119  25.730  1.00  0.00    -0.082 Cl
HETATM    2  C   LIG     1      25.196  22.784  25.051  1.00  0.00     0.058 A 
HETATM    3  C   LIG     1      24.345  22.003  25.850  1.00  0.00     0.079 A 
HETATM    4 CL   LIG     1      24.189  22.353  27.572  1.00  0.00    -0.081 Cl
HETATM    5  C   LIG     1      23.622  20.942  25.273  1.00  0.00     0.080 A 
HETATM    6 CL   LIG     1      22.557  19.954  26.275  1.00  0.00    -0.081 Cl
HETATM    7  C   LIG     1      23.752  20.666  23.898  1.00  0.00     0.068 A 
HETATM    8 CL   LIG     1      22.868  19.315  23.182  1.00  0.00    -0.082 Cl
HETATM    9  C   LIG     1      24.606  21.455  23.103  1.00  0.00     0.001 A 
HETATM   10  C   LIG     1      25.321  22.509  23.687  1.00  0.00     0.040 A 
ENDROOT
BRANCH   9  11
HETATM   11  C   LIG     1      24.756  21.204  21.653  1.00  0.00     0.001 A 
HETATM   12  C   LIG     1      25.859  20.468  21.203  1.00  0.00     0.040 A 
HETATM   13  C   LIG     1      26.028  20.199  19.842  1.00  0.00     0.058 A 
HETATM   14  C   LIG     1      25.086  20.666  18.911  1.00  0.00     0.079 A 
HETATM   15 CL   LIG     1      27.434  19.272  19.335  1.00  0.00    -0.082 Cl
HETATM   16  C   LIG     1      23.973  21.407  19.354  1.00  0.00     0.080 A 
HETATM   17 CL   LIG     1      25.303  20.325  17.194  1.00  0.00    -0.081 Cl
HETATM   18 CL   LIG     1      22.789  22.001  18.186  1.00  0.00    -0.081 Cl
HETATM   19  C   LIG     1      23.806  21.677  20.725  1.00  0.00     0.068 A 
HETATM   20 CL   LIG     1      22.427  22.633  21.276  1.00  0.00    -0.082 Cl
ENDBRANCH   9  11
TORSDOF 1
ENDMDL
MODEL 8
REMARK VINA RESULT:      -4.5      1.038      2.485
REMARK  1 active torsions:
REMARK  status: ('A' for Active; 'I' for Inactive)
REMARK    1  A    between atoms: C_9  and  C_10 
ROOT
HETATM    1 CL   LIG     1      26.892  22.833  23.821  1.00  0.00    -0.082 Cl
HETATM    2  C   LIG     1      26.241  22.950  22.191  1.00  0.00     0.058 A 
HETATM    3  C   LIG     1      24.944  22.505  21.889  1.00  0.00     0.079 A 
HETATM    4 CL   LIG     1      23.934  21.810  23.158  1.00  0.00    -0.081 Cl
HETATM    5  C   LIG     1      24.455  22.614  20.573  1.00  0.00     0.080 A 
HETATM    6 CL   LIG     1      22.827  22.050  20.189  1.00  0.00    -0.081 Cl
HETATM    7  C   LIG     1      25.266  23.168  19.564  1.00  0.00     0.068 A 
HETATM    8 CL   LIG     1      24.663  23.275  17.907  1.00  0.00    -0.082 Cl
HETATM    9  C   LIG     1      26.566  23.613  19.876  1.00  0.00     0.001 A 
HETATM   10  C   LIG     1      27.042  23.501  21.189  1.00  0.00     0.040 A 
ENDROOT
BRANCH   9  11
HETATM   11  C   LIG     1      27.440  24.214  18.845  1.00  0.00     0.001 A 
HETATM   12  C   LIG     1      27.676  25.594  18.875  1.00  0.00     0.040 A 
HETATM   13  C   LIG     1      28.506  26.195  17.926  1.00  0.00     0.058 A 
HETATM   14  C   LIG     1      29.116  25.415  16.931  1.00  0.00     0.079 A 
HETATM   15 CL   LIG     1      28.763  27.934  18.013  1.00  0.00    -0.082 Cl
HETATM   16  C   LIG     1      28.886  24.026  16.891  1.00  0.00     0.080 A 
HETATM   17 CL   LIG     1      30.164  26.178  15.734  1.00  0.00    -0.081 Cl
HETATM   18 CL   LIG     1      29.646  23.042  15.638  1.00  0.00    -0.081 Cl
HETATM   19  C   LIG     1      28.048  23.423  17.849  1.00  0.00     0.068 A 
HETATM   20 CL   LIG     1      27.735  21.686  17.779  1.00  0.00    -0.082 Cl
ENDBRANCH   9  11
TORSDOF 1
ENDMDL
MODEL 9
REMARK VINA RESULT:      -4.3      4.653      6.310
REMARK  1 active torsions:
REMARK  status: ('A' for Active; 'I' for Inactive)
REMARK    1  A    between atoms: C_9  and  C_10 
ROOT
HETATM    1 CL   LIG     1      22.088  22.812  21.248  1.00  0.00    -0.082 Cl
HETATM    2  C   LIG     1      23.533  22.099  21.956  1.00  0.00     0.058 A 
HETATM    3  C   LIG     1      23.928  20.788  21.643  1.00  0.00     0.079 A 
HETATM    4 CL   LIG     1      22.968  19.823  20.522  1.00  0.00    -0.081 Cl
HETATM    5  C   LIG     1      25.090  20.250  22.229  1.00  0.00     0.080 A 
HETATM    6 CL   LIG     1      25.587  18.601  21.844  1.00  0.00    -0.081 Cl
HETATM    7  C   LIG     1      25.852  21.025  23.124  1.00  0.00     0.068 A 
HETATM    8 CL   LIG     1      27.291  20.336  23.883  1.00  0.00    -0.082 Cl
HETATM    9  C   LIG     1      25.449  22.339  23.432  1.00  0.00     0.001 A 
HETATM   10  C   LIG     1      24.291  22.866  22.843  1.00  0.00     0.040 A 
ENDROOT
BRANCH   9  11
HETATM   11  C   LIG     1      26.232  23.187  24.356  1.00  0.00     0.001 A 
HETATM   12  C   LIG     1      27.319  23.913  23.855  1.00  0.00     0.040 A 
HETATM   13  C   LIG     1      28.075  24.735  24.695  1.00  0.00     0.058 A 
HETATM   14  C   LIG     1      27.746  24.841  26.055  1.00  0.00     0.079 A 
HETATM   15 CL   LIG     1      29.431  25.621  24.008  1.00  0.00    -0.082 Cl
HETATM   16  C   LIG     1      26.654  24.116  26.570  1.00  0.00     0.080 A 
HETATM   17 CL   LIG     1      28.702  25.880  27.113  1.00  0.00    -0.081 Cl
HETATM   18 CL   LIG     1      26.240  24.243  28.281  1.00  0.00    -0.081 Cl
HETATM   19  C   LIG     1      25.895  23.288  25.721  1.00  0.00     0.068 A 
HETATM   20 CL   LIG     1      24.545  22.354  26.374  1.00  0.00    -0.082 Cl
ENDBRANCH   9  11
TORSDOF 1
ENDMDL
MODEL 10
REMARK VINA RESULT:      -4.3      1.371      3.572
REMARK  1 active torsions:
REMARK  status: ('A' for Active; 'I' for Inactive)
REMARK    1  A    between atoms: C_9  and  C_10 
ROOT
HETATM    1 CL   LIG     1      27.392  23.119  23.625  1.00  0.00    -0.082 Cl
HETATM    2  C   LIG     1      26.564  23.020  22.075  1.00  0.00     0.058 A 
HETATM    3  C   LIG     1      25.187  22.756  21.999  1.00  0.00     0.079 A 
HETATM    4 CL   LIG     1      24.254  22.514  23.476  1.00  0.00    -0.081 Cl
HETATM    5  C   LIG     1      24.557  22.684  20.742  1.00  0.00     0.080 A 
HETATM    6 CL   LIG     1      22.827  22.346  20.641  1.00  0.00    -0.081 Cl
HETATM    7  C   LIG     1      25.307  22.877  19.566  1.00  0.00     0.068 A 
HETATM    8 CL   LIG     1      24.521  22.754  17.988  1.00  0.00    -0.082 Cl
HETATM    9  C   LIG     1      26.688  23.143  19.651  1.00  0.00     0.001 A 
HETATM   10  C   LIG     1      27.305  23.213  20.907  1.00  0.00     0.040 A 
ENDROOT
BRANCH   9  11
HETATM   11  C   LIG     1      27.504  23.365  18.438  1.00  0.00     0.001 A 
HETATM   12  C   LIG     1      27.918  22.258  17.687  1.00  0.00     0.040 A 
HETATM   13  C   LIG     1      28.680  22.429  16.528  1.00  0.00     0.058 A 
HETATM   14  C   LIG     1      29.035  23.720  16.104  1.00  0.00     0.079 A 
HETATM   15 CL   LIG     1      29.173  21.001  15.626  1.00  0.00    -0.082 Cl
HETATM   16  C   LIG     1      28.624  24.840  16.852  1.00  0.00     0.080 A 
HETATM   17 CL   LIG     1      29.997  23.931  14.640  1.00  0.00    -0.081 Cl
HETATM   18 CL   LIG     1      29.073  26.464  16.326  1.00  0.00    -0.081 Cl
HETATM   19  C   LIG     1      27.857  24.664  18.020  1.00  0.00     0.068 A 
HETATM   20 CL   LIG     1      27.368  26.068  18.975  1.00  0.00    -0.082 Cl
ENDBRANCH   9  11
TORSDOF 1
ENDMDL
MODEL 11
REMARK VINA RESULT:      -4.3      4.260      6.096
REMARK  1 active torsions:
REMARK  status: ('A' for Active; 'I' for Inactive)
REMARK    1  A    between atoms: C_9  and  C_10 
ROOT
HETATM    1 CL   LIG     1      22.060  22.806  21.250  1.00  0.00    -0.082 Cl
HETATM    2  C   LIG     1      23.573  22.147  21.863  1.00  0.00     0.058 A 
HETATM    3  C   LIG     1      24.047  20.895  21.441  1.00  0.00     0.079 A 
HETATM    4 CL   LIG     1      23.120  19.949  20.276  1.00  0.00    -0.081 Cl
HETATM    5  C   LIG     1      25.261  20.398  21.953  1.00  0.00     0.080 A 
HETATM    6 CL   LIG     1      25.859  18.822  21.430  1.00  0.00    -0.081 Cl
HETATM    7  C   LIG     1      25.997  21.157  22.884  1.00  0.00     0.068 A 
HETATM    8 CL   LIG     1      27.504  20.519  23.549  1.00  0.00    -0.082 Cl
HETATM    9  C   LIG     1      25.514  22.414  23.301  1.00  0.00     0.001 A 
HETATM   10  C   LIG     1      24.305  22.899  22.785  1.00  0.00     0.040 A 
ENDROOT
BRANCH   9  11
HETATM   11  C   LIG     1      26.266  23.245  24.266  1.00  0.00     0.001 A 
HETATM   12  C   LIG     1      25.924  23.187  25.622  1.00  0.00     0.040 A 
HETATM   13  C   LIG     1      26.620  23.947  26.565  1.00  0.00     0.058 A 
HETATM   14  C   LIG     1      27.676  24.778  26.157  1.00  0.00     0.079 A 
HETATM   15 CL   LIG     1      26.143  23.835  28.255  1.00  0.00    -0.082 Cl
HETATM   16  C   LIG     1      28.029  24.843  24.795  1.00  0.00     0.080 A 
HETATM   17 CL   LIG     1      28.553  25.737  27.350  1.00  0.00    -0.081 Cl
HETATM   18 CL   LIG     1      29.352  25.890  24.277  1.00  0.00    -0.081 Cl
HETATM   19  C   LIG     1      27.325  24.076  23.847  1.00  0.00     0.068 A 
HETATM   20 CL   LIG     1      27.747  24.183  22.135  1.00  0.00    -0.082 Cl
ENDBRANCH   9  11
TORSDOF 1
ENDMDL
MODEL 12
REMARK VINA RESULT:      -4.3      0.908      2.423
REMARK  1 active torsions:
REMARK  status: ('A' for Active; 'I' for Inactive)
REMARK    1  A    between atoms: C_9  and  C_10 
ROOT
HETATM    1 CL   LIG     1      22.537  22.823  21.255  1.00  0.00    -0.082 Cl
HETATM    2  C   LIG     1      24.290  22.836  21.409  1.00  0.00     0.058 A 
HETATM    3  C   LIG     1      24.920  22.488  22.614  1.00  0.00     0.079 A 
HETATM    4 CL   LIG     1      23.949  22.027  24.013  1.00  0.00    -0.081 Cl
HETATM    5  C   LIG     1      26.325  22.510  22.701  1.00  0.00     0.080 A 
HETATM    6 CL   LIG     1      27.121  22.079  24.216  1.00  0.00    -0.081 Cl
HETATM    7  C   LIG     1      27.095  22.880  21.581  1.00  0.00     0.068 A 
HETATM    8 CL   LIG     1      28.856  22.938  21.702  1.00  0.00    -0.082 Cl
HETATM    9  C   LIG     1      26.455  23.227  20.375  1.00  0.00     0.001 A 
HETATM   10  C   LIG     1      25.056  23.201  20.299  1.00  0.00     0.040 A 
ENDROOT
BRANCH   9  11
HETATM   11  C   LIG     1      27.231  23.607  19.175  1.00  0.00     0.001 A 
HETATM   12  C   LIG     1      27.534  22.624  18.224  1.00  0.00     0.040 A 
HETATM   13  C   LIG     1      28.254  22.948  17.071  1.00  0.00     0.058 A 
HETATM   14  C   LIG     1      28.679  24.268  16.856  1.00  0.00     0.079 A 
HETATM   15 CL   LIG     1      28.606  21.671  15.913  1.00  0.00    -0.082 Cl
HETATM   16  C   LIG     1      28.380  25.264  17.805  1.00  0.00     0.080 A 
HETATM   17 CL   LIG     1      29.588  24.672  15.399  1.00  0.00    -0.081 Cl
HETATM   18 CL   LIG     1      28.918  26.924  17.541  1.00  0.00    -0.081 Cl
HETATM   19  C   LIG     1      27.655  24.935  18.966  1.00  0.00     0.068 A 
HETATM   20 CL   LIG     1      27.307  26.178  20.173  1.00  0.00    -0.082 Cl
ENDBRANCH   9  11
TORSDOF 1
ENDMDL
MODEL 13
REMARK VINA RESULT:      -4.2      2.809      5.270
REMARK  1 active torsions:
REMARK  status: ('A' for Active; 'I' for Inactive)
REMARK    1  A    between atoms: C_9  and  C_10 
ROOT
HETATM    1 CL   LIG     1      22.067  22.831  21.222  1.00  0.00    -0.082 Cl
HETATM    2  C   LIG     1      23.745  22.572  20.760  1.00  0.00     0.058 A 
HETATM    3  C   LIG     1      24.082  21.990  19.527  1.00  0.00     0.079 A 
HETATM    4 CL   LIG     1      22.809  21.503  18.407  1.00  0.00    -0.081 Cl
HETATM    5  C   LIG     1      25.435  21.797  19.190  1.00  0.00     0.080 A 
HETATM    6 CL   LIG     1      25.862  21.062  17.643  1.00  0.00    -0.081 Cl
HETATM    7  C   LIG     1      26.447  22.187  20.088  1.00  0.00     0.068 A 
HETATM    8 CL   LIG     1      28.144  21.915  19.678  1.00  0.00    -0.082 Cl
HETATM    9  C   LIG     1      26.101  22.770  21.323  1.00  0.00     0.001 A 
HETATM   10  C   LIG     1      24.751  22.959  21.648  1.00  0.00     0.040 A 
ENDROOT
BRANCH   9  11
HETATM   11  C   LIG     1      27.137  23.205  22.285  1.00  0.00     0.001 A 
HETATM   12  C   LIG     1      27.426  22.389  23.386  1.00  0.00     0.040 A 
HETATM   13  C   LIG     1      28.407  22.760  24.309  1.00  0.00     0.058 A 
HETATM   14  C   LIG     1      29.116  23.959  24.137  1.00  0.00     0.079 A 
HETATM   15 CL   LIG     1      28.724  21.696  25.674  1.00  0.00    -0.082 Cl
HETATM   16  C   LIG     1      28.835  24.787  23.032  1.00  0.00     0.080 A 
HETATM   17 CL   LIG     1      30.355  24.424  25.304  1.00  0.00    -0.081 Cl
HETATM   18 CL   LIG     1      29.721  26.298  22.815  1.00  0.00    -0.081 Cl
HETATM   19  C   LIG     1      27.845  24.411  22.104  1.00  0.00     0.068 A 
HETATM   20 CL   LIG     1      27.470  25.465  20.737  1.00  0.00    -0.082 Cl
ENDBRANCH   9  11
TORSDOF 1
ENDMDL
MODEL 14
REMARK VINA RESULT:      -4.2      1.958      3.067
REMARK  1 active torsions:
REMARK  status: ('A' for Active; 'I' for Inactive)
REMARK    1  A    between atoms: C_9  and  C_10 
ROOT
HETATM    1 CL   LIG     1      22.052  22.928  21.370  1.00  0.00    -0.082 Cl
HETATM    2  C   LIG     1      23.717  22.360  21.354  1.00  0.00     0.058 A 
HETATM    3  C   LIG     1      24.039  21.034  21.684  1.00  0.00     0.079 A 
HETATM    4 CL   LIG     1      22.761  19.902  22.127  1.00  0.00    -0.081 Cl
HETATM    5  C   LIG     1      25.383  20.614  21.663  1.00  0.00     0.080 A 
HETATM    6 CL   LIG     1      25.792  18.949  22.082  1.00  0.00    -0.081 Cl
HETATM    7  C   LIG     1      26.399  21.522  21.309  1.00  0.00     0.068 A 
HETATM    8 CL   LIG     1      28.087  21.002  21.313  1.00  0.00    -0.082 Cl
HETATM    9  C   LIG     1      26.067  22.851  20.978  1.00  0.00     0.001 A 
HETATM   10  C   LIG     1      24.727  23.259  21.003  1.00  0.00     0.040 A 
ENDROOT
BRANCH   9  11
HETATM   11  C   LIG     1      27.107  23.828  20.589  1.00  0.00     0.001 A 
HETATM   12  C   LIG     1      27.315  24.092  19.229  1.00  0.00     0.040 A 
HETATM   13  C   LIG     1      28.278  25.018  18.823  1.00  0.00     0.058 A 
HETATM   14  C   LIG     1      29.048  25.698  19.781  1.00  0.00     0.079 A 
HETATM   15 CL   LIG     1      28.497  25.306  17.101  1.00  0.00    -0.082 Cl
HETATM   16  C   LIG     1      28.846  25.441  21.151  1.00  0.00     0.080 A 
HETATM   17 CL   LIG     1      30.264  26.867  19.264  1.00  0.00    -0.081 Cl
HETATM   18 CL   LIG     1      29.815  26.289  22.359  1.00  0.00    -0.081 Cl
HETATM   19  C   LIG     1      27.875  24.506  21.557  1.00  0.00     0.068 A 
HETATM   20 CL   LIG     1      27.645  24.161  23.274  1.00  0.00    -0.082 Cl
ENDBRANCH   9  11
TORSDOF 1
ENDMDL
MODEL 15
REMARK VINA RESULT:      -4.2      3.115      7.024
REMARK  1 active torsions:
REMARK  status: ('A' for Active; 'I' for Inactive)
REMARK    1  A    between atoms: C_9  and  C_10 
ROOT
HETATM    1 CL   LIG     1      22.064  22.806  20.938  1.00  0.00    -0.082 Cl
HETATM    2  C   LIG     1      23.754  22.658  21.405  1.00  0.00     0.058 A 
HETATM    3  C   LIG     1      24.775  22.597  20.443  1.00  0.00     0.079 A 
HETATM    4 CL   LIG     1      24.373  22.668  18.727  1.00  0.00    -0.081 Cl
HETATM    5  C   LIG     1      26.116  22.478  20.854  1.00  0.00     0.080 A 
HETATM    6 CL   LIG     1      27.403  22.395  19.647  1.00  0.00    -0.081 Cl
HETATM    7  C   LIG     1      26.432  22.421  22.225  1.00  0.00     0.068 A 
HETATM    8 CL   LIG     1      28.112  22.239  22.737  1.00  0.00    -0.082 Cl
HETATM    9  C   LIG     1      25.401  22.483  23.184  1.00  0.00     0.001 A 
HETATM   10  C   LIG     1      24.070  22.602  22.765  1.00  0.00     0.040 A 
ENDROOT
BRANCH   9  11
HETATM   11  C   LIG     1      25.696  22.440  24.632  1.00  0.00     0.001 A 
HETATM   12  C   LIG     1      25.881  23.644  25.323  1.00  0.00     0.040 A 
HETATM   13  C   LIG     1      26.148  23.644  26.694  1.00  0.00     0.058 A 
HETATM   14  C   LIG     1      26.231  22.430  27.394  1.00  0.00     0.079 A 
HETATM   15 CL   LIG     1      26.374  25.188  27.508  1.00  0.00    -0.082 Cl
HETATM   16  C   LIG     1      26.046  21.213  26.710  1.00  0.00     0.080 A 
HETATM   17 CL   LIG     1      26.568  22.434  29.126  1.00  0.00    -0.081 Cl
HETATM   18 CL   LIG     1      26.154  19.684  27.585  1.00  0.00    -0.081 Cl
HETATM   19  C   LIG     1      25.777  21.216  25.327  1.00  0.00     0.068 A 
HETATM   20 CL   LIG     1      25.577  19.689  24.463  1.00  0.00    -0.082 Cl
ENDBRANCH   9  11
TORSDOF 1
ENDMDL
MODEL 16
REMARK VINA RESULT:      -4.2      1.925      2.426
REMARK  1 active torsions:
REMARK  status: ('A' for Active; 'I' for Inactive)
REMARK    1  A    between atoms: C_9  and  C_10 
ROOT
HETATM    1 CL   LIG     1      21.984  22.932  21.371  1.00  0.00    -0.082 Cl
HETATM    2  C   LIG     1      23.647  22.367  21.469  1.00  0.00     0.058 A 
HETATM    3  C   LIG     1      23.952  21.066  21.902  1.00  0.00     0.079 A 
HETATM    4 CL   LIG     1      22.653  19.964  22.361  1.00  0.00    -0.081 Cl
HETATM    5  C   LIG     1      25.295  20.647  21.969  1.00  0.00     0.080 A 
HETATM    6 CL   LIG     1      25.682  19.015  22.517  1.00  0.00    -0.081 Cl
HETATM    7  C   LIG     1      26.327  21.531  21.601  1.00  0.00     0.068 A 
HETATM    8 CL   LIG     1      28.013  21.015  21.716  1.00  0.00    -0.082 Cl
HETATM    9  C   LIG     1      26.013  22.834  21.168  1.00  0.00     0.001 A 
HETATM   10  C   LIG     1      24.674  23.241  21.104  1.00  0.00     0.040 A 
ENDROOT
BRANCH   9  11
HETATM   11  C   LIG     1      27.071  23.785  20.761  1.00  0.00     0.001 A 
HETATM   12  C   LIG     1      27.755  24.502  21.750  1.00  0.00     0.040 A 
HETATM   13  C   LIG     1      28.769  25.399  21.405  1.00  0.00     0.058 A 
HETATM   14  C   LIG     1      29.112  25.588  20.057  1.00  0.00     0.079 A 
HETATM   15 CL   LIG     1      29.592  26.274  22.691  1.00  0.00    -0.082 Cl
HETATM   16  C   LIG     1      28.431  24.871  19.054  1.00  0.00     0.080 A 
HETATM   17 CL   LIG     1      30.393  26.722  19.625  1.00  0.00    -0.081 Cl
HETATM   18 CL   LIG     1      28.856  25.109  17.357  1.00  0.00    -0.081 Cl
HETATM   19  C   LIG     1      27.409  23.968  19.404  1.00  0.00     0.068 A 
HETATM   20 CL   LIG     1      26.533  23.093  18.144  1.00  0.00    -0.082 Cl
ENDBRANCH   9  11
TORSDOF 1
ENDMDL
MODEL 17
REMARK VINA RESULT:      -4.1      3.162      5.586
REMARK  1 active torsions:
REMARK  status: ('A' for Active; 'I' for Inactive)
REMARK    1  A    between atoms: C_9  and  C_10 
ROOT
HETATM    1 CL   LIG     1      26.486  25.020  27.792  1.00  0.00    -0.082 Cl
HETATM    2  C   LIG     1      26.198  23.508  26.938  1.00  0.00     0.058 A 
HETATM    3  C   LIG     1      26.232  22.274  27.606  1.00  0.00     0.079 A 
HETATM    4 CL   LIG     1      26.569  22.219  29.336  1.00  0.00    -0.081 Cl
HETATM    5  C   LIG     1      25.998  21.084  26.890  1.00  0.00     0.080 A 
HETATM    6 CL   LIG     1      26.044  19.530  27.725  1.00  0.00    -0.081 Cl
HETATM    7  C   LIG     1      25.730  21.135  25.508  1.00  0.00     0.068 A 
HETATM    8 CL   LIG     1      25.467  19.639  24.606  1.00  0.00    -0.082 Cl
HETATM    9  C   LIG     1      25.697  22.377  24.846  1.00  0.00     0.001 A 
HETATM   10  C   LIG     1      25.931  23.555  25.567  1.00  0.00     0.040 A 
ENDROOT
BRANCH   9  11
HETATM   11  C   LIG     1      25.405  22.470  23.399  1.00  0.00     0.001 A 
HETATM   12  C   LIG     1      24.073  22.578  22.981  1.00  0.00     0.040 A 
HETATM   13  C   LIG     1      23.759  22.680  21.624  1.00  0.00     0.058 A 
HETATM   14  C   LIG     1      24.783  22.677  20.663  1.00  0.00     0.079 A 
HETATM   15 CL   LIG     1      22.067  22.812  21.159  1.00  0.00    -0.082 Cl
HETATM   16  C   LIG     1      26.126  22.569  21.072  1.00  0.00     0.080 A 
HETATM   17 CL   LIG     1      24.382  22.807  18.950  1.00  0.00    -0.081 Cl
HETATM   18 CL   LIG     1      27.416  22.559  19.868  1.00  0.00    -0.081 Cl
HETATM   19  C   LIG     1      26.439  22.465  22.441  1.00  0.00     0.068 A 
HETATM   20 CL   LIG     1      28.122  22.298  22.951  1.00  0.00    -0.082 Cl
ENDBRANCH   9  11
TORSDOF 1
ENDMDL
MODEL 18
REMARK VINA RESULT:      -4.0      4.605      5.716
REMARK  1 active torsions:
REMARK  status: ('A' for Active; 'I' for Inactive)
REMARK    1  A    between atoms: C_9  and  C_10 
ROOT
HETATM    1 CL   LIG     1      27.581  24.985  25.124  1.00  0.00    -0.082 Cl
HETATM    2  C   LIG     1      26.349  23.729  25.067  1.00  0.00     0.058 A 
HETATM    3  C   LIG     1      25.658  23.331  26.223  1.00  0.00     0.079 A 
HETATM    4 CL   LIG     1      26.021  24.094  27.772  1.00  0.00    -0.081 Cl
HETATM    5  C   LIG     1      24.680  22.322  26.140  1.00  0.00     0.080 A 
HETATM    6 CL   LIG     1      23.812  21.815  27.592  1.00  0.00    -0.081 Cl
HETATM    7  C   LIG     1      24.395  21.716  24.902  1.00  0.00     0.068 A 
HETATM    8 CL   LIG     1      23.189  20.429  24.806  1.00  0.00    -0.082 Cl
HETATM    9  C   LIG     1      25.092  22.122  23.747  1.00  0.00     0.001 A 
HETATM   10  C   LIG     1      26.064  23.127  23.840  1.00  0.00     0.040 A 
ENDROOT
BRANCH   9  11
HETATM   11  C   LIG     1      24.810  21.518  22.427  1.00  0.00     0.001 A 
HETATM   12  C   LIG     1      23.887  22.142  21.578  1.00  0.00     0.040 A 
HETATM   13  C   LIG     1      23.605  21.608  20.319  1.00  0.00     0.058 A 
HETATM   14  C   LIG     1      24.250  20.436  19.891  1.00  0.00     0.079 A 
HETATM   15 CL   LIG     1      22.434  22.434  19.297  1.00  0.00    -0.082 Cl
HETATM   16  C   LIG     1      25.180  19.801  20.736  1.00  0.00     0.080 A 
HETATM   17 CL   LIG     1      23.890  19.765  18.299  1.00  0.00    -0.081 Cl
HETATM   18 CL   LIG     1      25.989  18.325  20.205  1.00  0.00    -0.081 Cl
HETATM   19  C   LIG     1      25.462  20.341  22.005  1.00  0.00     0.068 A 
HETATM   20 CL   LIG     1      26.605  19.526  23.078  1.00  0.00    -0.082 Cl
ENDBRANCH   9  11
TORSDOF 1
ENDMDL
MODEL 19
REMARK VINA RESULT:      -4.0     15.235     17.141
REMARK  1 active torsions:
REMARK  status: ('A' for Active; 'I' for Inactive)
REMARK    1  A    between atoms: C_9  and  C_10 
ROOT
HETATM    1 CL   LIG     1      20.412  18.479  37.836  1.00  0.00    -0.082 Cl
HETATM    2  C   LIG     1      20.805  19.901  36.878  1.00  0.00     0.058 A 
HETATM    3  C   LIG     1      19.815  20.601  36.170  1.00  0.00     0.079 A 
HETATM    4 CL   LIG     1      18.138  20.054  36.229  1.00  0.00    -0.081 Cl
HETATM    5  C   LIG     1      20.165  21.735  35.412  1.00  0.00     0.080 A 
HETATM    6 CL   LIG     1      18.924  22.613  34.516  1.00  0.00    -0.081 Cl
HETATM    7  C   LIG     1      21.505  22.166  35.368  1.00  0.00     0.068 A 
HETATM    8 CL   LIG     1      21.948  23.570  34.392  1.00  0.00    -0.082 Cl
HETATM    9  C   LIG     1      22.492  21.459  36.082  1.00  0.00     0.001 A 
HETATM   10  C   LIG     1      22.133  20.332  36.833  1.00  0.00     0.040 A 
ENDROOT
BRANCH   9  11
HETATM   11  C   LIG     1      23.907  21.891  36.070  1.00  0.00     0.001 A 
HETATM   12  C   LIG     1      24.788  21.302  35.154  1.00  0.00     0.040 A 
HETATM   13  C   LIG     1      26.128  21.693  35.104  1.00  0.00     0.058 A 
HETATM   14  C   LIG     1      26.604  22.687  35.975  1.00  0.00     0.079 A 
HETATM   15 CL   LIG     1      27.189  20.916  33.934  1.00  0.00    -0.082 Cl
HETATM   16  C   LIG     1      25.726  23.285  36.899  1.00  0.00     0.080 A 
HETATM   17 CL   LIG     1      28.297  23.177  35.908  1.00  0.00    -0.081 Cl
HETATM   18 CL   LIG     1      26.321  24.531  37.999  1.00  0.00    -0.081 Cl
HETATM   19  C   LIG     1      24.376  22.889  36.948  1.00  0.00     0.068 A 
HETATM   20 CL   LIG     1      23.283  23.618  38.129  1.00  0.00    -0.082 Cl
ENDBRANCH   9  11
TORSDOF 1
ENDMDL
MODEL 20
REMARK VINA RESULT:      -4.0      3.190      5.460
REMARK  1 active torsions:
REMARK  status: ('A' for Active; 'I' for Inactive)
REMARK    1  A    between atoms: C_9  and  C_10 
ROOT
HETATM    1 CL   LIG     1      21.827  22.821  21.256  1.00  0.00    -0.082 Cl
HETATM    2  C   LIG     1      23.536  22.551  20.935  1.00  0.00     0.058 A 
HETATM    3  C   LIG     1      23.978  22.060  19.696  1.00  0.00     0.079 A 
HETATM    4 CL   LIG     1      22.810  21.700  18.425  1.00  0.00    -0.081 Cl
HETATM    5  C   LIG     1      25.353  21.856  19.475  1.00  0.00     0.080 A 
HETATM    6 CL   LIG     1      25.913  21.234  17.920  1.00  0.00    -0.081 Cl
HETATM    7  C   LIG     1      26.282  22.145  20.493  1.00  0.00     0.068 A 
HETATM    8 CL   LIG     1      28.004  21.858  20.225  1.00  0.00    -0.082 Cl
HETATM    9  C   LIG     1      25.830  22.638  21.733  1.00  0.00     0.001 A 
HETATM   10  C   LIG     1      24.459  22.838  21.943  1.00  0.00     0.040 A 
ENDROOT
BRANCH   9  11
HETATM   11  C   LIG     1      26.777  22.965  22.821  1.00  0.00     0.001 A 
HETATM   12  C   LIG     1      27.343  24.245  22.866  1.00  0.00     0.040 A 
HETATM   13  C   LIG     1      28.231  24.596  23.886  1.00  0.00     0.058 A 
HETATM   14  C   LIG     1      28.564  23.662  24.880  1.00  0.00     0.079 A 
HETATM   15 CL   LIG     1      28.911  26.218  23.889  1.00  0.00    -0.082 Cl
HETATM   16  C   LIG     1      28.001  22.371  24.844  1.00  0.00     0.080 A 
HETATM   17 CL   LIG     1      29.686  24.108  26.166  1.00  0.00    -0.081 Cl
HETATM   18 CL   LIG     1      28.420  21.192  26.089  1.00  0.00    -0.081 Cl
HETATM   19  C   LIG     1      27.106  22.021  23.815  1.00  0.00     0.068 A 
HETATM   20 CL   LIG     1      26.425  20.392  23.753  1.00  0.00    -0.082 Cl
ENDBRANCH   9  11
TORSDOF 1
ENDMDL
