MODEL 1
REMARK VINA RESULT:      -5.8      0.000      0.000
REMARK  2 active torsions:
REMARK  status: ('A' for Active; 'I' for Inactive)
REMARK    1  A    between atoms: C_23  and  O_24 
REMARK    2  A    between atoms: C_26  and  O_27 
ROOT
HETATM    1  O   LIG     1      26.322  21.330  23.329  1.00  0.00    -0.273 OA
HETATM    2  C   LIG     1      26.675  22.246  22.540  1.00  0.00     0.227 C 
HETATM    3  C   LIG     1      27.312  23.542  23.076  1.00  0.00     0.135 C 
HETATM    4  N   LIG     1      26.443  22.130  21.122  1.00  0.00    -0.311 N 
HETATM    5  C   LIG     1      26.536  23.353  20.394  1.00  0.00     0.115 C 
HETATM    6  C   LIG     1      26.356  23.073  18.891  1.00  0.00     0.043 C 
HETATM    7  C   LIG     1      27.505  22.303  18.212  1.00  0.00     0.049 C 
HETATM    8  C   LIG     1      28.365  23.319  17.466  1.00  0.00     0.274 C 
HETATM    9  C   LIG     1      26.346  24.461  18.129  1.00  0.00     0.239 C 
HETATM   10  N   LIG     1      27.671  24.615  17.438  1.00  0.00     0.098 N 
HETATM   11  C   LIG     1      28.573  25.758  17.857  1.00  0.00     0.307 C 
HETATM   12  C   LIG     1      26.162  25.654  19.095  1.00  0.00     0.046 C 
HETATM   13  C   LIG     1      27.371  25.618  20.097  1.00  0.00     0.026 C 
HETATM   14  C   LIG     1      28.598  26.000  19.376  1.00  0.00    -0.049 C 
HETATM   15  C   LIG     1      29.752  26.120  20.091  1.00  0.00     0.004 C 
HETATM   16  C   LIG     1      29.920  25.862  21.617  1.00  0.00     0.196 C 
HETATM   17  O   LIG     1      28.763  25.467  22.385  1.00  0.00    -0.381 OA
HETATM   18  C   LIG     1      28.320  24.153  22.051  1.00  0.00     0.137 C 
HETATM   19  C   LIG     1      27.731  24.186  20.637  1.00  0.00     0.048 C 
HETATM   20  C   LIG     1      25.403  21.489  20.358  1.00  0.00     0.047 A 
HETATM   21  C   LIG     1      25.232  22.091  19.101  1.00  0.00    -0.015 A 
HETATM   22  C   LIG     1      24.269  21.638  18.212  1.00  0.00     0.050 A 
HETATM   23  C   LIG     1      23.407  20.597  18.604  1.00  0.00     0.102 A 
HETATM   24  C   LIG     1      23.549  20.002  19.900  1.00  0.00     0.103 A 
HETATM   25  C   LIG     1      24.563  20.463  20.777  1.00  0.00     0.070 A 
ENDROOT
BRANCH  23  26
HETATM   26  O   LIG     1      22.442  20.199  17.660  1.00  0.00    -0.353 OA
HETATM   27  C   LIG     1      22.513  19.065  16.804  1.00  0.00     0.210 C 
ENDBRANCH  23  26
BRANCH  24  28
HETATM   28  O   LIG     1      22.683  18.968  20.292  1.00  0.00    -0.353 OA
HETATM   29  C   LIG     1      22.778  18.244  21.514  1.00  0.00     0.210 C 
ENDBRANCH  24  28
TORSDOF 2
ENDMDL
MODEL 2
REMARK VINA RESULT:      -5.7      2.208      7.143
REMARK  2 active torsions:
REMARK  status: ('A' for Active; 'I' for Inactive)
REMARK    1  A    between atoms: C_23  and  O_24 
REMARK    2  A    between atoms: C_26  and  O_27 
ROOT
HETATM    1  O   LIG     1      28.083  25.056  19.429  1.00  0.00    -0.273 OA
HETATM    2  C   LIG     1      27.109  24.298  19.678  1.00  0.00     0.227 C 
HETATM    3  C   LIG     1      26.013  24.056  18.624  1.00  0.00     0.135 C 
HETATM    4  N   LIG     1      26.967  23.681  20.973  1.00  0.00    -0.311 N 
HETATM    5  C   LIG     1      25.667  23.165  21.255  1.00  0.00     0.115 C 
HETATM    6  C   LIG     1      25.678  22.460  22.623  1.00  0.00     0.043 C 
HETATM    7  C   LIG     1      26.477  21.144  22.691  1.00  0.00     0.049 C 
HETATM    8  C   LIG     1      25.480  19.993  22.604  1.00  0.00     0.274 C 
HETATM    9  C   LIG     1      24.198  22.006  22.955  1.00  0.00     0.239 C 
HETATM   10  N   LIG     1      24.115  20.521  22.744  1.00  0.00     0.098 N 
HETATM   11  C   LIG     1      23.185  19.997  21.668  1.00  0.00     0.307 C 
HETATM   12  C   LIG     1      23.159  22.685  22.032  1.00  0.00     0.046 C 
HETATM   13  C   LIG     1      23.516  22.266  20.561  1.00  0.00     0.026 C 
HETATM   14  C   LIG     1      23.193  20.840  20.381  1.00  0.00    -0.049 C 
HETATM   15  C   LIG     1      23.343  20.299  19.139  1.00  0.00     0.004 C 
HETATM   16  C   LIG     1      23.861  21.038  17.871  1.00  0.00     0.196 C 
HETATM   17  O   LIG     1      24.215  22.433  17.976  1.00  0.00    -0.381 OA
HETATM   18  C   LIG     1      25.387  22.631  18.764  1.00  0.00     0.137 C 
HETATM   19  C   LIG     1      25.051  22.307  20.222  1.00  0.00     0.048 C 
HETATM   20  C   LIG     1      27.333  24.111  22.299  1.00  0.00     0.047 A 
HETATM   21  C   LIG     1      26.521  23.521  23.281  1.00  0.00    -0.015 A 
HETATM   22  C   LIG     1      26.693  23.813  24.626  1.00  0.00     0.050 A 
HETATM   23  C   LIG     1      27.659  24.764  25.004  1.00  0.00     0.102 A 
HETATM   24  C   LIG     1      28.466  25.400  24.005  1.00  0.00     0.103 A 
HETATM   25  C   LIG     1      28.290  25.059  22.641  1.00  0.00     0.070 A 
ENDROOT
BRANCH  23  26
HETATM   26  O   LIG     1      27.768  25.025  26.383  1.00  0.00    -0.353 OA
HETATM   27  C   LIG     1      26.809  24.704  27.384  1.00  0.00     0.210 C 
ENDBRANCH  23  26
BRANCH  24  28
HETATM   28  O   LIG     1      29.423  26.355  24.385  1.00  0.00    -0.353 OA
HETATM   29  C   LIG     1      30.400  26.919  23.517  1.00  0.00     0.210 C 
ENDBRANCH  24  28
TORSDOF 2
ENDMDL
MODEL 3
REMARK VINA RESULT:      -5.7      2.673      7.081
REMARK  2 active torsions:
REMARK  status: ('A' for Active; 'I' for Inactive)
REMARK    1  A    between atoms: C_23  and  O_24 
REMARK    2  A    between atoms: C_26  and  O_27 
ROOT
HETATM    1  O   LIG     1      27.930  25.061  21.265  1.00  0.00    -0.273 OA
HETATM    2  C   LIG     1      26.974  24.260  21.093  1.00  0.00     0.227 C 
HETATM    3  C   LIG     1      26.197  24.237  19.763  1.00  0.00     0.135 C 
HETATM    4  N   LIG     1      26.547  23.381  22.153  1.00  0.00    -0.311 N 
HETATM    5  C   LIG     1      25.253  22.808  21.975  1.00  0.00     0.115 C 
HETATM    6  C   LIG     1      24.960  21.829  23.128  1.00  0.00     0.043 C 
HETATM    7  C   LIG     1      25.797  20.535  23.134  1.00  0.00     0.049 C 
HETATM    8  C   LIG     1      24.929  19.420  22.559  1.00  0.00     0.274 C 
HETATM    9  C   LIG     1      23.476  21.304  22.962  1.00  0.00     0.239 C 
HETATM   10  N   LIG     1      23.543  19.896  22.441  1.00  0.00     0.098 N 
HETATM   11  C   LIG     1      22.950  19.604  21.077  1.00  0.00     0.307 C 
HETATM   12  C   LIG     1      22.665  22.154  21.958  1.00  0.00     0.046 C 
HETATM   13  C   LIG     1      23.409  22.058  20.578  1.00  0.00     0.026 C 
HETATM   14  C   LIG     1      23.232  20.700  20.035  1.00  0.00    -0.049 C 
HETATM   15  C   LIG     1      23.726  20.435  18.792  1.00  0.00     0.004 C 
HETATM   16  C   LIG     1      24.501  21.430  17.879  1.00  0.00     0.196 C 
HETATM   17  O   LIG     1      24.728  22.774  18.353  1.00  0.00    -0.381 OA
HETATM   18  C   LIG     1      25.647  22.810  19.443  1.00  0.00     0.137 C 
HETATM   19  C   LIG     1      24.974  22.182  20.667  1.00  0.00     0.048 C 
HETATM   20  C   LIG     1      26.537  23.524  23.587  1.00  0.00     0.047 A 
HETATM   21  C   LIG     1      25.541  22.734  24.183  1.00  0.00    -0.015 A 
HETATM   22  C   LIG     1      25.348  22.736  25.557  1.00  0.00     0.050 A 
HETATM   23  C   LIG     1      26.125  23.593  26.358  1.00  0.00     0.102 A 
HETATM   24  C   LIG     1      27.117  24.432  25.754  1.00  0.00     0.103 A 
HETATM   25  C   LIG     1      27.315  24.386  24.351  1.00  0.00     0.070 A 
ENDROOT
BRANCH  23  26
HETATM   26  O   LIG     1      25.864  23.558  27.741  1.00  0.00    -0.353 OA
HETATM   27  C   LIG     1      26.560  22.786  28.713  1.00  0.00     0.210 C 
ENDBRANCH  23  26
BRANCH  24  28
HETATM   28  O   LIG     1      27.885  25.292  26.555  1.00  0.00    -0.353 OA
HETATM   29  C   LIG     1      29.195  25.008  27.034  1.00  0.00     0.210 C 
ENDBRANCH  24  28
TORSDOF 2
ENDMDL
MODEL 4
REMARK VINA RESULT:      -5.3      3.301      6.136
REMARK  2 active torsions:
REMARK  status: ('A' for Active; 'I' for Inactive)
REMARK    1  A    between atoms: C_23  and  O_24 
REMARK    2  A    between atoms: C_26  and  O_27 
ROOT
HETATM    1  O   LIG     1      28.176  23.884  24.067  1.00  0.00    -0.273 OA
HETATM    2  C   LIG     1      27.333  23.560  23.190  1.00  0.00     0.227 C 
HETATM    3  C   LIG     1      27.309  24.268  21.823  1.00  0.00     0.135 C 
HETATM    4  N   LIG     1      26.335  22.556  23.462  1.00  0.00    -0.311 N 
HETATM    5  C   LIG     1      25.232  22.544  22.558  1.00  0.00     0.115 C 
HETATM    6  C   LIG     1      24.292  21.375  22.907  1.00  0.00     0.043 C 
HETATM    7  C   LIG     1      24.846  19.965  22.626  1.00  0.00     0.049 C 
HETATM    8  C   LIG     1      24.236  19.480  21.315  1.00  0.00     0.274 C 
HETATM    9  C   LIG     1      23.024  21.464  21.963  1.00  0.00     0.239 C 
HETATM   10  N   LIG     1      23.157  20.396  20.915  1.00  0.00     0.098 N 
HETATM   11  C   LIG     1      23.274  20.820  19.464  1.00  0.00     0.307 C 
HETATM   12  C   LIG     1      22.922  22.832  21.250  1.00  0.00     0.046 C 
HETATM   13  C   LIG     1      24.226  22.993  20.389  1.00  0.00     0.026 C 
HETATM   14  C   LIG     1      24.165  22.056  19.253  1.00  0.00    -0.049 C 
HETATM   15  C   LIG     1      25.165  22.102  18.328  1.00  0.00     0.004 C 
HETATM   16  C   LIG     1      26.407  23.041  18.361  1.00  0.00     0.196 C 
HETATM   17  O   LIG     1      26.542  23.974  19.454  1.00  0.00    -0.381 OA
HETATM   18  C   LIG     1      26.809  23.315  20.691  1.00  0.00     0.137 C 
HETATM   19  C   LIG     1      25.550  22.553  21.115  1.00  0.00     0.048 C 
HETATM   20  C   LIG     1      25.644  22.175  24.668  1.00  0.00     0.047 A 
HETATM   21  C   LIG     1      24.393  21.600  24.393  1.00  0.00    -0.015 A 
HETATM   22  C   LIG     1      23.556  21.178  25.416  1.00  0.00     0.050 A 
HETATM   23  C   LIG     1      23.944  21.387  26.752  1.00  0.00     0.102 A 
HETATM   24  C   LIG     1      25.202  22.008  27.042  1.00  0.00     0.103 A 
HETATM   25  C   LIG     1      26.053  22.401  25.977  1.00  0.00     0.070 A 
ENDROOT
BRANCH  23  26
HETATM   26  O   LIG     1      23.039  20.951  27.738  1.00  0.00    -0.353 OA
HETATM   27  C   LIG     1      21.621  20.917  27.629  1.00  0.00     0.210 C 
ENDBRANCH  23  26
BRANCH  24  28
HETATM   28  O   LIG     1      25.583  22.223  28.376  1.00  0.00    -0.353 OA
HETATM   29  C   LIG     1      26.325  21.303  29.170  1.00  0.00     0.210 C 
ENDBRANCH  24  28
TORSDOF 2
ENDMDL
MODEL 5
REMARK VINA RESULT:      -5.2      2.952      5.889
REMARK  2 active torsions:
REMARK  status: ('A' for Active; 'I' for Inactive)
REMARK    1  A    between atoms: C_23  and  O_24 
REMARK    2  A    between atoms: C_26  and  O_27 
ROOT
HETATM    1  O   LIG     1      28.709  25.688  23.605  1.00  0.00    -0.273 OA
HETATM    2  C   LIG     1      28.088  25.023  22.735  1.00  0.00     0.227 C 
HETATM    3  C   LIG     1      28.080  25.471  21.262  1.00  0.00     0.135 C 
HETATM    4  N   LIG     1      27.326  23.856  23.102  1.00  0.00    -0.311 N 
HETATM    5  C   LIG     1      26.386  23.418  22.124  1.00  0.00     0.115 C 
HETATM    6  C   LIG     1      25.708  22.121  22.604  1.00  0.00     0.043 C 
HETATM    7  C   LIG     1      26.610  20.872  22.645  1.00  0.00     0.049 C 
HETATM    8  C   LIG     1      26.308  20.043  21.401  1.00  0.00     0.274 C 
HETATM    9  C   LIG     1      24.591  21.731  21.552  1.00  0.00     0.239 C 
HETATM   10  N   LIG     1      25.107  20.577  20.741  1.00  0.00     0.098 N 
HETATM   11  C   LIG     1      25.312  20.776  19.253  1.00  0.00     0.307 C 
HETATM   12  C   LIG     1      24.267  22.895  20.587  1.00  0.00     0.046 C 
HETATM   13  C   LIG     1      25.599  23.240  19.829  1.00  0.00     0.026 C 
HETATM   14  C   LIG     1      25.909  22.147  18.890  1.00  0.00    -0.049 C 
HETATM   15  C   LIG     1      26.983  22.296  18.064  1.00  0.00     0.004 C 
HETATM   16  C   LIG     1      27.955  23.512  18.029  1.00  0.00     0.196 C 
HETATM   17  O   LIG     1      27.723  24.612  18.933  1.00  0.00    -0.381 OA
HETATM   18  C   LIG     1      27.971  24.252  20.290  1.00  0.00     0.137 C 
HETATM   19  C   LIG     1      26.881  23.274  20.739  1.00  0.00     0.048 C 
HETATM   20  C   LIG     1      26.591  23.512  24.293  1.00  0.00     0.047 A 
HETATM   21  C   LIG     1      25.557  22.602  24.023  1.00  0.00    -0.015 A 
HETATM   22  C   LIG     1      24.714  22.153  25.030  1.00  0.00     0.050 A 
HETATM   23  C   LIG     1      24.863  22.667  26.331  1.00  0.00     0.102 A 
HETATM   24  C   LIG     1      25.891  23.625  26.608  1.00  0.00     0.103 A 
HETATM   25  C   LIG     1      26.759  24.044  25.567  1.00  0.00     0.070 A 
ENDROOT
BRANCH  23  26
HETATM   26  O   LIG     1      23.964  22.180  27.298  1.00  0.00    -0.353 OA
HETATM   27  C   LIG     1      22.868  21.302  27.069  1.00  0.00     0.210 C 
ENDBRANCH  23  26
BRANCH  24  28
HETATM   28  O   LIG     1      26.032  24.143  27.905  1.00  0.00    -0.353 OA
HETATM   29  C   LIG     1      26.885  25.225  28.263  1.00  0.00     0.210 C 
ENDBRANCH  24  28
TORSDOF 2
ENDMDL
MODEL 6
REMARK VINA RESULT:      -5.2      3.482      6.264
REMARK  2 active torsions:
REMARK  status: ('A' for Active; 'I' for Inactive)
REMARK    1  A    between atoms: C_23  and  O_24 
REMARK    2  A    between atoms: C_26  and  O_27 
ROOT
HETATM    1  O   LIG     1      22.435  19.865  23.505  1.00  0.00    -0.273 OA
HETATM    2  C   LIG     1      23.227  20.499  24.250  1.00  0.00     0.227 C 
HETATM    3  C   LIG     1      22.937  20.651  25.755  1.00  0.00     0.135 C 
HETATM    4  N   LIG     1      24.395  21.145  23.707  1.00  0.00    -0.311 N 
HETATM    5  C   LIG     1      24.993  22.122  24.557  1.00  0.00     0.115 C 
HETATM    6  C   LIG     1      26.272  22.667  23.896  1.00  0.00     0.043 C 
HETATM    7  C   LIG     1      27.450  21.677  23.804  1.00  0.00     0.049 C 
HETATM    8  C   LIG     1      28.423  22.010  24.931  1.00  0.00     0.274 C 
HETATM    9  C   LIG     1      26.842  23.828  24.808  1.00  0.00     0.239 C 
HETATM   10  N   LIG     1      28.039  23.292  25.540  1.00  0.00     0.098 N 
HETATM   11  C   LIG     1      27.985  23.214  27.052  1.00  0.00     0.307 C 
HETATM   12  C   LIG     1      25.810  24.307  25.855  1.00  0.00     0.046 C 
HETATM   13  C   LIG     1      25.461  23.064  26.750  1.00  0.00     0.026 C 
HETATM   14  C   LIG     1      26.624  22.747  27.597  1.00  0.00    -0.049 C 
HETATM   15  C   LIG     1      26.495  21.751  28.519  1.00  0.00     0.004 C 
HETATM   16  C   LIG     1      25.229  20.875  28.755  1.00  0.00     0.196 C 
HETATM   17  O   LIG     1      24.057  21.118  27.950  1.00  0.00    -0.381 OA
HETATM   18  C   LIG     1      24.256  20.744  26.588  1.00  0.00     0.137 C 
HETATM   19  C   LIG     1      25.249  21.724  25.956  1.00  0.00     0.048 C 
HETATM   20  C   LIG     1      24.658  21.762  22.432  1.00  0.00     0.047 A 
HETATM   21  C   LIG     1      25.656  22.746  22.524  1.00  0.00    -0.015 A 
HETATM   22  C   LIG     1      26.050  23.475  21.412  1.00  0.00     0.050 A 
HETATM   23  C   LIG     1      25.394  23.267  20.185  1.00  0.00     0.102 A 
HETATM   24  C   LIG     1      24.347  22.293  20.091  1.00  0.00     0.103 A 
HETATM   25  C   LIG     1      23.986  21.538  21.235  1.00  0.00     0.070 A 
ENDROOT
BRANCH  23  26
HETATM   26  O   LIG     1      25.832  24.054  19.103  1.00  0.00    -0.353 OA
HETATM   27  C   LIG     1      26.185  25.432  19.148  1.00  0.00     0.210 C 
ENDBRANCH  23  26
BRANCH  24  28
HETATM   28  O   LIG     1      23.689  22.093  18.867  1.00  0.00    -0.353 OA
HETATM   29  C   LIG     1      23.161  20.849  18.418  1.00  0.00     0.210 C 
ENDBRANCH  24  28
TORSDOF 2
ENDMDL
MODEL 7
REMARK VINA RESULT:      -5.0      2.770      6.908
REMARK  2 active torsions:
REMARK  status: ('A' for Active; 'I' for Inactive)
REMARK    1  A    between atoms: C_23  and  O_24 
REMARK    2  A    between atoms: C_26  and  O_27 
ROOT
HETATM    1  O   LIG     1      23.638  21.602  20.079  1.00  0.00    -0.273 OA
HETATM    2  C   LIG     1      23.957  21.673  21.296  1.00  0.00     0.227 C 
HETATM    3  C   LIG     1      22.948  21.290  22.395  1.00  0.00     0.135 C 
HETATM    4  N   LIG     1      25.252  22.163  21.693  1.00  0.00    -0.311 N 
HETATM    5  C   LIG     1      25.358  22.545  23.062  1.00  0.00     0.115 C 
HETATM    6  C   LIG     1      26.807  22.964  23.371  1.00  0.00     0.043 C 
HETATM    7  C   LIG     1      27.848  21.828  23.359  1.00  0.00     0.049 C 
HETATM    8  C   LIG     1      28.124  21.437  24.807  1.00  0.00     0.274 C 
HETATM    9  C   LIG     1      26.861  23.493  24.862  1.00  0.00     0.239 C 
HETATM   10  N   LIG     1      27.511  22.430  25.702  1.00  0.00     0.098 N 
HETATM   11  C   LIG     1      26.696  21.783  26.804  1.00  0.00     0.307 C 
HETATM   12  C   LIG     1      25.451  23.766  25.435  1.00  0.00     0.046 C 
HETATM   13  C   LIG     1      24.671  22.404  25.392  1.00  0.00     0.026 C 
HETATM   14  C   LIG     1      25.238  21.499  26.407  1.00  0.00    -0.049 C 
HETATM   15  C   LIG     1      24.638  20.289  26.596  1.00  0.00     0.004 C 
HETATM   16  C   LIG     1      23.410  19.739  25.813  1.00  0.00     0.196 C 
HETATM   17  O   LIG     1      22.812  20.564  24.791  1.00  0.00    -0.381 OA
HETATM   18  C   LIG     1      23.665  20.716  23.658  1.00  0.00     0.137 C 
HETATM   19  C   LIG     1      24.862  21.581  24.065  1.00  0.00     0.048 C 
HETATM   20  C   LIG     1      26.138  23.142  21.115  1.00  0.00     0.047 A 
HETATM   21  C   LIG     1      26.972  23.726  22.082  1.00  0.00    -0.015 A 
HETATM   22  C   LIG     1      27.891  24.708  21.740  1.00  0.00     0.050 A 
HETATM   23  C   LIG     1      27.942  25.169  20.411  1.00  0.00     0.102 A 
HETATM   24  C   LIG     1      27.067  24.606  19.426  1.00  0.00     0.103 A 
HETATM   25  C   LIG     1      26.160  23.581  19.796  1.00  0.00     0.070 A 
ENDROOT
BRANCH  23  26
HETATM   26  O   LIG     1      28.884  26.178  20.139  1.00  0.00    -0.353 OA
HETATM   27  C   LIG     1      30.299  26.029  20.111  1.00  0.00     0.210 C 
ENDBRANCH  23  26
BRANCH  24  28
HETATM   28  O   LIG     1      27.115  25.074  18.103  1.00  0.00    -0.353 OA
HETATM   29  C   LIG     1      28.060  24.655  17.124  1.00  0.00     0.210 C 
ENDBRANCH  24  28
TORSDOF 2
ENDMDL
MODEL 8
REMARK VINA RESULT:      -5.0      2.807      5.076
REMARK  2 active torsions:
REMARK  status: ('A' for Active; 'I' for Inactive)
REMARK    1  A    between atoms: C_23  and  O_24 
REMARK    2  A    between atoms: C_26  and  O_27 
ROOT
HETATM    1  O   LIG     1      24.008  22.024  23.381  1.00  0.00    -0.273 OA
HETATM    2  C   LIG     1      25.022  22.635  23.812  1.00  0.00     0.227 C 
HETATM    3  C   LIG     1      25.057  23.179  25.252  1.00  0.00     0.135 C 
HETATM    4  N   LIG     1      26.151  22.889  22.954  1.00  0.00    -0.311 N 
HETATM    5  C   LIG     1      27.052  23.889  23.424  1.00  0.00     0.115 C 
HETATM    6  C   LIG     1      28.251  23.997  22.464  1.00  0.00     0.043 C 
HETATM    7  C   LIG     1      29.213  22.793  22.458  1.00  0.00     0.049 C 
HETATM    8  C   LIG     1      30.426  23.166  23.303  1.00  0.00     0.274 C 
HETATM    9  C   LIG     1      29.166  25.193  22.950  1.00  0.00     0.239 C 
HETATM   10  N   LIG     1      30.380  24.603  23.610  1.00  0.00     0.098 N 
HETATM   11  C   LIG     1      30.607  24.882  25.083  1.00  0.00     0.307 C 
HETATM   12  C   LIG     1      28.447  26.097  23.978  1.00  0.00     0.046 C 
HETATM   13  C   LIG     1      28.082  25.187  25.206  1.00  0.00     0.026 C 
HETATM   14  C   LIG     1      29.320  24.838  25.924  1.00  0.00    -0.049 C 
HETATM   15  C   LIG     1      29.212  24.125  27.081  1.00  0.00     0.004 C 
HETATM   16  C   LIG     1      27.892  23.603  27.720  1.00  0.00     0.196 C 
HETATM   17  O   LIG     1      26.641  23.891  27.061  1.00  0.00    -0.381 OA
HETATM   18  C   LIG     1      26.509  23.186  25.828  1.00  0.00     0.137 C 
HETATM   19  C   LIG     1      27.506  23.774  24.825  1.00  0.00     0.048 C 
HETATM   20  C   LIG     1      26.259  23.134  21.538  1.00  0.00     0.047 A 
HETATM   21  C   LIG     1      27.401  23.888  21.224  1.00  0.00    -0.015 A 
HETATM   22  C   LIG     1      27.686  24.251  19.916  1.00  0.00     0.050 A 
HETATM   23  C   LIG     1      26.780  23.909  18.895  1.00  0.00     0.102 A 
HETATM   24  C   LIG     1      25.591  23.174  19.212  1.00  0.00     0.103 A 
HETATM   25  C   LIG     1      25.341  22.788  20.553  1.00  0.00     0.070 A 
ENDROOT
BRANCH  23  26
HETATM   26  O   LIG     1      27.122  24.325  17.595  1.00  0.00    -0.353 OA
HETATM   27  C   LIG     1      28.373  24.860  17.180  1.00  0.00     0.210 C 
ENDBRANCH  23  26
BRANCH  24  28
HETATM   28  O   LIG     1      24.685  22.842  18.192  1.00  0.00    -0.353 OA
HETATM   29  C   LIG     1      23.612  21.915  18.326  1.00  0.00     0.210 C 
ENDBRANCH  24  28
TORSDOF 2
ENDMDL
MODEL 9
REMARK VINA RESULT:      -5.0      1.982      6.436
REMARK  2 active torsions:
REMARK  status: ('A' for Active; 'I' for Inactive)
REMARK    1  A    between atoms: C_23  and  O_24 
REMARK    2  A    between atoms: C_26  and  O_27 
ROOT
HETATM    1  O   LIG     1      25.625  23.194  23.405  1.00  0.00    -0.273 OA
HETATM    2  C   LIG     1      25.274  22.240  22.662  1.00  0.00     0.227 C 
HETATM    3  C   LIG     1      24.974  20.851  23.256  1.00  0.00     0.135 C 
HETATM    4  N   LIG     1      25.196  22.407  21.232  1.00  0.00    -0.311 N 
HETATM    5  C   LIG     1      25.158  21.193  20.485  1.00  0.00     0.115 C 
HETATM    6  C   LIG     1      24.987  21.514  18.989  1.00  0.00     0.043 C 
HETATM    7  C   LIG     1      23.616  22.088  18.581  1.00  0.00     0.049 C 
HETATM    8  C   LIG     1      22.799  20.952  17.975  1.00  0.00     0.274 C 
HETATM    9  C   LIG     1      25.068  20.154  18.181  1.00  0.00     0.239 C 
HETATM   10  N   LIG     1      23.674  19.789  17.757  1.00  0.00     0.098 N 
HETATM   11  C   LIG     1      23.068  18.508  18.294  1.00  0.00     0.307 C 
HETATM   12  C   LIG     1      25.630  18.999  19.040  1.00  0.00     0.046 C 
HETATM   13  C   LIG     1      24.656  18.824  20.260  1.00  0.00     0.026 C 
HETATM   14  C   LIG     1      23.387  18.250  19.777  1.00  0.00    -0.049 C 
HETATM   15  C   LIG     1      22.434  17.933  20.698  1.00  0.00     0.004 C 
HETATM   16  C   LIG     1      22.536  18.145  22.237  1.00  0.00     0.196 C 
HETATM   17  O   LIG     1      23.743  18.718  22.781  1.00  0.00    -0.381 OA
HETATM   18  C   LIG     1      23.893  20.091  22.423  1.00  0.00     0.137 C 
HETATM   19  C   LIG     1      24.185  20.171  20.921  1.00  0.00     0.048 C 
HETATM   20  C   LIG     1      25.946  23.220  20.308  1.00  0.00     0.047 A 
HETATM   21  C   LIG     1      25.956  22.666  19.017  1.00  0.00    -0.015 A 
HETATM   22  C   LIG     1      26.637  23.282  17.977  1.00  0.00     0.050 A 
HETATM   23  C   LIG     1      27.380  24.448  18.237  1.00  0.00     0.102 A 
HETATM   24  C   LIG     1      27.407  24.998  19.560  1.00  0.00     0.103 A 
HETATM   25  C   LIG     1      26.676  24.367  20.598  1.00  0.00     0.070 A 
ENDROOT
BRANCH  23  26
HETATM   26  O   LIG     1      28.061  25.010  17.141  1.00  0.00    -0.353 OA
HETATM   27  C   LIG     1      28.819  24.305  16.165  1.00  0.00     0.210 C 
ENDBRANCH  23  26
BRANCH  24  28
HETATM   28  O   LIG     1      28.156  26.157  19.819  1.00  0.00    -0.353 OA
HETATM   29  C   LIG     1      29.554  26.182  20.089  1.00  0.00     0.210 C 
ENDBRANCH  24  28
TORSDOF 2
ENDMDL
MODEL 10
REMARK VINA RESULT:      -4.9      3.091      7.058
REMARK  2 active torsions:
REMARK  status: ('A' for Active; 'I' for Inactive)
REMARK    1  A    between atoms: C_23  and  O_24 
REMARK    2  A    between atoms: C_26  and  O_27 
ROOT
HETATM    1  O   LIG     1      22.807  20.802  25.778  1.00  0.00    -0.273 OA
HETATM    2  C   LIG     1      23.251  20.531  24.632  1.00  0.00     0.227 C 
HETATM    3  C   LIG     1      22.996  19.150  23.998  1.00  0.00     0.135 C 
HETATM    4  N   LIG     1      24.054  21.482  23.906  1.00  0.00    -0.311 N 
HETATM    5  C   LIG     1      24.796  20.938  22.817  1.00  0.00     0.115 C 
HETATM    6  C   LIG     1      25.535  22.070  22.080  1.00  0.00     0.043 C 
HETATM    7  C   LIG     1      24.643  23.051  21.295  1.00  0.00     0.049 C 
HETATM    8  C   LIG     1      24.704  22.655  19.823  1.00  0.00     0.274 C 
HETATM    9  C   LIG     1      26.438  21.417  20.955  1.00  0.00     0.239 C 
HETATM   10  N   LIG     1      25.770  21.661  19.632  1.00  0.00     0.098 N 
HETATM   11  C   LIG     1      25.300  20.464  18.830  1.00  0.00     0.307 C 
HETATM   12  C   LIG     1      26.594  19.891  21.144  1.00  0.00     0.046 C 
HETATM   13  C   LIG     1      25.151  19.275  21.077  1.00  0.00     0.026 C 
HETATM   14  C   LIG     1      24.662  19.358  19.689  1.00  0.00    -0.049 C 
HETATM   15  C   LIG     1      23.458  18.791  19.397  1.00  0.00     0.004 C 
HETATM   16  C   LIG     1      22.509  18.077  20.404  1.00  0.00     0.196 C 
HETATM   17  O   LIG     1      22.914  17.973  21.785  1.00  0.00    -0.381 OA
HETATM   18  C   LIG     1      22.913  19.240  22.440  1.00  0.00     0.137 C 
HETATM   19  C   LIG     1      24.056  20.083  21.866  1.00  0.00     0.048 C 
HETATM   20  C   LIG     1      24.990  22.490  24.337  1.00  0.00     0.047 A 
HETATM   21  C   LIG     1      25.948  22.769  23.349  1.00  0.00    -0.015 A 
HETATM   22  C   LIG     1      26.954  23.699  23.566  1.00  0.00     0.050 A 
HETATM   23  C   LIG     1      27.050  24.327  24.821  1.00  0.00     0.102 A 
HETATM   24  C   LIG     1      26.100  24.020  25.848  1.00  0.00     0.103 A 
HETATM   25  C   LIG     1      25.063  23.090  25.589  1.00  0.00     0.070 A 
ENDROOT
BRANCH  23  26
HETATM   26  O   LIG     1      28.105  25.246  24.977  1.00  0.00    -0.353 OA
HETATM   27  C   LIG     1      29.344  25.007  25.634  1.00  0.00     0.210 C 
ENDBRANCH  23  26
BRANCH  24  28
HETATM   28  O   LIG     1      26.204  24.643  27.103  1.00  0.00    -0.353 OA
HETATM   29  C   LIG     1      26.517  23.976  28.321  1.00  0.00     0.210 C 
ENDBRANCH  24  28
TORSDOF 2
ENDMDL
MODEL 11
REMARK VINA RESULT:      -4.8      3.674      7.482
REMARK  2 active torsions:
REMARK  status: ('A' for Active; 'I' for Inactive)
REMARK    1  A    between atoms: C_23  and  O_24 
REMARK    2  A    between atoms: C_26  and  O_27 
ROOT
HETATM    1  O   LIG     1      24.338  21.140  22.703  1.00  0.00    -0.273 OA
HETATM    2  C   LIG     1      24.771  21.556  23.810  1.00  0.00     0.227 C 
HETATM    3  C   LIG     1      23.944  21.370  25.097  1.00  0.00     0.135 C 
HETATM    4  N   LIG     1      26.023  22.265  23.894  1.00  0.00    -0.311 N 
HETATM    5  C   LIG     1      26.221  22.998  25.101  1.00  0.00     0.115 C 
HETATM    6  C   LIG     1      27.625  23.630  25.097  1.00  0.00     0.043 C 
HETATM    7  C   LIG     1      28.802  22.643  25.221  1.00  0.00     0.049 C 
HETATM    8  C   LIG     1      29.280  22.672  26.669  1.00  0.00     0.274 C 
HETATM    9  C   LIG     1      27.764  24.529  26.392  1.00  0.00     0.239 C 
HETATM   10  N   LIG     1      28.637  23.794  27.369  1.00  0.00     0.098 N 
HETATM   11  C   LIG     1      28.039  23.375  28.697  1.00  0.00     0.307 C 
HETATM   12  C   LIG     1      26.399  24.795  27.067  1.00  0.00     0.046 C 
HETATM   13  C   LIG     1      25.810  23.394  27.466  1.00  0.00     0.026 C 
HETATM   14  C   LIG     1      26.598  22.847  28.584  1.00  0.00    -0.049 C 
HETATM   15  C   LIG     1      26.190  21.673  29.143  1.00  0.00     0.004 C 
HETATM   16  C   LIG     1      24.971  20.815  28.695  1.00  0.00     0.196 C 
HETATM   17  O   LIG     1      24.163  21.280  27.593  1.00  0.00    -0.381 OA
HETATM   18  C   LIG     1      24.863  21.220  26.352  1.00  0.00     0.137 C 
HETATM   19  C   LIG     1      25.968  22.280  26.367  1.00  0.00     0.048 C 
HETATM   20  C   LIG     1      26.702  23.146  22.979  1.00  0.00     0.047 A 
HETATM   21  C   LIG     1      27.548  24.044  23.650  1.00  0.00    -0.015 A 
HETATM   22  C   LIG     1      28.285  24.993  22.957  1.00  0.00     0.050 A 
HETATM   23  C   LIG     1      28.132  25.096  21.562  1.00  0.00     0.102 A 
HETATM   24  C   LIG     1      27.242  24.210  20.873  1.00  0.00     0.103 A 
HETATM   25  C   LIG     1      26.525  23.228  21.602  1.00  0.00     0.070 A 
ENDROOT
BRANCH  23  26
HETATM   26  O   LIG     1      28.896  26.092  20.925  1.00  0.00    -0.353 OA
HETATM   27  C   LIG     1      30.169  25.921  20.314  1.00  0.00     0.210 C 
ENDBRANCH  23  26
BRANCH  24  28
HETATM   28  O   LIG     1      27.085  24.321  19.482  1.00  0.00    -0.353 OA
HETATM   29  C   LIG     1      26.185  25.211  18.831  1.00  0.00     0.210 C 
ENDBRANCH  24  28
TORSDOF 2
ENDMDL
MODEL 12
REMARK VINA RESULT:      -4.7      2.189      6.160
REMARK  2 active torsions:
REMARK  status: ('A' for Active; 'I' for Inactive)
REMARK    1  A    between atoms: C_23  and  O_24 
REMARK    2  A    between atoms: C_26  and  O_27 
ROOT
HETATM    1  O   LIG     1      22.490  20.774  23.165  1.00  0.00    -0.273 OA
HETATM    2  C   LIG     1      23.280  20.711  22.186  1.00  0.00     0.227 C 
HETATM    3  C   LIG     1      23.185  19.555  21.174  1.00  0.00     0.135 C 
HETATM    4  N   LIG     1      24.326  21.688  22.018  1.00  0.00    -0.311 N 
HETATM    5  C   LIG     1      25.363  21.310  21.115  1.00  0.00     0.115 C 
HETATM    6  C   LIG     1      26.363  22.472  20.962  1.00  0.00     0.043 C 
HETATM    7  C   LIG     1      25.835  23.712  20.215  1.00  0.00     0.049 C 
HETATM    8  C   LIG     1      26.368  23.654  18.787  1.00  0.00     0.274 C 
HETATM    9  C   LIG     1      27.557  21.976  20.049  1.00  0.00     0.239 C 
HETATM   10  N   LIG     1      27.386  22.597  18.692  1.00  0.00     0.098 N 
HETATM   11  C   LIG     1      27.154  21.683  17.505  1.00  0.00     0.307 C 
HETATM   12  C   LIG     1      27.565  20.440  19.881  1.00  0.00     0.046 C 
HETATM   13  C   LIG     1      26.199  20.050  19.209  1.00  0.00     0.026 C 
HETATM   14  C   LIG     1      26.210  20.506  17.809  1.00  0.00    -0.049 C 
HETATM   15  C   LIG     1      25.148  20.183  17.019  1.00  0.00     0.004 C 
HETATM   16  C   LIG     1      23.882  19.391  17.460  1.00  0.00     0.196 C 
HETATM   17  O   LIG     1      23.793  18.927  18.823  1.00  0.00    -0.381 OA
HETATM   18  C   LIG     1      23.635  20.003  19.746  1.00  0.00     0.137 C 
HETATM   19  C   LIG     1      24.945  20.796  19.795  1.00  0.00     0.048 C 
HETATM   20  C   LIG     1      25.111  22.442  22.963  1.00  0.00     0.047 A 
HETATM   21  C   LIG     1      26.358  22.807  22.430  1.00  0.00    -0.015 A 
HETATM   22  C   LIG     1      27.278  23.524  23.182  1.00  0.00     0.050 A 
HETATM   23  C   LIG     1      26.978  23.836  24.520  1.00  0.00     0.102 A 
HETATM   24  C   LIG     1      25.724  23.433  25.084  1.00  0.00     0.103 A 
HETATM   25  C   LIG     1      24.789  22.729  24.284  1.00  0.00     0.070 A 
ENDROOT
BRANCH  23  26
HETATM   26  O   LIG     1      27.963  24.549  25.229  1.00  0.00    -0.353 OA
HETATM   27  C   LIG     1      28.649  25.713  24.784  1.00  0.00     0.210 C 
ENDBRANCH  23  26
BRANCH  24  28
HETATM   28  O   LIG     1      25.430  23.739  26.423  1.00  0.00    -0.353 OA
HETATM   29  C   LIG     1      25.462  22.806  27.498  1.00  0.00     0.210 C 
ENDBRANCH  24  28
TORSDOF 2
ENDMDL
MODEL 13
REMARK VINA RESULT:      -4.6      9.348     12.590
REMARK  2 active torsions:
REMARK  status: ('A' for Active; 'I' for Inactive)
REMARK    1  A    between atoms: C_23  and  O_24 
REMARK    2  A    between atoms: C_26  and  O_27 
ROOT
HETATM    1  O   LIG     1      29.704  28.238  27.328  1.00  0.00    -0.273 OA
HETATM    2  C   LIG     1      29.627  28.435  28.569  1.00  0.00     0.227 C 
HETATM    3  C   LIG     1      30.380  29.608  29.226  1.00  0.00     0.135 C 
HETATM    4  N   LIG     1      28.879  27.540  29.415  1.00  0.00    -0.311 N 
HETATM    5  C   LIG     1      29.169  27.643  30.807  1.00  0.00     0.115 C 
HETATM    6  C   LIG     1      28.244  26.700  31.598  1.00  0.00     0.043 C 
HETATM    7  C   LIG     1      26.756  27.099  31.634  1.00  0.00     0.049 C 
HETATM    8  C   LIG     1      26.488  27.766  32.979  1.00  0.00     0.274 C 
HETATM    9  C   LIG     1      28.673  26.752  33.121  1.00  0.00     0.239 C 
HETATM   10  N   LIG     1      27.650  27.570  33.858  1.00  0.00     0.098 N 
HETATM   11  C   LIG     1      28.097  28.861  34.514  1.00  0.00     0.307 C 
HETATM   12  C   LIG     1      30.055  27.416  33.315  1.00  0.00     0.046 C 
HETATM   13  C   LIG     1      29.938  28.879  32.756  1.00  0.00     0.026 C 
HETATM   14  C   LIG     1      29.093  29.671  33.667  1.00  0.00    -0.049 C 
HETATM   15  C   LIG     1      28.941  31.001  33.409  1.00  0.00     0.004 C 
HETATM   16  C   LIG     1      29.554  31.781  32.209  1.00  0.00     0.196 C 
HETATM   17  O   LIG     1      30.380  31.066  31.265  1.00  0.00    -0.381 OA
HETATM   18  C   LIG     1      29.624  30.144  30.483  1.00  0.00     0.137 C 
HETATM   19  C   LIG     1      29.165  28.999  31.392  1.00  0.00     0.048 C 
HETATM   20  C   LIG     1      28.621  26.124  29.341  1.00  0.00     0.047 A 
HETATM   21  C   LIG     1      28.374  25.572  30.608  1.00  0.00    -0.015 A 
HETATM   22  C   LIG     1      28.119  24.217  30.764  1.00  0.00     0.050 A 
HETATM   23  C   LIG     1      28.171  23.374  29.640  1.00  0.00     0.102 A 
HETATM   24  C   LIG     1      28.462  23.922  28.348  1.00  0.00     0.103 A 
HETATM   25  C   LIG     1      28.687  25.315  28.212  1.00  0.00     0.070 A 
ENDROOT
BRANCH  23  26
HETATM   26  O   LIG     1      27.920  22.009  29.873  1.00  0.00    -0.353 OA
HETATM   27  C   LIG     1      26.673  21.340  29.722  1.00  0.00     0.210 C 
ENDBRANCH  23  26
BRANCH  24  28
HETATM   28  O   LIG     1      28.521  23.077  27.229  1.00  0.00    -0.353 OA
HETATM   29  C   LIG     1      27.453  22.861  26.312  1.00  0.00     0.210 C 
ENDBRANCH  24  28
TORSDOF 2
ENDMDL
MODEL 14
REMARK VINA RESULT:      -4.5      3.185      6.361
REMARK  2 active torsions:
REMARK  status: ('A' for Active; 'I' for Inactive)
REMARK    1  A    between atoms: C_23  and  O_24 
REMARK    2  A    between atoms: C_26  and  O_27 
ROOT
HETATM    1  O   LIG     1      28.880  26.453  23.810  1.00  0.00    -0.273 OA
HETATM    2  C   LIG     1      28.186  25.402  23.796  1.00  0.00     0.227 C 
HETATM    3  C   LIG     1      27.900  24.632  25.099  1.00  0.00     0.135 C 
HETATM    4  N   LIG     1      27.687  24.864  22.556  1.00  0.00    -0.311 N 
HETATM    5  C   LIG     1      27.251  23.508  22.620  1.00  0.00     0.115 C 
HETATM    6  C   LIG     1      26.665  23.089  21.259  1.00  0.00     0.043 C 
HETATM    7  C   LIG     1      25.328  23.752  20.875  1.00  0.00     0.049 C 
HETATM    8  C   LIG     1      24.215  22.750  21.161  1.00  0.00     0.274 C 
HETATM    9  C   LIG     1      26.302  21.550  21.331  1.00  0.00     0.239 C 
HETATM   10  N   LIG     1      24.808  21.436  21.453  1.00  0.00     0.098 N 
HETATM   11  C   LIG     1      24.233  20.813  22.709  1.00  0.00     0.307 C 
HETATM   12  C   LIG     1      26.941  20.857  22.556  1.00  0.00     0.046 C 
HETATM   13  C   LIG     1      26.384  21.585  23.832  1.00  0.00     0.026 C 
HETATM   14  C   LIG     1      24.962  21.235  23.996  1.00  0.00    -0.049 C 
HETATM   15  C   LIG     1      24.312  21.693  25.103  1.00  0.00     0.004 C 
HETATM   16  C   LIG     1      24.919  22.592  26.220  1.00  0.00     0.196 C 
HETATM   17  O   LIG     1      26.302  22.989  26.117  1.00  0.00    -0.381 OA
HETATM   18  C   LIG     1      26.519  23.904  25.044  1.00  0.00     0.137 C 
HETATM   19  C   LIG     1      26.333  23.153  23.722  1.00  0.00     0.048 C 
HETATM   20  C   LIG     1      28.213  24.870  21.214  1.00  0.00     0.047 A 
HETATM   21  C   LIG     1      27.743  23.779  20.465  1.00  0.00    -0.015 A 
HETATM   22  C   LIG     1      28.141  23.586  19.150  1.00  0.00     0.050 A 
HETATM   23  C   LIG     1      29.081  24.464  18.580  1.00  0.00     0.102 A 
HETATM   24  C   LIG     1      29.596  25.558  19.350  1.00  0.00     0.103 A 
HETATM   25  C   LIG     1      29.147  25.751  20.681  1.00  0.00     0.070 A 
ENDROOT
BRANCH  23  26
HETATM   26  O   LIG     1      29.453  24.199  17.249  1.00  0.00    -0.353 OA
HETATM   27  C   LIG     1      28.810  24.686  16.077  1.00  0.00     0.210 C 
ENDBRANCH  23  26
BRANCH  24  28
HETATM   28  O   LIG     1      30.539  26.428  18.781  1.00  0.00    -0.353 OA
HETATM   29  C   LIG     1      30.244  27.713  18.245  1.00  0.00     0.210 C 
ENDBRANCH  24  28
TORSDOF 2
ENDMDL
MODEL 15
REMARK VINA RESULT:      -4.5      2.844      5.375
REMARK  2 active torsions:
REMARK  status: ('A' for Active; 'I' for Inactive)
REMARK    1  A    between atoms: C_23  and  O_24 
REMARK    2  A    between atoms: C_26  and  O_27 
ROOT
HETATM    1  O   LIG     1      22.790  21.766  20.276  1.00  0.00    -0.273 OA
HETATM    2  C   LIG     1      23.888  22.146  20.761  1.00  0.00     0.227 C 
HETATM    3  C   LIG     1      24.973  22.762  19.859  1.00  0.00     0.135 C 
HETATM    4  N   LIG     1      24.179  21.964  22.160  1.00  0.00    -0.311 N 
HETATM    5  C   LIG     1      25.557  22.081  22.509  1.00  0.00     0.115 C 
HETATM    6  C   LIG     1      25.715  21.953  24.036  1.00  0.00     0.043 C 
HETATM    7  C   LIG     1      25.158  23.127  24.865  1.00  0.00     0.049 C 
HETATM    8  C   LIG     1      26.335  24.011  25.264  1.00  0.00     0.274 C 
HETATM    9  C   LIG     1      27.261  21.968  24.373  1.00  0.00     0.239 C 
HETATM   10  N   LIG     1      27.592  23.317  24.948  1.00  0.00     0.098 N 
HETATM   11  C   LIG     1      28.562  24.203  24.193  1.00  0.00     0.307 C 
HETATM   12  C   LIG     1      28.135  21.750  23.117  1.00  0.00     0.046 C 
HETATM   13  C   LIG     1      27.806  22.923  22.126  1.00  0.00     0.026 C 
HETATM   14  C   LIG     1      28.365  24.174  22.667  1.00  0.00    -0.049 C 
HETATM   15  C   LIG     1      28.268  25.303  21.909  1.00  0.00     0.004 C 
HETATM   16  C   LIG     1      27.587  25.417  20.513  1.00  0.00     0.196 C 
HETATM   17  O   LIG     1      27.002  24.235  19.927  1.00  0.00    -0.381 OA
HETATM   18  C   LIG     1      25.840  23.805  20.635  1.00  0.00     0.137 C 
HETATM   19  C   LIG     1      26.277  23.266  22.000  1.00  0.00     0.048 C 
HETATM   20  C   LIG     1      23.789  20.952  23.109  1.00  0.00     0.047 A 
HETATM   21  C   LIG     1      24.724  20.824  24.149  1.00  0.00    -0.015 A 
HETATM   22  C   LIG     1      24.549  19.893  25.162  1.00  0.00     0.050 A 
HETATM   23  C   LIG     1      23.447  19.019  25.110  1.00  0.00     0.102 A 
HETATM   24  C   LIG     1      22.509  19.116  24.031  1.00  0.00     0.103 A 
HETATM   25  C   LIG     1      22.694  20.099  23.026  1.00  0.00     0.070 A 
ENDROOT
BRANCH  23  26
HETATM   26  O   LIG     1      23.342  18.088  26.160  1.00  0.00    -0.353 OA
HETATM   27  C   LIG     1      22.891  18.352  27.483  1.00  0.00     0.210 C 
ENDBRANCH  23  26
BRANCH  24  28
HETATM   28  O   LIG     1      21.415  18.238  23.978  1.00  0.00    -0.353 OA
HETATM   29  C   LIG     1      20.246  18.341  24.784  1.00  0.00     0.210 C 
ENDBRANCH  24  28
TORSDOF 2
ENDMDL
MODEL 16
REMARK VINA RESULT:      -4.4      3.095      5.718
REMARK  2 active torsions:
REMARK  status: ('A' for Active; 'I' for Inactive)
REMARK    1  A    between atoms: C_23  and  O_24 
REMARK    2  A    between atoms: C_26  and  O_27 
ROOT
HETATM    1  O   LIG     1      23.185  22.488  21.870  1.00  0.00    -0.273 OA
HETATM    2  C   LIG     1      24.380  22.844  21.698  1.00  0.00     0.227 C 
HETATM    3  C   LIG     1      24.954  23.009  20.279  1.00  0.00     0.135 C 
HETATM    4  N   LIG     1      25.257  23.054  22.823  1.00  0.00    -0.311 N 
HETATM    5  C   LIG     1      26.647  23.083  22.505  1.00  0.00     0.115 C 
HETATM    6  C   LIG     1      27.459  23.399  23.775  1.00  0.00     0.043 C 
HETATM    7  C   LIG     1      27.309  24.832  24.323  1.00  0.00     0.049 C 
HETATM    8  C   LIG     1      28.533  25.628  23.880  1.00  0.00     0.274 C 
HETATM    9  C   LIG     1      28.997  23.307  23.411  1.00  0.00     0.239 C 
HETATM   10  N   LIG     1      29.532  24.708  23.316  1.00  0.00     0.098 N 
HETATM   11  C   LIG     1      30.063  25.187  21.980  1.00  0.00     0.307 C 
HETATM   12  C   LIG     1      29.234  22.605  22.054  1.00  0.00     0.046 C 
HETATM   13  C   LIG     1      28.492  23.460  20.965  1.00  0.00     0.026 C 
HETATM   14  C   LIG     1      29.218  24.728  20.779  1.00  0.00    -0.049 C 
HETATM   15  C   LIG     1      28.786  25.579  19.805  1.00  0.00     0.004 C 
HETATM   16  C   LIG     1      27.561  25.360  18.869  1.00  0.00     0.196 C 
HETATM   17  O   LIG     1      26.791  24.147  19.006  1.00  0.00    -0.381 OA
HETATM   18  C   LIG     1      26.062  24.110  20.231  1.00  0.00     0.137 C 
HETATM   19  C   LIG     1      27.058  23.952  21.384  1.00  0.00     0.048 C 
HETATM   20  C   LIG     1      25.333  22.435  24.122  1.00  0.00     0.047 A 
HETATM   21  C   LIG     1      26.631  22.501  24.656  1.00  0.00    -0.015 A 
HETATM   22  C   LIG     1      26.928  21.949  25.893  1.00  0.00     0.050 A 
HETATM   23  C   LIG     1      25.924  21.258  26.596  1.00  0.00     0.102 A 
HETATM   24  C   LIG     1      24.607  21.152  26.041  1.00  0.00     0.103 A 
HETATM   25  C   LIG     1      24.322  21.753  24.789  1.00  0.00     0.070 A 
ENDROOT
BRANCH  23  26
HETATM   26  O   LIG     1      26.299  20.708  27.836  1.00  0.00    -0.353 OA
HETATM   27  C   LIG     1      26.125  21.307  29.115  1.00  0.00     0.210 C 
ENDBRANCH  23  26
BRANCH  24  28
HETATM   28  O   LIG     1      23.609  20.454  26.741  1.00  0.00    -0.353 OA
HETATM   29  C   LIG     1      22.416  21.035  27.254  1.00  0.00     0.210 C 
ENDBRANCH  24  28
TORSDOF 2
ENDMDL
MODEL 17
REMARK VINA RESULT:      -4.3      5.637      8.761
REMARK  2 active torsions:
REMARK  status: ('A' for Active; 'I' for Inactive)
REMARK    1  A    between atoms: C_23  and  O_24 
REMARK    2  A    between atoms: C_26  and  O_27 
ROOT
HETATM    1  O   LIG     1      26.912  23.793  26.419  1.00  0.00    -0.273 OA
HETATM    2  C   LIG     1      26.420  22.786  26.994  1.00  0.00     0.227 C 
HETATM    3  C   LIG     1      27.130  22.147  28.202  1.00  0.00     0.135 C 
HETATM    4  N   LIG     1      25.212  22.173  26.504  1.00  0.00    -0.311 N 
HETATM    5  C   LIG     1      24.966  20.854  26.988  1.00  0.00     0.115 C 
HETATM    6  C   LIG     1      23.608  20.355  26.459  1.00  0.00     0.043 C 
HETATM    7  C   LIG     1      22.366  21.059  27.040  1.00  0.00     0.049 C 
HETATM    8  C   LIG     1      21.780  20.149  28.115  1.00  0.00     0.274 C 
HETATM    9  C   LIG     1      23.424  18.851  26.917  1.00  0.00     0.239 C 
HETATM   10  N   LIG     1      22.434  18.833  28.046  1.00  0.00     0.098 N 
HETATM   11  C   LIG     1      22.900  18.353  29.406  1.00  0.00     0.307 C 
HETATM   12  C   LIG     1      24.747  18.230  27.423  1.00  0.00     0.046 C 
HETATM   13  C   LIG     1      25.215  19.094  28.648  1.00  0.00     0.026 C 
HETATM   14  C   LIG     1      24.310  18.841  29.783  1.00  0.00    -0.049 C 
HETATM   15  C   LIG     1      24.599  19.428  30.978  1.00  0.00     0.004 C 
HETATM   16  C   LIG     1      25.794  20.383  31.269  1.00  0.00     0.196 C 
HETATM   17  O   LIG     1      26.713  20.690  30.200  1.00  0.00    -0.381 OA
HETATM   18  C   LIG     1      26.110  21.496  29.190  1.00  0.00     0.137 C 
HETATM   19  C   LIG     1      25.074  20.647  28.446  1.00  0.00     0.048 C 
HETATM   20  C   LIG     1      24.662  22.035  25.179  1.00  0.00     0.047 A 
HETATM   21  C   LIG     1      23.823  20.913  25.076  1.00  0.00    -0.015 A 
HETATM   22  C   LIG     1      23.204  20.586  23.879  1.00  0.00     0.050 A 
HETATM   23  C   LIG     1      23.471  21.358  22.734  1.00  0.00     0.102 A 
HETATM   24  C   LIG     1      24.356  22.482  22.820  1.00  0.00     0.103 A 
HETATM   25  C   LIG     1      24.951  22.813  24.063  1.00  0.00     0.070 A 
ENDROOT
BRANCH  23  26
HETATM   26  O   LIG     1      22.823  20.959  21.550  1.00  0.00    -0.353 OA
HETATM   27  C   LIG     1      23.356  20.114  20.537  1.00  0.00     0.210 C 
ENDBRANCH  23  26
BRANCH  24  28
HETATM   28  O   LIG     1      24.627  23.246  21.673  1.00  0.00    -0.353 OA
HETATM   29  C   LIG     1      25.824  23.169  20.906  1.00  0.00     0.210 C 
ENDBRANCH  24  28
TORSDOF 2
ENDMDL
MODEL 18
REMARK VINA RESULT:      -4.3      2.601      6.433
REMARK  2 active torsions:
REMARK  status: ('A' for Active; 'I' for Inactive)
REMARK    1  A    between atoms: C_23  and  O_24 
REMARK    2  A    between atoms: C_26  and  O_27 
ROOT
HETATM    1  O   LIG     1      26.938  24.173  24.764  1.00  0.00    -0.273 OA
HETATM    2  C   LIG     1      26.336  23.213  24.215  1.00  0.00     0.227 C 
HETATM    3  C   LIG     1      25.840  22.017  25.050  1.00  0.00     0.135 C 
HETATM    4  N   LIG     1      26.144  23.181  22.788  1.00  0.00    -0.311 N 
HETATM    5  C   LIG     1      25.798  21.905  22.254  1.00  0.00     0.115 C 
HETATM    6  C   LIG     1      25.537  22.031  20.742  1.00  0.00     0.043 C 
HETATM    7  C   LIG     1      24.266  22.808  20.346  1.00  0.00     0.049 C 
HETATM    8  C   LIG     1      23.189  21.785  19.995  1.00  0.00     0.274 C 
HETATM    9  C   LIG     1      25.273  20.580  20.165  1.00  0.00     0.239 C 
HETATM   10  N   LIG     1      23.799  20.450  19.908  1.00  0.00     0.098 N 
HETATM   11  C   LIG     1      23.019  19.412  20.692  1.00  0.00     0.307 C 
HETATM   12  C   LIG     1      25.691  19.473  21.159  1.00  0.00     0.046 C 
HETATM   13  C   LIG     1      24.833  19.681  22.458  1.00  0.00     0.026 C 
HETATM   14  C   LIG     1      23.435  19.315  22.169  1.00  0.00    -0.049 C 
HETATM   15  C   LIG     1      22.540  19.337  23.197  1.00  0.00     0.004 C 
HETATM   16  C   LIG     1      22.838  19.748  24.669  1.00  0.00     0.196 C 
HETATM   17  O   LIG     1      24.183  20.136  25.022  1.00  0.00    -0.381 OA
HETATM   18  C   LIG     1      24.554  21.381  24.433  1.00  0.00     0.137 C 
HETATM   19  C   LIG     1      24.698  21.178  22.922  1.00  0.00     0.048 C 
HETATM   20  C   LIG     1      26.934  23.679  21.691  1.00  0.00     0.047 A 
HETATM   21  C   LIG     1      26.706  22.952  20.511  1.00  0.00    -0.015 A 
HETATM   22  C   LIG     1      27.380  23.256  19.337  1.00  0.00     0.050 A 
HETATM   23  C   LIG     1      28.355  24.271  19.348  1.00  0.00     0.102 A 
HETATM   24  C   LIG     1      28.623  24.992  20.557  1.00  0.00     0.103 A 
HETATM   25  C   LIG     1      27.896  24.682  21.734  1.00  0.00     0.070 A 
ENDROOT
BRANCH  23  26
HETATM   26  O   LIG     1      29.013  24.515  18.128  1.00  0.00    -0.353 OA
HETATM   27  C   LIG     1      28.573  24.115  16.835  1.00  0.00     0.210 C 
ENDBRANCH  23  26
BRANCH  24  28
HETATM   28  O   LIG     1      29.601  25.999  20.567  1.00  0.00    -0.353 OA
HETATM   29  C   LIG     1      30.628  26.128  21.544  1.00  0.00     0.210 C 
ENDBRANCH  24  28
TORSDOF 2
ENDMDL
MODEL 19
REMARK VINA RESULT:      -4.3      3.698      6.821
REMARK  2 active torsions:
REMARK  status: ('A' for Active; 'I' for Inactive)
REMARK    1  A    between atoms: C_23  and  O_24 
REMARK    2  A    between atoms: C_26  and  O_27 
ROOT
HETATM    1  O   LIG     1      28.952  26.554  23.484  1.00  0.00    -0.273 OA
HETATM    2  C   LIG     1      28.640  25.737  24.390  1.00  0.00     0.227 C 
HETATM    3  C   LIG     1      29.319  25.798  25.771  1.00  0.00     0.135 C 
HETATM    4  N   LIG     1      27.679  24.692  24.142  1.00  0.00    -0.311 N 
HETATM    5  C   LIG     1      27.688  23.628  25.092  1.00  0.00     0.115 C 
HETATM    6  C   LIG     1      26.562  22.631  24.761  1.00  0.00     0.043 C 
HETATM    7  C   LIG     1      25.127  23.144  24.989  1.00  0.00     0.049 C 
HETATM    8  C   LIG     1      24.637  22.572  26.315  1.00  0.00     0.274 C 
HETATM    9  C   LIG     1      26.677  21.409  25.760  1.00  0.00     0.239 C 
HETATM   10  N   LIG     1      25.582  21.546  26.780  1.00  0.00     0.098 N 
HETATM   11  C   LIG     1      25.970  21.740  28.232  1.00  0.00     0.307 C 
HETATM   12  C   LIG     1      28.032  21.389  26.504  1.00  0.00     0.046 C 
HETATM   13  C   LIG     1      28.126  22.733  27.311  1.00  0.00     0.026 C 
HETATM   14  C   LIG     1      27.168  22.685  28.429  1.00  0.00    -0.049 C 
HETATM   15  C   LIG     1      27.158  23.724  29.312  1.00  0.00     0.004 C 
HETATM   16  C   LIG     1      28.051  24.998  29.243  1.00  0.00     0.196 C 
HETATM   17  O   LIG     1      29.001  25.122  28.165  1.00  0.00    -0.381 OA
HETATM   18  C   LIG     1      28.361  25.311  26.905  1.00  0.00     0.137 C 
HETATM   19  C   LIG     1      27.654  24.007  26.519  1.00  0.00     0.048 C 
HETATM   20  C   LIG     1      27.350  23.937  22.960  1.00  0.00     0.047 A 
HETATM   21  C   LIG     1      26.816  22.678  23.276  1.00  0.00    -0.015 A 
HETATM   22  C   LIG     1      26.447  21.783  22.282  1.00  0.00     0.050 A 
HETATM   23  C   LIG     1      26.671  22.122  20.935  1.00  0.00     0.102 A 
HETATM   24  C   LIG     1      27.251  23.389  20.604  1.00  0.00     0.103 A 
HETATM   25  C   LIG     1      27.589  24.298  21.638  1.00  0.00     0.070 A 
ENDROOT
BRANCH  23  26
HETATM   26  O   LIG     1      26.289  21.160  19.981  1.00  0.00    -0.353 OA
HETATM   27  C   LIG     1      25.046  21.100  19.291  1.00  0.00     0.210 C 
ENDBRANCH  23  26
BRANCH  24  28
HETATM   28  O   LIG     1      27.481  23.721  19.259  1.00  0.00    -0.353 OA
HETATM   29  C   LIG     1      26.587  24.467  18.440  1.00  0.00     0.210 C 
ENDBRANCH  24  28
TORSDOF 2
ENDMDL
