REMARK  2 active torsions:
REMARK  status: ('A' for Active; 'I' for Inactive)
REMARK    1  A    between atoms: C_23  and  O_24 
REMARK    2  A    between atoms: C_26  and  O_27 
ROOT
HETATM    1  O   LIG     1       0.621   3.736   0.255  1.00  0.00    -0.273 OA
HETATM    2  C   LIG     1      -0.172   2.759   0.304  1.00  0.00     0.227 C 
HETATM    3  C   LIG     1      -1.587   2.925   0.889  1.00  0.00     0.135 C 
HETATM    4  N   LIG     1       0.241   1.450  -0.135  1.00  0.00    -0.311 N 
HETATM    5  C   LIG     1      -0.587   0.377   0.308  1.00  0.00     0.115 C 
HETATM    6  C   LIG     1      -0.087  -0.946  -0.301  1.00  0.00     0.043 C 
HETATM    7  C   LIG     1      -0.289  -1.100  -1.821  1.00  0.00     0.049 C 
HETATM    8  C   LIG     1      -1.516  -1.980  -2.038  1.00  0.00     0.274 C 
HETATM    9  C   LIG     1      -0.953  -2.125   0.304  1.00  0.00     0.239 C 
HETATM   10  N   LIG     1      -1.919  -2.575  -0.755  1.00  0.00     0.098 N 
HETATM   11  C   LIG     1      -3.403  -2.417  -0.491  1.00  0.00     0.307 C 
HETATM   12  C   LIG     1      -1.765  -1.677   1.541  1.00  0.00     0.046 C 
HETATM   13  C   LIG     1      -2.717  -0.522   1.065  1.00  0.00     0.026 C 
HETATM   14  C   LIG     1      -3.768  -1.095   0.206  1.00  0.00    -0.049 C 
HETATM   15  C   LIG     1      -4.756  -0.268  -0.239  1.00  0.00     0.004 C 
HETATM   16  C   LIG     1      -4.876   1.258   0.046  1.00  0.00     0.196 C 
HETATM   17  O   LIG     1      -3.872   1.892   0.866  1.00  0.00    -0.381 OA
HETATM   18  C   LIG     1      -2.606   1.953   0.212  1.00  0.00     0.137 C 
HETATM   19  C   LIG     1      -2.043   0.532   0.112  1.00  0.00     0.048 C 
HETATM   20  C   LIG     1       1.515   0.777  -0.115  1.00  0.00     0.047 A 
HETATM   21  C   LIG     1       1.367  -0.619  -0.081  1.00  0.00    -0.015 A 
HETATM   22  C   LIG     1       2.471  -1.458  -0.040  1.00  0.00     0.050 A 
HETATM   23  C   LIG     1       3.759  -0.896   0.031  1.00  0.00     0.102 A 
HETATM   24  C   LIG     1       3.918   0.528   0.036  1.00  0.00     0.103 A 
HETATM   25  C   LIG     1       2.774   1.362  -0.039  1.00  0.00     0.070 A 
ENDROOT
BRANCH  23  26
HETATM   26  O   LIG     1       4.832  -1.805   0.088  1.00  0.00    -0.353 OA
HETATM   27  C   LIG     1       6.215  -1.478   0.157  1.00  0.00     0.210 C 
ENDBRANCH  23  26
BRANCH  24  28
HETATM   28  O   LIG     1       5.204   1.086   0.115  1.00  0.00    -0.353 OA
HETATM   29  C   LIG     1       5.488   2.481   0.129  1.00  0.00     0.210 C 
ENDBRANCH  24  28
TORSDOF 2
