MODEL 1
REMARK VINA RESULT:      -7.6      0.000      0.000
REMARK  2 active torsions:
REMARK  status: ('A' for Active; 'I' for Inactive)
REMARK    1  A    between atoms: C_6  and  C_7 
REMARK    2  A    between atoms: C_6  and  C_9 
ROOT
HETATM    1  O   LIG     1      18.964  38.263  19.287  1.00  0.00    -0.247 OA
HETATM    2  C   LIG     1      18.382  37.887  20.339  1.00  0.00     0.329 C 
HETATM    3  N   LIG     1      17.932  38.850  21.287  1.00  0.00    -0.278 N 
HETATM    4  N   LIG     1      18.195  36.500  20.595  1.00  0.00    -0.278 N 
HETATM    5  C   LIG     1      17.497  36.047  21.758  1.00  0.00     0.248 C 
HETATM    6  C   LIG     1      16.746  37.014  22.667  1.00  0.00     0.145 C 
HETATM    7  C   LIG     1      17.247  38.448  22.476  1.00  0.00     0.248 C 
HETATM    8  O   LIG     1      17.010  39.317  23.360  1.00  0.00    -0.271 OA
HETATM    9  O   LIG     1      17.438  34.808  21.984  1.00  0.00    -0.271 OA
HETATM   10  H   LIG     1      18.146  39.862  21.133  1.00  0.00     0.173 HD
HETATM   11  H   LIG     1      18.595  35.798  19.931  1.00  0.00     0.173 HD
ENDROOT
BRANCH   6  12
HETATM   12  C   LIG     1      15.246  36.965  22.240  1.00  0.00     0.029 C 
HETATM   13  C   LIG     1      14.858  35.765  21.362  1.00  0.00     0.007 C 
ENDBRANCH   6  12
BRANCH   6  14
HETATM   14  C   LIG     1      16.982  36.544  24.122  1.00  0.00    -0.056 C 
HETATM   15  C   LIG     1      16.921  35.050  24.493  1.00  0.00     0.040 C 
HETATM   16  C   LIG     1      17.425  34.745  25.929  1.00  0.00    -0.010 C 
HETATM   17  C   LIG     1      18.951  34.908  26.021  1.00  0.00     0.005 C 
HETATM   18  C   LIG     1      16.898  35.822  26.866  1.00  0.00     0.013 C 
HETATM   19  C   LIG     1      19.179  36.374  26.403  1.00  0.00     0.009 C 
HETATM   20  C   LIG     1      17.779  36.991  26.461  1.00  0.00     0.009 C 
HETATM   21  C   LIG     1      17.380  37.441  25.068  1.00  0.00    -0.018 C 
ENDBRANCH   6  14
TORSDOF 2
ENDMDL
MODEL 2
REMARK VINA RESULT:      -6.7     15.041     16.377
REMARK  2 active torsions:
REMARK  status: ('A' for Active; 'I' for Inactive)
REMARK    1  A    between atoms: C_6  and  C_7 
REMARK    2  A    between atoms: C_6  and  C_9 
ROOT
HETATM    1  O   LIG     1      29.475  26.109  21.380  1.00  0.00    -0.247 OA
HETATM    2  C   LIG     1      28.521  25.410  20.946  1.00  0.00     0.329 C 
HETATM    3  N   LIG     1      27.481  26.017  20.185  1.00  0.00    -0.278 N 
HETATM    4  N   LIG     1      28.466  24.017  21.236  1.00  0.00    -0.278 N 
HETATM    5  C   LIG     1      27.420  23.192  20.717  1.00  0.00     0.248 C 
HETATM    6  C   LIG     1      26.437  23.709  19.672  1.00  0.00     0.145 C 
HETATM    7  C   LIG     1      26.402  25.239  19.661  1.00  0.00     0.248 C 
HETATM    8  O   LIG     1      25.425  25.839  19.133  1.00  0.00    -0.271 OA
HETATM    9  O   LIG     1      27.367  21.985  21.078  1.00  0.00    -0.271 OA
HETATM   10  H   LIG     1      27.484  27.053  20.046  1.00  0.00     0.173 HD
HETATM   11  H   LIG     1      29.193  23.595  21.858  1.00  0.00     0.173 HD
ENDROOT
BRANCH   6  12
HETATM   12  C   LIG     1      26.958  23.226  18.282  1.00  0.00     0.029 C 
HETATM   13  C   LIG     1      27.921  24.193  17.577  1.00  0.00     0.007 C 
ENDBRANCH   6  12
BRANCH   6  14
HETATM   14  C   LIG     1      25.047  23.135  20.035  1.00  0.00    -0.056 C 
HETATM   15  C   LIG     1      24.282  22.227  19.052  1.00  0.00     0.040 C 
HETATM   16  C   LIG     1      23.033  21.549  19.677  1.00  0.00    -0.010 C 
HETATM   17  C   LIG     1      23.445  20.455  20.675  1.00  0.00     0.005 C 
HETATM   18  C   LIG     1      22.313  22.567  20.547  1.00  0.00     0.013 C 
HETATM   19  C   LIG     1      23.562  21.165  22.028  1.00  0.00     0.009 C 
HETATM   20  C   LIG     1      23.263  22.636  21.730  1.00  0.00     0.009 C 
HETATM   21  C   LIG     1      24.542  23.321  21.288  1.00  0.00    -0.018 C 
ENDBRANCH   6  14
TORSDOF 2
ENDMDL
MODEL 3
REMARK VINA RESULT:      -6.6     15.629     17.353
REMARK  2 active torsions:
REMARK  status: ('A' for Active; 'I' for Inactive)
REMARK    1  A    between atoms: C_6  and  C_7 
REMARK    2  A    between atoms: C_6  and  C_9 
ROOT
HETATM    1  O   LIG     1      22.912  18.885  22.782  1.00  0.00    -0.247 OA
HETATM    2  C   LIG     1      23.304  19.766  21.971  1.00  0.00     0.329 C 
HETATM    3  N   LIG     1      24.307  19.454  21.010  1.00  0.00    -0.278 N 
HETATM    4  N   LIG     1      22.764  21.082  22.030  1.00  0.00    -0.278 N 
HETATM    5  C   LIG     1      23.157  22.088  21.093  1.00  0.00     0.248 C 
HETATM    6  C   LIG     1      24.005  21.755  19.870  1.00  0.00     0.145 C 
HETATM    7  C   LIG     1      24.749  20.431  20.063  1.00  0.00     0.248 C 
HETATM    8  O   LIG     1      25.747  20.162  19.339  1.00  0.00    -0.271 OA
HETATM    9  O   LIG     1      22.718  23.261  21.245  1.00  0.00    -0.271 OA
HETATM   10  H   LIG     1      24.758  18.511  21.025  1.00  0.00     0.173 HD
HETATM   11  H   LIG     1      22.084  21.323  22.787  1.00  0.00     0.173 HD
ENDROOT
BRANCH   6  12
HETATM   12  C   LIG     1      23.023  21.588  18.669  1.00  0.00     0.029 C 
HETATM   13  C   LIG     1      22.680  20.136  18.305  1.00  0.00     0.007 C 
ENDBRANCH   6  12
BRANCH   6  14
HETATM   14  C   LIG     1      25.006  22.919  19.683  1.00  0.00    -0.056 C 
HETATM   15  C   LIG     1      25.923  23.371  20.837  1.00  0.00     0.040 C 
HETATM   16  C   LIG     1      27.024  24.373  20.399  1.00  0.00    -0.010 C 
HETATM   17  C   LIG     1      28.101  23.671  19.556  1.00  0.00     0.005 C 
HETATM   18  C   LIG     1      26.412  25.372  19.428  1.00  0.00     0.013 C 
HETATM   19  C   LIG     1      27.618  23.785  18.106  1.00  0.00     0.009 C 
HETATM   20  C   LIG     1      26.267  24.499  18.194  1.00  0.00     0.009 C 
HETATM   21  C   LIG     1      25.181  23.472  18.450  1.00  0.00    -0.018 C 
ENDBRANCH   6  14
TORSDOF 2
ENDMDL
MODEL 4
REMARK VINA RESULT:      -6.4     15.281     16.895
REMARK  2 active torsions:
REMARK  status: ('A' for Active; 'I' for Inactive)
REMARK    1  A    between atoms: C_6  and  C_7 
REMARK    2  A    between atoms: C_6  and  C_9 
ROOT
HETATM    1  O   LIG     1      29.322  23.905  16.939  1.00  0.00    -0.247 OA
HETATM    2  C   LIG     1      28.469  23.723  17.847  1.00  0.00     0.329 C 
HETATM    3  N   LIG     1      28.412  22.475  18.532  1.00  0.00    -0.278 N 
HETATM    4  N   LIG     1      27.544  24.753  18.176  1.00  0.00    -0.278 N 
HETATM    5  C   LIG     1      26.596  24.590  19.234  1.00  0.00     0.248 C 
HETATM    6  C   LIG     1      26.660  23.404  20.190  1.00  0.00     0.145 C 
HETATM    7  C   LIG     1      27.469  22.254  19.584  1.00  0.00     0.248 C 
HETATM    8  O   LIG     1      27.347  21.088  20.051  1.00  0.00    -0.271 OA
HETATM    9  O   LIG     1      25.739  25.497  19.423  1.00  0.00    -0.271 OA
HETATM   10  H   LIG     1      29.039  21.695  18.231  1.00  0.00     0.173 HD
HETATM   11  H   LIG     1      27.543  25.637  17.617  1.00  0.00     0.173 HD
ENDROOT
BRANCH   6  12
HETATM   12  C   LIG     1      27.403  23.896  21.472  1.00  0.00     0.029 C 
HETATM   13  C   LIG     1      28.541  24.896  21.222  1.00  0.00     0.007 C 
ENDBRANCH   6  12
BRANCH   6  14
HETATM   14  C   LIG     1      25.203  22.961  20.461  1.00  0.00    -0.056 C 
HETATM   15  C   LIG     1      24.327  22.382  19.333  1.00  0.00     0.040 C 
HETATM   16  C   LIG     1      22.994  21.766  19.836  1.00  0.00    -0.010 C 
HETATM   17  C   LIG     1      23.247  20.447  20.585  1.00  0.00     0.005 C 
HETATM   18  C   LIG     1      22.415  22.675  20.909  1.00  0.00     0.013 C 
HETATM   19  C   LIG     1      23.453  20.847  22.050  1.00  0.00     0.009 C 
HETATM   20  C   LIG     1      23.359  22.375  22.060  1.00  0.00     0.009 C 
HETATM   21  C   LIG     1      24.721  22.956  21.736  1.00  0.00    -0.018 C 
ENDBRANCH   6  14
TORSDOF 2
ENDMDL
MODEL 5
REMARK VINA RESULT:      -6.4      1.151      2.016
REMARK  2 active torsions:
REMARK  status: ('A' for Active; 'I' for Inactive)
REMARK    1  A    between atoms: C_6  and  C_7 
REMARK    2  A    between atoms: C_6  and  C_9 
ROOT
HETATM    1  O   LIG     1      18.080  36.678  18.590  1.00  0.00    -0.247 OA
HETATM    2  C   LIG     1      17.863  36.720  19.830  1.00  0.00     0.329 C 
HETATM    3  N   LIG     1      18.366  37.804  20.604  1.00  0.00    -0.278 N 
HETATM    4  N   LIG     1      17.135  35.674  20.464  1.00  0.00    -0.278 N 
HETATM    5  C   LIG     1      16.835  35.720  21.861  1.00  0.00     0.248 C 
HETATM    6  C   LIG     1      17.091  36.972  22.694  1.00  0.00     0.145 C 
HETATM    7  C   LIG     1      18.110  37.887  22.009  1.00  0.00     0.248 C 
HETATM    8  O   LIG     1      18.706  38.773  22.681  1.00  0.00    -0.271 OA
HETATM    9  O   LIG     1      16.268  34.725  22.391  1.00  0.00    -0.271 OA
HETATM   10  H   LIG     1      18.968  38.526  20.148  1.00  0.00     0.173 HD
HETATM   11  H   LIG     1      16.835  34.845  19.901  1.00  0.00     0.173 HD
ENDROOT
BRANCH   6  12
HETATM   12  C   LIG     1      15.735  37.740  22.786  1.00  0.00     0.029 C 
HETATM   13  C   LIG     1      15.829  39.256  22.558  1.00  0.00     0.007 C 
ENDBRANCH   6  12
BRANCH   6  14
HETATM   14  C   LIG     1      17.620  36.500  24.069  1.00  0.00    -0.056 C 
HETATM   15  C   LIG     1      17.813  37.496  25.229  1.00  0.00     0.040 C 
HETATM   16  C   LIG     1      18.109  36.813  26.591  1.00  0.00    -0.010 C 
HETATM   17  C   LIG     1      16.854  36.113  27.138  1.00  0.00     0.005 C 
HETATM   18  C   LIG     1      19.078  35.664  26.356  1.00  0.00     0.013 C 
HETATM   19  C   LIG     1      16.905  34.690  26.573  1.00  0.00     0.009 C 
HETATM   20  C   LIG     1      18.155  34.659  25.690  1.00  0.00     0.009 C 
HETATM   21  C   LIG     1      17.797  35.170  24.308  1.00  0.00    -0.018 C 
ENDBRANCH   6  14
TORSDOF 2
ENDMDL
MODEL 6
REMARK VINA RESULT:      -6.3     15.574     17.253
REMARK  2 active torsions:
REMARK  status: ('A' for Active; 'I' for Inactive)
REMARK    1  A    between atoms: C_6  and  C_7 
REMARK    2  A    between atoms: C_6  and  C_9 
ROOT
HETATM    1  O   LIG     1      22.785  18.354  20.498  1.00  0.00    -0.247 OA
HETATM    2  C   LIG     1      23.366  19.472  20.497  1.00  0.00     0.329 C 
HETATM    3  N   LIG     1      23.128  20.397  19.441  1.00  0.00    -0.278 N 
HETATM    4  N   LIG     1      24.279  19.804  21.538  1.00  0.00    -0.278 N 
HETATM    5  C   LIG     1      24.916  21.083  21.585  1.00  0.00     0.248 C 
HETATM    6  C   LIG     1      24.501  22.219  20.656  1.00  0.00     0.145 C 
HETATM    7  C   LIG     1      23.757  21.681  19.431  1.00  0.00     0.248 C 
HETATM    8  O   LIG     1      23.645  22.402  18.401  1.00  0.00    -0.271 OA
HETATM    9  O   LIG     1      25.785  21.293  22.476  1.00  0.00    -0.271 OA
HETATM   10  H   LIG     1      22.521  20.115  18.638  1.00  0.00     0.173 HD
HETATM   11  H   LIG     1      24.505  19.090  22.268  1.00  0.00     0.173 HD
ENDROOT
BRANCH   6  12
HETATM   12  C   LIG     1      23.518  23.126  21.461  1.00  0.00     0.029 C 
HETATM   13  C   LIG     1      22.031  22.771  21.308  1.00  0.00     0.007 C 
ENDBRANCH   6  12
BRANCH   6  14
HETATM   14  C   LIG     1      25.795  22.950  20.229  1.00  0.00    -0.056 C 
HETATM   15  C   LIG     1      26.819  22.273  19.297  1.00  0.00     0.040 C 
HETATM   16  C   LIG     1      27.920  23.237  18.779  1.00  0.00    -0.010 C 
HETATM   17  C   LIG     1      27.345  24.228  17.754  1.00  0.00     0.005 C 
HETATM   18  C   LIG     1      28.358  24.133  19.928  1.00  0.00     0.013 C 
HETATM   19  C   LIG     1      26.874  25.432  18.575  1.00  0.00     0.009 C 
HETATM   20  C   LIG     1      27.154  25.052  20.032  1.00  0.00     0.009 C 
HETATM   21  C   LIG     1      25.980  24.257  20.570  1.00  0.00    -0.018 C 
ENDBRANCH   6  14
TORSDOF 2
ENDMDL
MODEL 7
REMARK VINA RESULT:      -6.1     15.444     16.696
REMARK  2 active torsions:
REMARK  status: ('A' for Active; 'I' for Inactive)
REMARK    1  A    between atoms: C_6  and  C_7 
REMARK    2  A    between atoms: C_6  and  C_9 
ROOT
HETATM    1  O   LIG     1      22.693  20.800  17.832  1.00  0.00    -0.247 OA
HETATM    2  C   LIG     1      23.162  21.191  18.934  1.00  0.00     0.329 C 
HETATM    3  N   LIG     1      24.386  20.646  19.420  1.00  0.00    -0.278 N 
HETATM    4  N   LIG     1      22.460  22.158  19.707  1.00  0.00    -0.278 N 
HETATM    5  C   LIG     1      22.994  22.652  20.939  1.00  0.00     0.248 C 
HETATM    6  C   LIG     1      24.418  22.331  21.380  1.00  0.00     0.145 C 
HETATM    7  C   LIG     1      24.951  21.093  20.655  1.00  0.00     0.248 C 
HETATM    8  O   LIG     1      25.945  20.473  21.124  1.00  0.00    -0.271 OA
HETATM    9  O   LIG     1      22.290  23.438  21.630  1.00  0.00    -0.271 OA
HETATM   10  H   LIG     1      24.854  19.878  18.887  1.00  0.00     0.173 HD
HETATM   11  H   LIG     1      21.527  22.495  19.380  1.00  0.00     0.173 HD
ENDROOT
BRANCH   6  12
HETATM   12  C   LIG     1      25.303  23.550  20.972  1.00  0.00     0.029 C 
HETATM   13  C   LIG     1      25.808  23.531  19.521  1.00  0.00     0.007 C 
ENDBRANCH   6  12
BRANCH   6  14
HETATM   14  C   LIG     1      24.375  22.092  22.907  1.00  0.00    -0.056 C 
HETATM   15  C   LIG     1      23.528  20.954  23.509  1.00  0.00     0.040 C 
HETATM   16  C   LIG     1      23.800  20.709  25.018  1.00  0.00    -0.010 C 
HETATM   17  C   LIG     1      25.179  20.061  25.228  1.00  0.00     0.005 C 
HETATM   18  C   LIG     1      23.935  22.056  25.711  1.00  0.00     0.013 C 
HETATM   19  C   LIG     1      26.156  21.230  25.386  1.00  0.00     0.009 C 
HETATM   20  C   LIG     1      25.301  22.488  25.208  1.00  0.00     0.009 C 
HETATM   21  C   LIG     1      25.195  22.807  23.729  1.00  0.00    -0.018 C 
ENDBRANCH   6  14
TORSDOF 2
ENDMDL
MODEL 8
REMARK VINA RESULT:      -6.0     16.051     17.832
REMARK  2 active torsions:
REMARK  status: ('A' for Active; 'I' for Inactive)
REMARK    1  A    between atoms: C_6  and  C_7 
REMARK    2  A    between atoms: C_6  and  C_9 
ROOT
HETATM    1  O   LIG     1      25.320  22.230  25.109  1.00  0.00    -0.247 OA
HETATM    2  C   LIG     1      24.822  21.981  23.979  1.00  0.00     0.329 C 
HETATM    3  N   LIG     1      23.847  20.953  23.841  1.00  0.00    -0.278 N 
HETATM    4  N   LIG     1      25.251  22.710  22.834  1.00  0.00    -0.278 N 
HETATM    5  C   LIG     1      24.669  22.480  21.548  1.00  0.00     0.248 C 
HETATM    6  C   LIG     1      23.433  21.604  21.374  1.00  0.00     0.145 C 
HETATM    7  C   LIG     1      23.250  20.670  22.573  1.00  0.00     0.248 C 
HETATM    8  O   LIG     1      22.513  19.651  22.465  1.00  0.00    -0.271 OA
HETATM    9  O   LIG     1      25.148  23.087  20.551  1.00  0.00    -0.271 OA
HETATM   10  H   LIG     1      23.597  20.367  24.669  1.00  0.00     0.173 HD
HETATM   11  H   LIG     1      26.021  23.411  22.931  1.00  0.00     0.173 HD
ENDROOT
BRANCH   6  12
HETATM   12  C   LIG     1      22.203  22.563  21.313  1.00  0.00     0.029 C 
HETATM   13  C   LIG     1      22.459  23.984  21.839  1.00  0.00     0.007 C 
ENDBRANCH   6  12
BRANCH   6  14
HETATM   14  C   LIG     1      23.636  20.789  20.075  1.00  0.00    -0.056 C 
HETATM   15  C   LIG     1      24.621  19.605  20.026  1.00  0.00     0.040 C 
HETATM   16  C   LIG     1      24.511  18.757  18.731  1.00  0.00    -0.010 C 
HETATM   17  C   LIG     1      23.213  17.933  18.724  1.00  0.00     0.005 C 
HETATM   18  C   LIG     1      24.336  19.699  17.549  1.00  0.00     0.013 C 
HETATM   19  C   LIG     1      22.166  18.832  18.057  1.00  0.00     0.009 C 
HETATM   20  C   LIG     1      22.900  20.143  17.763  1.00  0.00     0.009 C 
HETATM   21  C   LIG     1      22.842  21.029  18.993  1.00  0.00    -0.018 C 
ENDBRANCH   6  14
TORSDOF 2
ENDMDL
MODEL 9
REMARK VINA RESULT:      -6.0     16.190     17.670
REMARK  2 active torsions:
REMARK  status: ('A' for Active; 'I' for Inactive)
REMARK    1  A    between atoms: C_6  and  C_7 
REMARK    2  A    between atoms: C_6  and  C_9 
ROOT
HETATM    1  O   LIG     1      30.638  23.888  20.679  1.00  0.00    -0.247 OA
HETATM    2  C   LIG     1      29.495  23.647  20.209  1.00  0.00     0.329 C 
HETATM    3  N   LIG     1      28.342  23.785  21.034  1.00  0.00    -0.278 N 
HETATM    4  N   LIG     1      29.354  23.213  18.861  1.00  0.00    -0.278 N 
HETATM    5  C   LIG     1      28.064  22.977  18.289  1.00  0.00     0.248 C 
HETATM    6  C   LIG     1      26.783  23.371  19.014  1.00  0.00     0.145 C 
HETATM    7  C   LIG     1      27.032  23.541  20.515  1.00  0.00     0.248 C 
HETATM    8  O   LIG     1      26.059  23.519  21.318  1.00  0.00    -0.271 OA
HETATM    9  O   LIG     1      27.999  22.505  17.120  1.00  0.00    -0.271 OA
HETATM   10  H   LIG     1      28.459  24.025  22.044  1.00  0.00     0.173 HD
HETATM   11  H   LIG     1      30.210  23.041  18.285  1.00  0.00     0.173 HD
ENDROOT
BRANCH   6  12
HETATM   12  C   LIG     1      26.342  24.752  18.437  1.00  0.00     0.029 C 
HETATM   13  C   LIG     1      27.008  25.973  19.089  1.00  0.00     0.007 C 
ENDBRANCH   6  12
BRANCH   6  14
HETATM   14  C   LIG     1      25.753  22.246  18.758  1.00  0.00    -0.056 C 
HETATM   15  C   LIG     1      26.022  20.802  19.224  1.00  0.00     0.040 C 
HETATM   16  C   LIG     1      24.786  19.870  19.107  1.00  0.00    -0.010 C 
HETATM   17  C   LIG     1      23.729  20.225  20.166  1.00  0.00     0.005 C 
HETATM   18  C   LIG     1      24.080  20.165  17.792  1.00  0.00     0.013 C 
HETATM   19  C   LIG     1      22.828  21.272  19.503  1.00  0.00     0.009 C 
HETATM   20  C   LIG     1      23.441  21.503  18.119  1.00  0.00     0.009 C 
HETATM   21  C   LIG     1      24.533  22.550  18.231  1.00  0.00    -0.018 C 
ENDBRANCH   6  14
TORSDOF 2
ENDMDL
MODEL 10
REMARK VINA RESULT:      -5.9     17.541     19.848
REMARK  2 active torsions:
REMARK  status: ('A' for Active; 'I' for Inactive)
REMARK    1  A    between atoms: C_6  and  C_7 
REMARK    2  A    between atoms: C_6  and  C_9 
ROOT
HETATM    1  O   LIG     1      19.215  22.617  31.907  1.00  0.00    -0.247 OA
HETATM    2  C   LIG     1      19.833  22.419  32.987  1.00  0.00     0.329 C 
HETATM    3  N   LIG     1      19.602  23.269  34.106  1.00  0.00    -0.278 N 
HETATM    4  N   LIG     1      20.780  21.361  33.084  1.00  0.00    -0.278 N 
HETATM    5  C   LIG     1      21.461  21.085  34.311  1.00  0.00     0.248 C 
HETATM    6  C   LIG     1      21.063  21.765  35.617  1.00  0.00     0.145 C 
HETATM    7  C   LIG     1      20.273  23.048  35.349  1.00  0.00     0.248 C 
HETATM    8  O   LIG     1      20.162  23.916  36.259  1.00  0.00    -0.271 OA
HETATM    9  O   LIG     1      22.356  20.197  34.319  1.00  0.00    -0.271 OA
HETATM   10  H   LIG     1      18.967  24.093  34.003  1.00  0.00     0.173 HD
HETATM   11  H   LIG     1      20.998  20.789  32.236  1.00  0.00     0.173 HD
ENDROOT
BRANCH   6  12
HETATM   12  C   LIG     1      20.131  20.772  36.379  1.00  0.00     0.029 C 
HETATM   13  C   LIG     1      19.066  20.083  35.511  1.00  0.00     0.007 C 
ENDBRANCH   6  12
BRANCH   6  14
HETATM   14  C   LIG     1      22.371  22.080  36.380  1.00  0.00    -0.056 C 
HETATM   15  C   LIG     1      22.762  21.291  37.645  1.00  0.00     0.040 C 
HETATM   16  C   LIG     1      24.211  21.570  38.128  1.00  0.00    -0.010 C 
HETATM   17  C   LIG     1      25.239  20.937  37.175  1.00  0.00     0.005 C 
HETATM   18  C   LIG     1      24.485  23.061  38.002  1.00  0.00     0.013 C 
HETATM   19  C   LIG     1      25.532  22.013  36.124  1.00  0.00     0.009 C 
HETATM   20  C   LIG     1      24.622  23.187  36.494  1.00  0.00     0.009 C 
HETATM   21  C   LIG     1      23.260  22.975  35.863  1.00  0.00    -0.018 C 
ENDBRANCH   6  14
TORSDOF 2
ENDMDL
MODEL 11
REMARK VINA RESULT:      -5.8     15.338     16.675
REMARK  2 active torsions:
REMARK  status: ('A' for Active; 'I' for Inactive)
REMARK    1  A    between atoms: C_6  and  C_7 
REMARK    2  A    between atoms: C_6  and  C_9 
ROOT
HETATM    1  O   LIG     1      24.279  20.357  18.150  1.00  0.00    -0.247 OA
HETATM    2  C   LIG     1      24.428  20.894  19.280  1.00  0.00     0.329 C 
HETATM    3  N   LIG     1      25.096  22.147  19.390  1.00  0.00    -0.278 N 
HETATM    4  N   LIG     1      23.952  20.239  20.451  1.00  0.00    -0.278 N 
HETATM    5  C   LIG     1      24.067  20.848  21.740  1.00  0.00     0.248 C 
HETATM    6  C   LIG     1      24.510  22.298  21.903  1.00  0.00     0.145 C 
HETATM    7  C   LIG     1      25.254  22.788  20.659  1.00  0.00     0.248 C 
HETATM    8  O   LIG     1      25.988  23.812  20.731  1.00  0.00    -0.271 OA
HETATM    9  O   LIG     1      23.713  20.187  22.754  1.00  0.00    -0.271 OA
HETATM   10  H   LIG     1      25.515  22.583  18.538  1.00  0.00     0.173 HD
HETATM   11  H   LIG     1      23.531  19.286  20.369  1.00  0.00     0.173 HD
ENDROOT
BRANCH   6  12
HETATM   12  C   LIG     1      23.213  23.152  22.060  1.00  0.00     0.029 C 
HETATM   13  C   LIG     1      22.060  22.763  21.122  1.00  0.00     0.007 C 
ENDBRANCH   6  12
BRANCH   6  14
HETATM   14  C   LIG     1      25.430  22.352  23.145  1.00  0.00    -0.056 C 
HETATM   15  C   LIG     1      26.860  21.781  23.099  1.00  0.00     0.040 C 
HETATM   16  C   LIG     1      27.715  22.144  24.343  1.00  0.00    -0.010 C 
HETATM   17  C   LIG     1      28.097  23.633  24.331  1.00  0.00     0.005 C 
HETATM   18  C   LIG     1      26.844  22.014  25.583  1.00  0.00     0.013 C 
HETATM   19  C   LIG     1      26.964  24.348  25.074  1.00  0.00     0.009 C 
HETATM   20  C   LIG     1      25.966  23.244  25.431  1.00  0.00     0.009 C 
HETATM   21  C   LIG     1      25.028  23.029  24.258  1.00  0.00    -0.018 C 
ENDBRANCH   6  14
TORSDOF 2
ENDMDL
MODEL 12
REMARK VINA RESULT:      -5.8     16.699     18.401
REMARK  2 active torsions:
REMARK  status: ('A' for Active; 'I' for Inactive)
REMARK    1  A    between atoms: C_6  and  C_7 
REMARK    2  A    between atoms: C_6  and  C_9 
ROOT
HETATM    1  O   LIG     1      26.830  19.733  25.393  1.00  0.00    -0.247 OA
HETATM    2  C   LIG     1      26.107  20.029  24.404  1.00  0.00     0.329 C 
HETATM    3  N   LIG     1      25.633  19.004  23.537  1.00  0.00    -0.278 N 
HETATM    4  N   LIG     1      25.783  21.389  24.138  1.00  0.00    -0.278 N 
HETATM    5  C   LIG     1      24.927  21.749  23.050  1.00  0.00     0.248 C 
HETATM    6  C   LIG     1      24.159  20.698  22.256  1.00  0.00     0.145 C 
HETATM    7  C   LIG     1      24.791  19.314  22.423  1.00  0.00     0.248 C 
HETATM    8  O   LIG     1      24.527  18.401  21.592  1.00  0.00    -0.271 OA
HETATM    9  O   LIG     1      24.746  22.972  22.803  1.00  0.00    -0.271 OA
HETATM   10  H   LIG     1      25.942  18.017  23.690  1.00  0.00     0.173 HD
HETATM   11  H   LIG     1      26.197  22.141  24.736  1.00  0.00     0.173 HD
ENDROOT
BRANCH   6  12
HETATM   12  C   LIG     1      22.716  20.647  22.848  1.00  0.00     0.029 C 
HETATM   13  C   LIG     1      22.523  19.658  24.008  1.00  0.00     0.007 C 
ENDBRANCH   6  12
BRANCH   6  14
HETATM   14  C   LIG     1      24.195  21.137  20.773  1.00  0.00    -0.056 C 
HETATM   15  C   LIG     1      25.512  21.123  19.973  1.00  0.00     0.040 C 
HETATM   16  C   LIG     1      25.316  21.352  18.450  1.00  0.00    -0.010 C 
HETATM   17  C   LIG     1      24.671  20.123  17.788  1.00  0.00     0.005 C 
HETATM   18  C   LIG     1      24.275  22.444  18.254  1.00  0.00     0.013 C 
HETATM   19  C   LIG     1      23.160  20.362  17.877  1.00  0.00     0.009 C 
HETATM   20  C   LIG     1      23.012  21.688  18.628  1.00  0.00     0.009 C 
HETATM   21  C   LIG     1      23.031  21.415  20.119  1.00  0.00    -0.018 C 
ENDBRANCH   6  14
TORSDOF 2
ENDMDL
MODEL 13
REMARK VINA RESULT:      -5.8     15.292     16.674
REMARK  2 active torsions:
REMARK  status: ('A' for Active; 'I' for Inactive)
REMARK    1  A    between atoms: C_6  and  C_7 
REMARK    2  A    between atoms: C_6  and  C_9 
ROOT
HETATM    1  O   LIG     1      28.535  26.870  18.999  1.00  0.00    -0.247 OA
HETATM    2  C   LIG     1      27.974  25.822  19.413  1.00  0.00     0.329 C 
HETATM    3  N   LIG     1      27.258  24.991  18.504  1.00  0.00    -0.278 N 
HETATM    4  N   LIG     1      28.032  25.478  20.793  1.00  0.00    -0.278 N 
HETATM    5  C   LIG     1      27.443  24.270  21.282  1.00  0.00     0.248 C 
HETATM    6  C   LIG     1      26.910  23.200  20.335  1.00  0.00     0.145 C 
HETATM    7  C   LIG     1      26.633  23.783  18.947  1.00  0.00     0.248 C 
HETATM    8  O   LIG     1      25.879  23.164  18.147  1.00  0.00    -0.271 OA
HETATM    9  O   LIG     1      27.443  24.058  22.525  1.00  0.00    -0.271 OA
HETATM   10  H   LIG     1      27.149  25.291  17.509  1.00  0.00     0.173 HD
HETATM   11  H   LIG     1      28.495  26.132  21.465  1.00  0.00     0.173 HD
ENDROOT
BRANCH   6  12
HETATM   12  C   LIG     1      28.030  22.122  20.194  1.00  0.00     0.029 C 
HETATM   13  C   LIG     1      29.444  22.678  19.972  1.00  0.00     0.007 C 
ENDBRANCH   6  12
BRANCH   6  14
HETATM   14  C   LIG     1      25.608  22.648  20.963  1.00  0.00    -0.056 C 
HETATM   15  C   LIG     1      24.403  23.571  21.231  1.00  0.00     0.040 C 
HETATM   16  C   LIG     1      23.111  22.806  21.627  1.00  0.00    -0.010 C 
HETATM   17  C   LIG     1      22.523  22.061  20.417  1.00  0.00     0.005 C 
HETATM   18  C   LIG     1      23.486  21.685  22.584  1.00  0.00     0.013 C 
HETATM   19  C   LIG     1      23.180  20.677  20.436  1.00  0.00     0.009 C 
HETATM   20  C   LIG     1      24.148  20.714  21.621  1.00  0.00     0.009 C 
HETATM   21  C   LIG     1      25.467  21.307  21.164  1.00  0.00    -0.018 C 
ENDBRANCH   6  14
TORSDOF 2
ENDMDL
MODEL 14
REMARK VINA RESULT:      -5.7     15.820     17.635
REMARK  2 active torsions:
REMARK  status: ('A' for Active; 'I' for Inactive)
REMARK    1  A    between atoms: C_6  and  C_7 
REMARK    2  A    between atoms: C_6  and  C_9 
ROOT
HETATM    1  O   LIG     1      27.547  20.096  27.280  1.00  0.00    -0.247 OA
HETATM    2  C   LIG     1      27.031  20.680  26.290  1.00  0.00     0.329 C 
HETATM    3  N   LIG     1      26.179  21.803  26.490  1.00  0.00    -0.278 N 
HETATM    4  N   LIG     1      27.280  20.204  24.972  1.00  0.00    -0.278 N 
HETATM    5  C   LIG     1      26.745  20.876  23.828  1.00  0.00     0.248 C 
HETATM    6  C   LIG     1      26.064  22.235  23.944  1.00  0.00     0.145 C 
HETATM    7  C   LIG     1      25.603  22.497  25.380  1.00  0.00     0.248 C 
HETATM    8  O   LIG     1      24.731  23.381  25.606  1.00  0.00    -0.271 OA
HETATM    9  O   LIG     1      26.918  20.362  22.689  1.00  0.00    -0.271 OA
HETATM   10  H   LIG     1      25.935  22.097  27.463  1.00  0.00     0.173 HD
HETATM   11  H   LIG     1      27.845  19.335  24.839  1.00  0.00     0.173 HD
ENDROOT
BRANCH   6  12
HETATM   12  C   LIG     1      27.133  23.311  23.575  1.00  0.00     0.029 C 
HETATM   13  C   LIG     1      27.551  24.236  24.728  1.00  0.00     0.007 C 
ENDBRANCH   6  12
BRANCH   6  14
HETATM   14  C   LIG     1      24.855  22.220  22.979  1.00  0.00    -0.056 C 
HETATM   15  C   LIG     1      24.881  23.020  21.662  1.00  0.00     0.040 C 
HETATM   16  C   LIG     1      23.699  22.691  20.712  1.00  0.00    -0.010 C 
HETATM   17  C   LIG     1      23.863  21.292  20.096  1.00  0.00     0.005 C 
HETATM   18  C   LIG     1      22.431  22.564  21.543  1.00  0.00     0.013 C 
HETATM   19  C   LIG     1      23.163  20.337  21.068  1.00  0.00     0.009 C 
HETATM   20  C   LIG     1      22.679  21.226  22.217  1.00  0.00     0.009 C 
HETATM   21  C   LIG     1      23.803  21.389  23.223  1.00  0.00    -0.018 C 
ENDBRANCH   6  14
TORSDOF 2
ENDMDL
MODEL 15
REMARK VINA RESULT:      -5.6     15.554     17.018
REMARK  2 active torsions:
REMARK  status: ('A' for Active; 'I' for Inactive)
REMARK    1  A    between atoms: C_6  and  C_7 
REMARK    2  A    between atoms: C_6  and  C_9 
ROOT
HETATM    1  O   LIG     1      28.673  26.018  24.203  1.00  0.00    -0.247 OA
HETATM    2  C   LIG     1      27.975  25.028  23.859  1.00  0.00     0.329 C 
HETATM    3  N   LIG     1      27.963  24.602  22.500  1.00  0.00    -0.278 N 
HETATM    4  N   LIG     1      27.177  24.347  24.822  1.00  0.00    -0.278 N 
HETATM    5  C   LIG     1      26.411  23.193  24.468  1.00  0.00     0.248 C 
HETATM    6  C   LIG     1      26.567  22.514  23.111  1.00  0.00     0.145 C 
HETATM    7  C   LIG     1      27.198  23.465  22.091  1.00  0.00     0.248 C 
HETATM    8  O   LIG     1      27.089  23.221  20.858  1.00  0.00    -0.271 OA
HETATM    9  O   LIG     1      25.651  22.683  25.335  1.00  0.00    -0.271 OA
HETATM   10  H   LIG     1      28.486  25.155  21.784  1.00  0.00     0.173 HD
HETATM   11  H   LIG     1      27.133  24.713  25.800  1.00  0.00     0.173 HD
ENDROOT
BRANCH   6  12
HETATM   12  C   LIG     1      27.539  21.310  23.316  1.00  0.00     0.029 C 
HETATM   13  C   LIG     1      29.034  21.663  23.260  1.00  0.00     0.007 C 
ENDBRANCH   6  12
BRANCH   6  14
HETATM   14  C   LIG     1      25.153  22.085  22.654  1.00  0.00    -0.056 C 
HETATM   15  C   LIG     1      24.105  23.132  22.231  1.00  0.00     0.040 C 
HETATM   16  C   LIG     1      22.842  22.515  21.571  1.00  0.00    -0.010 C 
HETATM   17  C   LIG     1      23.163  21.978  20.166  1.00  0.00     0.005 C 
HETATM   18  C   LIG     1      22.453  21.264  22.346  1.00  0.00     0.013 C 
HETATM   19  C   LIG     1      23.593  20.523  20.378  1.00  0.00     0.009 C 
HETATM   20  C   LIG     1      23.547  20.312  21.893  1.00  0.00     0.009 C 
HETATM   21  C   LIG     1      24.864  20.763  22.495  1.00  0.00    -0.018 C 
ENDBRANCH   6  14
TORSDOF 2
ENDMDL
MODEL 16
REMARK VINA RESULT:      -5.6     15.578     16.938
REMARK  2 active torsions:
REMARK  status: ('A' for Active; 'I' for Inactive)
REMARK    1  A    between atoms: C_6  and  C_7 
REMARK    2  A    between atoms: C_6  and  C_9 
ROOT
HETATM    1  O   LIG     1      28.709  25.922  23.788  1.00  0.00    -0.247 OA
HETATM    2  C   LIG     1      28.080  25.046  23.136  1.00  0.00     0.329 C 
HETATM    3  N   LIG     1      27.911  25.190  21.729  1.00  0.00    -0.278 N 
HETATM    4  N   LIG     1      27.516  23.924  23.806  1.00  0.00    -0.278 N 
HETATM    5  C   LIG     1      26.838  22.893  23.085  1.00  0.00     0.248 C 
HETATM    6  C   LIG     1      26.862  22.834  21.561  1.00  0.00     0.145 C 
HETATM    7  C   LIG     1      27.223  24.197  20.965  1.00  0.00     0.248 C 
HETATM    8  O   LIG     1      26.958  24.441  19.755  1.00  0.00    -0.271 OA
HETATM    9  O   LIG     1      26.277  21.969  23.735  1.00  0.00    -0.271 OA
HETATM   10  H   LIG     1      28.256  26.056  21.256  1.00  0.00     0.173 HD
HETATM   11  H   LIG     1      27.580  23.865  24.848  1.00  0.00     0.173 HD
ENDROOT
BRANCH   6  12
HETATM   12  C   LIG     1      27.980  21.820  21.165  1.00  0.00     0.029 C 
HETATM   13  C   LIG     1      29.027  22.358  20.177  1.00  0.00     0.007 C 
ENDBRANCH   6  12
BRANCH   6  14
HETATM   14  C   LIG     1      25.451  22.396  21.103  1.00  0.00    -0.056 C 
HETATM   15  C   LIG     1      25.247  21.105  20.286  1.00  0.00     0.040 C 
HETATM   16  C   LIG     1      23.758  20.696  20.131  1.00  0.00    -0.010 C 
HETATM   17  C   LIG     1      23.190  20.178  21.463  1.00  0.00     0.005 C 
HETATM   18  C   LIG     1      22.937  21.949  19.861  1.00  0.00     0.013 C 
HETATM   19  C   LIG     1      22.631  21.416  22.173  1.00  0.00     0.009 C 
HETATM   20  C   LIG     1      22.951  22.587  21.240  1.00  0.00     0.009 C 
HETATM   21  C   LIG     1      24.354  23.082  21.532  1.00  0.00    -0.018 C 
ENDBRANCH   6  14
TORSDOF 2
ENDMDL
MODEL 17
REMARK VINA RESULT:      -5.5     15.906     17.575
REMARK  2 active torsions:
REMARK  status: ('A' for Active; 'I' for Inactive)
REMARK    1  A    between atoms: C_6  and  C_7 
REMARK    2  A    between atoms: C_6  and  C_9 
ROOT
HETATM    1  O   LIG     1      27.332  19.195  24.060  1.00  0.00    -0.247 OA
HETATM    2  C   LIG     1      27.026  20.203  23.370  1.00  0.00     0.329 C 
HETATM    3  N   LIG     1      26.571  20.037  22.030  1.00  0.00    -0.278 N 
HETATM    4  N   LIG     1      27.156  21.511  23.917  1.00  0.00    -0.278 N 
HETATM    5  C   LIG     1      26.771  22.669  23.172  1.00  0.00     0.248 C 
HETATM    6  C   LIG     1      26.018  22.556  21.851  1.00  0.00     0.145 C 
HETATM    7  C   LIG     1      26.193  21.165  21.236  1.00  0.00     0.248 C 
HETATM    8  O   LIG     1      25.951  20.987  20.010  1.00  0.00    -0.271 OA
HETATM    9  O   LIG     1      26.992  23.807  23.667  1.00  0.00    -0.271 OA
HETATM   10  H   LIG     1      26.556  19.082  21.607  1.00  0.00     0.173 HD
HETATM   11  H   LIG     1      27.562  21.627  24.874  1.00  0.00     0.173 HD
ENDROOT
BRANCH   6  12
HETATM   12  C   LIG     1      24.504  22.756  22.174  1.00  0.00     0.029 C 
HETATM   13  C   LIG     1      23.775  21.501  22.680  1.00  0.00     0.007 C 
ENDBRANCH   6  12
BRANCH   6  14
HETATM   14  C   LIG     1      26.589  23.643  20.910  1.00  0.00    -0.056 C 
HETATM   15  C   LIG     1      28.101  23.731  20.625  1.00  0.00     0.040 C 
HETATM   16  C   LIG     1      28.460  24.712  19.477  1.00  0.00    -0.010 C 
HETATM   17  C   LIG     1      28.037  24.139  18.114  1.00  0.00     0.005 C 
HETATM   18  C   LIG     1      27.601  25.959  19.617  1.00  0.00     0.013 C 
HETATM   19  C   LIG     1      26.602  24.631  17.896  1.00  0.00     0.009 C 
HETATM   20  C   LIG     1      26.256  25.417  19.164  1.00  0.00     0.009 C 
HETATM   21  C   LIG     1      25.741  24.454  20.216  1.00  0.00    -0.018 C 
ENDBRANCH   6  14
TORSDOF 2
ENDMDL
MODEL 18
REMARK VINA RESULT:      -5.5     18.272     19.983
REMARK  2 active torsions:
REMARK  status: ('A' for Active; 'I' for Inactive)
REMARK    1  A    between atoms: C_6  and  C_7 
REMARK    2  A    between atoms: C_6  and  C_9 
ROOT
HETATM    1  O   LIG     1      19.400  20.386  30.597  1.00  0.00    -0.247 OA
HETATM    2  C   LIG     1      19.806  20.530  31.780  1.00  0.00     0.329 C 
HETATM    3  N   LIG     1      19.810  21.822  32.379  1.00  0.00    -0.278 N 
HETATM    4  N   LIG     1      20.284  19.407  32.513  1.00  0.00    -0.278 N 
HETATM    5  C   LIG     1      20.707  19.535  33.873  1.00  0.00     0.248 C 
HETATM    6  C   LIG     1      20.478  20.817  34.666  1.00  0.00     0.145 C 
HETATM    7  C   LIG     1      20.243  22.006  33.730  1.00  0.00     0.248 C 
HETATM    8  O   LIG     1      20.382  23.182  34.166  1.00  0.00    -0.271 OA
HETATM    9  O   LIG     1      21.207  18.529  34.447  1.00  0.00    -0.271 OA
HETATM   10  H   LIG     1      19.536  22.654  31.809  1.00  0.00     0.173 HD
HETATM   11  H   LIG     1      20.348  18.477  32.041  1.00  0.00     0.173 HD
ENDROOT
BRANCH   6  12
HETATM   12  C   LIG     1      19.182  20.602  35.510  1.00  0.00     0.029 C 
HETATM   13  C   LIG     1      18.597  19.182  35.454  1.00  0.00     0.007 C 
ENDBRANCH   6  12
BRANCH   6  14
HETATM   14  C   LIG     1      21.739  21.046  35.531  1.00  0.00    -0.056 C 
HETATM   15  C   LIG     1      23.106  21.331  34.881  1.00  0.00     0.040 C 
HETATM   16  C   LIG     1      24.195  21.778  35.893  1.00  0.00    -0.010 C 
HETATM   17  C   LIG     1      23.918  23.203  36.402  1.00  0.00     0.005 C 
HETATM   18  C   LIG     1      24.070  20.926  37.147  1.00  0.00     0.013 C 
HETATM   19  C   LIG     1      23.036  23.026  37.642  1.00  0.00     0.009 C 
HETATM   20  C   LIG     1      22.808  21.516  37.754  1.00  0.00     0.009 C 
HETATM   21  C   LIG     1      21.625  21.130  36.887  1.00  0.00    -0.018 C 
ENDBRANCH   6  14
TORSDOF 2
ENDMDL
MODEL 19
REMARK VINA RESULT:      -5.4     17.669     19.029
REMARK  2 active torsions:
REMARK  status: ('A' for Active; 'I' for Inactive)
REMARK    1  A    between atoms: C_6  and  C_7 
REMARK    2  A    between atoms: C_6  and  C_9 
ROOT
HETATM    1  O   LIG     1      22.453  19.132  28.305  1.00  0.00    -0.247 OA
HETATM    2  C   LIG     1      21.864  19.380  29.391  1.00  0.00     0.329 C 
HETATM    3  N   LIG     1      20.522  19.855  29.381  1.00  0.00    -0.278 N 
HETATM    4  N   LIG     1      22.547  19.211  30.629  1.00  0.00    -0.278 N 
HETATM    5  C   LIG     1      21.888  19.440  31.877  1.00  0.00     0.248 C 
HETATM    6  C   LIG     1      20.383  19.674  31.956  1.00  0.00     0.145 C 
HETATM    7  C   LIG     1      19.825  20.119  30.602  1.00  0.00     0.248 C 
HETATM    8  O   LIG     1      18.700  20.687  30.545  1.00  0.00    -0.271 OA
HETATM    9  O   LIG     1      22.563  19.365  32.940  1.00  0.00    -0.271 OA
HETATM   10  H   LIG     1      20.054  20.055  28.468  1.00  0.00     0.173 HD
HETATM   11  H   LIG     1      23.556  18.935  30.623  1.00  0.00     0.173 HD
ENDROOT
BRANCH   6  12
HETATM   12  C   LIG     1      19.731  18.304  32.323  1.00  0.00     0.029 C 
HETATM   13  C   LIG     1      18.271  18.138  31.876  1.00  0.00     0.007 C 
ENDBRANCH   6  12
BRANCH   6  14
HETATM   14  C   LIG     1      20.151  20.766  33.026  1.00  0.00    -0.056 C 
HETATM   15  C   LIG     1      19.829  20.392  34.486  1.00  0.00     0.040 C 
HETATM   16  C   LIG     1      19.874  21.598  35.462  1.00  0.00    -0.010 C 
HETATM   17  C   LIG     1      21.322  22.063  35.693  1.00  0.00     0.005 C 
HETATM   18  C   LIG     1      19.224  22.794  34.783  1.00  0.00     0.013 C 
HETATM   19  C   LIG     1      21.588  23.111  34.607  1.00  0.00     0.009 C 
HETATM   20  C   LIG     1      20.302  23.158  33.777  1.00  0.00     0.009 C 
HETATM   21  C   LIG     1      20.360  22.077  32.715  1.00  0.00    -0.018 C 
ENDBRANCH   6  14
TORSDOF 2
ENDMDL
MODEL 20
REMARK VINA RESULT:      -5.4     15.951     17.575
REMARK  2 active torsions:
REMARK  status: ('A' for Active; 'I' for Inactive)
REMARK    1  A    between atoms: C_6  and  C_7 
REMARK    2  A    between atoms: C_6  and  C_9 
ROOT
HETATM    1  O   LIG     1      30.602  21.875  23.174  1.00  0.00    -0.247 OA
HETATM    2  C   LIG     1      29.464  22.062  22.665  1.00  0.00     0.329 C 
HETATM    3  N   LIG     1      28.420  22.632  23.446  1.00  0.00    -0.278 N 
HETATM    4  N   LIG     1      29.214  21.680  21.317  1.00  0.00    -0.278 N 
HETATM    5  C   LIG     1      27.947  21.922  20.700  1.00  0.00     0.248 C 
HETATM    6  C   LIG     1      26.879  22.777  21.375  1.00  0.00     0.145 C 
HETATM    7  C   LIG     1      27.128  22.877  22.882  1.00  0.00     0.248 C 
HETATM    8  O   LIG     1      26.191  23.232  23.649  1.00  0.00    -0.271 OA
HETATM    9  O   LIG     1      27.747  21.483  19.535  1.00  0.00    -0.271 OA
HETATM   10  H   LIG     1      28.586  22.835  24.458  1.00  0.00     0.173 HD
HETATM   11  H   LIG     1      29.964  21.193  20.775  1.00  0.00     0.173 HD
ENDROOT
BRANCH   6  12
HETATM   12  C   LIG     1      26.996  24.210  20.769  1.00  0.00     0.029 C 
HETATM   13  C   LIG     1      28.112  25.081  21.367  1.00  0.00     0.007 C 
ENDBRANCH   6  12
BRANCH   6  14
HETATM   14  C   LIG     1      25.515  22.104  21.092  1.00  0.00    -0.056 C 
HETATM   15  C   LIG     1      25.156  20.744  21.719  1.00  0.00     0.040 C 
HETATM   16  C   LIG     1      23.668  20.345  21.529  1.00  0.00    -0.010 C 
HETATM   17  C   LIG     1      22.751  21.214  22.405  1.00  0.00     0.005 C 
HETATM   18  C   LIG     1      23.247  20.706  20.112  1.00  0.00     0.013 C 
HETATM   19  C   LIG     1      22.392  22.426  21.538  1.00  0.00     0.009 C 
HETATM   20  C   LIG     1      23.160  22.218  20.230  1.00  0.00     0.009 C 
HETATM   21  C   LIG     1      24.561  22.776  20.386  1.00  0.00    -0.018 C 
ENDBRANCH   6  14
TORSDOF 2
ENDMDL
