MODEL 1
REMARK VINA RESULT:      -8.3      0.000      0.000
REMARK  6 active torsions:
REMARK  status: ('A' for Active; 'I' for Inactive)
REMARK    1  A    between atoms: O_1  and  C_2 
REMARK    2  A    between atoms: C_2  and  C_3 
REMARK    3  A    between atoms: C_3  and  C_4 
REMARK    4  A    between atoms: C_4  and  C_5 
REMARK    5  A    between atoms: C_5  and  C_6 
REMARK    6  A    between atoms: C_9  and  C_10 
ROOT
HETATM    1  C   LIG     1      15.404  34.379  19.961  1.00  0.00     0.010 A 
HETATM    2  C   LIG     1      15.315  32.981  20.078  1.00  0.00     0.016 A 
HETATM    3  C   LIG     1      15.148  32.183  18.943  1.00  0.00     0.013 A 
HETATM    4  C   LIG     1      15.072  32.764  17.665  1.00  0.00    -0.026 A 
HETATM    5  C   LIG     1      15.176  34.160  17.548  1.00  0.00     0.013 A 
HETATM    6  C   LIG     1      15.346  34.958  18.683  1.00  0.00     0.016 A 
ENDROOT
BRANCH   1   7
HETATM    7  C   LIG     1      15.591  35.244  21.151  1.00  0.00     0.160 C 
HETATM    8  O   LIG     1      14.641  35.985  21.522  1.00  0.00    -0.292 OA
BRANCH   7   9
HETATM    9  C   LIG     1      16.880  35.263  21.937  1.00  0.00     0.094 C 
BRANCH   9  10
HETATM   10  C   LIG     1      17.302  36.690  22.315  1.00  0.00     0.117 C 
BRANCH  10  11
HETATM   11  C   LIG     1      16.840  37.072  23.691  1.00  0.00     0.139 C 
HETATM   12  O   LIG     1      17.468  36.663  24.702  1.00  0.00    -0.650 OA
BRANCH  11  13
HETATM   13  O   LIG     1      15.710  37.866  23.862  1.00  0.00    -0.776 OA
HETATM   14  H   LIG     1      14.795  37.546  23.565  1.00  0.00     0.167 HD
ENDBRANCH  11  13
ENDBRANCH  10  11
ENDBRANCH   9  10
ENDBRANCH   7   9
ENDBRANCH   1   7
BRANCH   4  15
HETATM   15  C   LIG     1      14.893  31.916  16.459  1.00  0.00    -0.026 A 
HETATM   16  C   LIG     1      13.811  31.019  16.367  1.00  0.00     0.012 A 
HETATM   17  C   LIG     1      13.646  30.222  15.230  1.00  0.00     0.001 A 
HETATM   18  C   LIG     1      14.555  30.310  14.174  1.00  0.00     0.000 A 
HETATM   19  C   LIG     1      15.633  31.196  14.252  1.00  0.00     0.001 A 
HETATM   20  C   LIG     1      15.802  31.995  15.387  1.00  0.00     0.012 A 
ENDBRANCH   4  15
TORSDOF 6
ENDMDL
MODEL 2
REMARK VINA RESULT:      -8.3      0.527      1.656
REMARK  6 active torsions:
REMARK  status: ('A' for Active; 'I' for Inactive)
REMARK    1  A    between atoms: O_1  and  C_2 
REMARK    2  A    between atoms: C_2  and  C_3 
REMARK    3  A    between atoms: C_3  and  C_4 
REMARK    4  A    between atoms: C_4  and  C_5 
REMARK    5  A    between atoms: C_5  and  C_6 
REMARK    6  A    between atoms: C_9  and  C_10 
ROOT
HETATM    1  C   LIG     1      15.469  34.197  19.957  1.00  0.00     0.010 A 
HETATM    2  C   LIG     1      15.444  34.800  18.688  1.00  0.00     0.016 A 
HETATM    3  C   LIG     1      15.234  34.030  17.540  1.00  0.00     0.013 A 
HETATM    4  C   LIG     1      15.038  32.641  17.637  1.00  0.00    -0.026 A 
HETATM    5  C   LIG     1      15.050  32.042  18.907  1.00  0.00     0.013 A 
HETATM    6  C   LIG     1      15.256  32.812  20.054  1.00  0.00     0.016 A 
ENDROOT
BRANCH   1   7
HETATM    7  C   LIG     1      15.680  34.996  21.188  1.00  0.00     0.160 C 
HETATM    8  O   LIG     1      14.690  35.254  21.925  1.00  0.00    -0.292 OA
BRANCH   7   9
HETATM    9  C   LIG     1      17.043  35.506  21.593  1.00  0.00     0.094 C 
BRANCH   9  10
HETATM   10  C   LIG     1      17.096  37.040  21.630  1.00  0.00     0.117 C 
BRANCH  10  11
HETATM   11  C   LIG     1      16.581  37.593  22.928  1.00  0.00     0.139 C 
HETATM   12  O   LIG     1      17.326  37.614  23.942  1.00  0.00    -0.650 OA
BRANCH  11  13
HETATM   13  O   LIG     1      15.278  38.071  23.025  1.00  0.00    -0.776 OA
HETATM   14  H   LIG     1      15.056  38.875  23.600  1.00  0.00     0.167 HD
ENDBRANCH  11  13
ENDBRANCH  10  11
ENDBRANCH   9  10
ENDBRANCH   7   9
ENDBRANCH   1   7
BRANCH   4  15
HETATM   15  C   LIG     1      14.817  31.823  16.417  1.00  0.00    -0.026 A 
HETATM   16  C   LIG     1      15.702  31.910  15.325  1.00  0.00     0.012 A 
HETATM   17  C   LIG     1      15.490  31.138  14.178  1.00  0.00     0.001 A 
HETATM   18  C   LIG     1      14.396  30.273  14.108  1.00  0.00     0.000 A 
HETATM   19  C   LIG     1      13.511  30.177  15.184  1.00  0.00     0.001 A 
HETATM   20  C   LIG     1      13.719  30.946  16.333  1.00  0.00     0.012 A 
ENDBRANCH   4  15
TORSDOF 6
ENDMDL
MODEL 3
REMARK VINA RESULT:      -8.1      2.907      8.357
REMARK  6 active torsions:
REMARK  status: ('A' for Active; 'I' for Inactive)
REMARK    1  A    between atoms: O_1  and  C_2 
REMARK    2  A    between atoms: C_2  and  C_3 
REMARK    3  A    between atoms: C_3  and  C_4 
REMARK    4  A    between atoms: C_4  and  C_5 
REMARK    5  A    between atoms: C_5  and  C_6 
REMARK    6  A    between atoms: C_9  and  C_10 
ROOT
HETATM    1  C   LIG     1      15.876  34.598  19.795  1.00  0.00     0.010 A 
HETATM    2  C   LIG     1      16.829  35.624  19.908  1.00  0.00     0.016 A 
HETATM    3  C   LIG     1      17.228  36.086  21.165  1.00  0.00     0.013 A 
HETATM    4  C   LIG     1      16.688  35.529  22.337  1.00  0.00    -0.026 A 
HETATM    5  C   LIG     1      15.746  34.493  22.223  1.00  0.00     0.013 A 
HETATM    6  C   LIG     1      15.349  34.029  20.967  1.00  0.00     0.016 A 
ENDROOT
BRANCH   1   7
HETATM    7  C   LIG     1      15.445  34.085  18.473  1.00  0.00     0.160 C 
HETATM    8  O   LIG     1      15.448  34.867  17.484  1.00  0.00    -0.292 OA
BRANCH   7   9
HETATM    9  C   LIG     1      15.007  32.654  18.268  1.00  0.00     0.094 C 
BRANCH   9  10
HETATM   10  C   LIG     1      14.826  32.314  16.782  1.00  0.00     0.117 C 
BRANCH  10  11
HETATM   11  C   LIG     1      13.627  31.443  16.542  1.00  0.00     0.139 C 
HETATM   12  O   LIG     1      13.700  30.480  15.734  1.00  0.00    -0.650 OA
BRANCH  11  13
HETATM   13  O   LIG     1      12.425  31.700  17.194  1.00  0.00    -0.776 OA
HETATM   14  H   LIG     1      12.111  31.119  17.963  1.00  0.00     0.167 HD
ENDBRANCH  11  13
ENDBRANCH  10  11
ENDBRANCH   9  10
ENDBRANCH   7   9
ENDBRANCH   1   7
BRANCH   4  15
HETATM   15  C   LIG     1      17.111  36.022  23.674  1.00  0.00    -0.026 A 
HETATM   16  C   LIG     1      17.426  35.116  24.704  1.00  0.00     0.012 A 
HETATM   17  C   LIG     1      17.823  35.583  25.962  1.00  0.00     0.001 A 
HETATM   18  C   LIG     1      17.911  36.956  26.203  1.00  0.00     0.000 A 
HETATM   19  C   LIG     1      17.602  37.865  25.188  1.00  0.00     0.001 A 
HETATM   20  C   LIG     1      17.204  37.403  23.931  1.00  0.00     0.012 A 
ENDBRANCH   4  15
TORSDOF 6
ENDMDL
MODEL 4
REMARK VINA RESULT:      -7.8      3.907      8.285
REMARK  6 active torsions:
REMARK  status: ('A' for Active; 'I' for Inactive)
REMARK    1  A    between atoms: O_1  and  C_2 
REMARK    2  A    between atoms: C_2  and  C_3 
REMARK    3  A    between atoms: C_3  and  C_4 
REMARK    4  A    between atoms: C_4  and  C_5 
REMARK    5  A    between atoms: C_5  and  C_6 
REMARK    6  A    between atoms: C_9  and  C_10 
ROOT
HETATM    1  C   LIG     1      14.736  32.489  17.909  1.00  0.00     0.010 A 
HETATM    2  C   LIG     1      14.971  33.789  17.431  1.00  0.00     0.016 A 
HETATM    3  C   LIG     1      15.435  34.789  18.290  1.00  0.00     0.013 A 
HETATM    4  C   LIG     1      15.680  34.509  19.646  1.00  0.00    -0.026 A 
HETATM    5  C   LIG     1      15.458  33.205  20.120  1.00  0.00     0.013 A 
HETATM    6  C   LIG     1      14.998  32.205  19.260  1.00  0.00     0.016 A 
ENDROOT
BRANCH   1   7
HETATM    7  C   LIG     1      14.253  31.411  17.013  1.00  0.00     0.160 C 
HETATM    8  O   LIG     1      13.462  30.543  17.473  1.00  0.00    -0.292 OA
BRANCH   7   9
HETATM    9  C   LIG     1      14.673  31.319  15.565  1.00  0.00     0.094 C 
BRANCH   9  10
HETATM   10  C   LIG     1      14.115  30.062  14.883  1.00  0.00     0.117 C 
BRANCH  10  11
HETATM   11  C   LIG     1      15.020  29.559  13.795  1.00  0.00     0.139 C 
HETATM   12  O   LIG     1      15.891  30.320  13.299  1.00  0.00    -0.650 OA
BRANCH  11  13
HETATM   13  O   LIG     1      14.895  28.258  13.318  1.00  0.00    -0.776 OA
HETATM   14  H   LIG     1      15.636  27.579  13.447  1.00  0.00     0.167 HD
ENDBRANCH  11  13
ENDBRANCH  10  11
ENDBRANCH   9  10
ENDBRANCH   7   9
ENDBRANCH   1   7
BRANCH   4  15
HETATM   15  C   LIG     1      16.171  35.572  20.561  1.00  0.00    -0.026 A 
HETATM   16  C   LIG     1      17.447  36.140  20.378  1.00  0.00     0.012 A 
HETATM   17  C   LIG     1      17.907  37.141  21.241  1.00  0.00     0.001 A 
HETATM   18  C   LIG     1      17.101  37.584  22.293  1.00  0.00     0.000 A 
HETATM   19  C   LIG     1      15.834  37.028  22.484  1.00  0.00     0.001 A 
HETATM   20  C   LIG     1      15.370  36.028  21.624  1.00  0.00     0.012 A 
ENDBRANCH   4  15
TORSDOF 6
ENDMDL
MODEL 5
REMARK VINA RESULT:      -7.4      3.373      7.752
REMARK  6 active torsions:
REMARK  status: ('A' for Active; 'I' for Inactive)
REMARK    1  A    between atoms: O_1  and  C_2 
REMARK    2  A    between atoms: C_2  and  C_3 
REMARK    3  A    between atoms: C_3  and  C_4 
REMARK    4  A    between atoms: C_4  and  C_5 
REMARK    5  A    between atoms: C_5  and  C_6 
REMARK    6  A    between atoms: C_9  and  C_10 
ROOT
HETATM    1  C   LIG     1      15.209  33.526  19.234  1.00  0.00     0.010 A 
HETATM    2  C   LIG     1      15.062  33.151  20.580  1.00  0.00     0.016 A 
HETATM    3  C   LIG     1      15.531  33.979  21.604  1.00  0.00     0.013 A 
HETATM    4  C   LIG     1      16.152  35.204  21.304  1.00  0.00    -0.026 A 
HETATM    5  C   LIG     1      16.286  35.585  19.959  1.00  0.00     0.013 A 
HETATM    6  C   LIG     1      15.815  34.758  18.936  1.00  0.00     0.016 A 
ENDROOT
BRANCH   1   7
HETATM    7  C   LIG     1      14.711  32.668  18.133  1.00  0.00     0.160 C 
HETATM    8  O   LIG     1      14.338  31.492  18.396  1.00  0.00    -0.292 OA
BRANCH   7   9
HETATM    9  C   LIG     1      14.628  33.156  16.706  1.00  0.00     0.094 C 
BRANCH   9  10
HETATM   10  C   LIG     1      15.628  32.434  15.792  1.00  0.00     0.117 C 
BRANCH  10  11
HETATM   11  C   LIG     1      16.827  33.282  15.482  1.00  0.00     0.139 C 
HETATM   12  O   LIG     1      16.742  34.537  15.534  1.00  0.00    -0.650 OA
BRANCH  11  13
HETATM   13  O   LIG     1      18.035  32.693  15.120  1.00  0.00    -0.776 OA
HETATM   14  H   LIG     1      18.059  31.840  14.573  1.00  0.00     0.167 HD
ENDBRANCH  11  13
ENDBRANCH  10  11
ENDBRANCH   9  10
ENDBRANCH   7   9
ENDBRANCH   1   7
BRANCH   4  15
HETATM   15  C   LIG     1      16.652  36.084  22.392  1.00  0.00    -0.026 A 
HETATM   16  C   LIG     1      16.854  37.459  22.166  1.00  0.00     0.012 A 
HETATM   17  C   LIG     1      17.325  38.284  23.192  1.00  0.00     0.001 A 
HETATM   18  C   LIG     1      17.600  37.748  24.452  1.00  0.00     0.000 A 
HETATM   19  C   LIG     1      17.404  36.385  24.689  1.00  0.00     0.001 A 
HETATM   20  C   LIG     1      16.933  35.557  23.667  1.00  0.00     0.012 A 
ENDBRANCH   4  15
TORSDOF 6
ENDMDL
MODEL 6
REMARK VINA RESULT:      -7.3      3.380      8.057
REMARK  6 active torsions:
REMARK  status: ('A' for Active; 'I' for Inactive)
REMARK    1  A    between atoms: O_1  and  C_2 
REMARK    2  A    between atoms: C_2  and  C_3 
REMARK    3  A    between atoms: C_3  and  C_4 
REMARK    4  A    between atoms: C_4  and  C_5 
REMARK    5  A    between atoms: C_5  and  C_6 
REMARK    6  A    between atoms: C_9  and  C_10 
ROOT
HETATM    1  C   LIG     1      15.231  33.222  19.285  1.00  0.00     0.010 A 
HETATM    2  C   LIG     1      15.398  33.186  20.680  1.00  0.00     0.016 A 
HETATM    3  C   LIG     1      15.943  34.280  21.358  1.00  0.00     0.013 A 
HETATM    4  C   LIG     1      16.327  35.437  20.658  1.00  0.00    -0.026 A 
HETATM    5  C   LIG     1      16.145  35.477  19.265  1.00  0.00     0.013 A 
HETATM    6  C   LIG     1      15.598  34.385  18.588  1.00  0.00     0.016 A 
ENDROOT
BRANCH   1   7
HETATM    7  C   LIG     1      14.646  32.078  18.547  1.00  0.00     0.160 C 
HETATM    8  O   LIG     1      14.286  31.055  19.191  1.00  0.00    -0.292 OA
BRANCH   7   9
HETATM    9  C   LIG     1      14.461  32.097  17.048  1.00  0.00     0.094 C 
BRANCH   9  10
HETATM   10  C   LIG     1      13.285  31.217  16.602  1.00  0.00     0.117 C 
BRANCH  10  11
HETATM   11  C   LIG     1      13.579  30.481  15.326  1.00  0.00     0.139 C 
HETATM   12  O   LIG     1      14.653  30.700  14.707  1.00  0.00    -0.650 OA
BRANCH  11  13
HETATM   13  O   LIG     1      12.666  29.567  14.811  1.00  0.00    -0.776 OA
HETATM   14  H   LIG     1      12.656  28.603  15.122  1.00  0.00     0.167 HD
ENDBRANCH  11  13
ENDBRANCH  10  11
ENDBRANCH   9  10
ENDBRANCH   7   9
ENDBRANCH   1   7
BRANCH   4  15
HETATM   15  C   LIG     1      16.908  36.599  21.378  1.00  0.00    -0.026 A 
HETATM   16  C   LIG     1      16.476  36.924  22.679  1.00  0.00     0.012 A 
HETATM   17  C   LIG     1      17.025  38.019  23.354  1.00  0.00     0.001 A 
HETATM   18  C   LIG     1      18.007  38.800  22.741  1.00  0.00     0.000 A 
HETATM   19  C   LIG     1      18.444  38.487  21.452  1.00  0.00     0.001 A 
HETATM   20  C   LIG     1      17.899  37.394  20.773  1.00  0.00     0.012 A 
ENDBRANCH   4  15
TORSDOF 6
ENDMDL
MODEL 7
REMARK VINA RESULT:      -7.1      3.886      7.543
REMARK  6 active torsions:
REMARK  status: ('A' for Active; 'I' for Inactive)
REMARK    1  A    between atoms: O_1  and  C_2 
REMARK    2  A    between atoms: C_2  and  C_3 
REMARK    3  A    between atoms: C_3  and  C_4 
REMARK    4  A    between atoms: C_4  and  C_5 
REMARK    5  A    between atoms: C_5  and  C_6 
REMARK    6  A    between atoms: C_9  and  C_10 
ROOT
HETATM    1  C   LIG     1      14.795  32.534  17.398  1.00  0.00     0.010 A 
HETATM    2  C   LIG     1      14.945  33.925  17.269  1.00  0.00     0.016 A 
HETATM    3  C   LIG     1      15.263  34.711  18.379  1.00  0.00     0.013 A 
HETATM    4  C   LIG     1      15.446  34.124  19.643  1.00  0.00    -0.026 A 
HETATM    5  C   LIG     1      15.311  32.731  19.768  1.00  0.00     0.013 A 
HETATM    6  C   LIG     1      14.995  31.945  18.658  1.00  0.00     0.016 A 
ENDROOT
BRANCH   1   7
HETATM    7  C   LIG     1      14.468  31.680  16.232  1.00  0.00     0.160 C 
HETATM    8  O   LIG     1      13.330  31.138  16.172  1.00  0.00    -0.292 OA
BRANCH   7   9
HETATM    9  C   LIG     1      15.448  31.439  15.109  1.00  0.00     0.094 C 
BRANCH   9  10
HETATM   10  C   LIG     1      16.765  32.200  15.321  1.00  0.00     0.117 C 
BRANCH  10  11
HETATM   11  C   LIG     1      17.111  33.071  14.149  1.00  0.00     0.139 C 
HETATM   12  O   LIG     1      17.304  34.304  14.315  1.00  0.00    -0.650 OA
BRANCH  11  13
HETATM   13  O   LIG     1      17.207  32.530  12.870  1.00  0.00    -0.776 OA
HETATM   14  H   LIG     1      16.397  32.139  12.405  1.00  0.00     0.167 HD
ENDBRANCH  11  13
ENDBRANCH  10  11
ENDBRANCH   9  10
ENDBRANCH   7   9
ENDBRANCH   1   7
BRANCH   4  15
HETATM   15  C   LIG     1      15.783  34.959  20.824  1.00  0.00    -0.026 A 
HETATM   16  C   LIG     1      14.968  36.050  21.186  1.00  0.00     0.012 A 
HETATM   17  C   LIG     1      15.289  36.835  22.298  1.00  0.00     0.001 A 
HETATM   18  C   LIG     1      16.422  36.542  23.060  1.00  0.00     0.000 A 
HETATM   19  C   LIG     1      17.237  35.462  22.712  1.00  0.00     0.001 A 
HETATM   20  C   LIG     1      16.921  34.675  21.601  1.00  0.00     0.012 A 
ENDBRANCH   4  15
TORSDOF 6
ENDMDL
MODEL 8
REMARK VINA RESULT:      -7.1      5.183      8.141
REMARK  6 active torsions:
REMARK  status: ('A' for Active; 'I' for Inactive)
REMARK    1  A    between atoms: O_1  and  C_2 
REMARK    2  A    between atoms: C_2  and  C_3 
REMARK    3  A    between atoms: C_3  and  C_4 
REMARK    4  A    between atoms: C_4  and  C_5 
REMARK    5  A    between atoms: C_5  and  C_6 
REMARK    6  A    between atoms: C_9  and  C_10 
ROOT
HETATM    1  C   LIG     1      15.808  32.631  15.220  1.00  0.00     0.010 A 
HETATM    2  C   LIG     1      16.665  33.684  15.582  1.00  0.00     0.016 A 
HETATM    3  C   LIG     1      17.663  34.120  14.706  1.00  0.00     0.013 A 
HETATM    4  C   LIG     1      17.823  33.518  13.446  1.00  0.00    -0.026 A 
HETATM    5  C   LIG     1      16.956  32.475  13.080  1.00  0.00     0.013 A 
HETATM    6  C   LIG     1      15.956  32.041  13.954  1.00  0.00     0.016 A 
ENDROOT
BRANCH   1   7
HETATM    7  C   LIG     1      14.736  32.159  16.128  1.00  0.00     0.160 C 
HETATM    8  O   LIG     1      14.164  32.992  16.883  1.00  0.00    -0.292 OA
BRANCH   7   9
HETATM    9  C   LIG     1      14.301  30.714  16.178  1.00  0.00     0.094 C 
BRANCH   9  10
HETATM   10  C   LIG     1      13.077  30.450  15.290  1.00  0.00     0.117 C 
BRANCH  10  11
HETATM   11  C   LIG     1      13.299  29.305  14.344  1.00  0.00     0.139 C 
HETATM   12  O   LIG     1      14.470  28.926  14.078  1.00  0.00    -0.650 OA
BRANCH  11  13
HETATM   13  O   LIG     1      12.219  28.665  13.743  1.00  0.00    -0.776 OA
HETATM   14  H   LIG     1      11.272  28.816  14.070  1.00  0.00     0.167 HD
ENDBRANCH  11  13
ENDBRANCH  10  11
ENDBRANCH   9  10
ENDBRANCH   7   9
ENDBRANCH   1   7
BRANCH   4  15
HETATM   15  C   LIG     1      18.885  33.980  12.516  1.00  0.00    -0.026 A 
HETATM   16  C   LIG     1      18.550  34.531  11.264  1.00  0.00     0.012 A 
HETATM   17  C   LIG     1      19.553  34.965  10.390  1.00  0.00     0.001 A 
HETATM   18  C   LIG     1      20.896  34.855  10.755  1.00  0.00     0.000 A 
HETATM   19  C   LIG     1      21.241  34.310  11.995  1.00  0.00     0.001 A 
HETATM   20  C   LIG     1      20.243  33.875  12.871  1.00  0.00     0.012 A 
ENDBRANCH   4  15
TORSDOF 6
ENDMDL
MODEL 9
REMARK VINA RESULT:      -7.0      4.209      6.496
REMARK  6 active torsions:
REMARK  status: ('A' for Active; 'I' for Inactive)
REMARK    1  A    between atoms: O_1  and  C_2 
REMARK    2  A    between atoms: C_2  and  C_3 
REMARK    3  A    between atoms: C_3  and  C_4 
REMARK    4  A    between atoms: C_4  and  C_5 
REMARK    5  A    between atoms: C_5  and  C_6 
REMARK    6  A    between atoms: C_9  and  C_10 
ROOT
HETATM    1  C   LIG     1      15.708  32.205  15.021  1.00  0.00     0.010 A 
HETATM    2  C   LIG     1      16.559  33.204  15.522  1.00  0.00     0.016 A 
HETATM    3  C   LIG     1      17.575  33.737  14.723  1.00  0.00     0.013 A 
HETATM    4  C   LIG     1      17.758  33.288  13.404  1.00  0.00    -0.026 A 
HETATM    5  C   LIG     1      16.897  32.299  12.900  1.00  0.00     0.013 A 
HETATM    6  C   LIG     1      15.880  31.768  13.697  1.00  0.00     0.016 A 
ENDROOT
BRANCH   1   7
HETATM    7  C   LIG     1      14.618  31.632  15.847  1.00  0.00     0.160 C 
HETATM    8  O   LIG     1      14.206  30.468  15.591  1.00  0.00    -0.292 OA
BRANCH   7   9
HETATM    9  C   LIG     1      13.987  32.394  16.988  1.00  0.00     0.094 C 
BRANCH   9  10
HETATM   10  C   LIG     1      14.514  31.927  18.353  1.00  0.00     0.117 C 
BRANCH  10  11
HETATM   11  C   LIG     1      15.313  32.992  19.046  1.00  0.00     0.139 C 
HETATM   12  O   LIG     1      15.941  32.720  20.103  1.00  0.00    -0.650 OA
BRANCH  11  13
HETATM   13  O   LIG     1      15.355  34.287  18.539  1.00  0.00    -0.776 OA
HETATM   14  H   LIG     1      16.124  34.597  17.957  1.00  0.00     0.167 HD
ENDBRANCH  11  13
ENDBRANCH  10  11
ENDBRANCH   9  10
ENDBRANCH   7   9
ENDBRANCH   1   7
BRANCH   4  15
HETATM   15  C   LIG     1      18.838  33.853  12.556  1.00  0.00    -0.026 A 
HETATM   16  C   LIG     1      18.535  34.470  11.326  1.00  0.00     0.012 A 
HETATM   17  C   LIG     1      19.555  35.001  10.530  1.00  0.00     0.001 A 
HETATM   18  C   LIG     1      20.885  34.923  10.950  1.00  0.00     0.000 A 
HETATM   19  C   LIG     1      21.198  34.315  12.168  1.00  0.00     0.001 A 
HETATM   20  C   LIG     1      20.182  33.782  12.967  1.00  0.00     0.012 A 
ENDBRANCH   4  15
TORSDOF 6
ENDMDL
MODEL 10
REMARK VINA RESULT:      -6.7      5.099      9.119
REMARK  6 active torsions:
REMARK  status: ('A' for Active; 'I' for Inactive)
REMARK    1  A    between atoms: O_1  and  C_2 
REMARK    2  A    between atoms: C_2  and  C_3 
REMARK    3  A    between atoms: C_3  and  C_4 
REMARK    4  A    between atoms: C_4  and  C_5 
REMARK    5  A    between atoms: C_5  and  C_6 
REMARK    6  A    between atoms: C_9  and  C_10 
ROOT
HETATM    1  C   LIG     1      14.418  30.776  15.442  1.00  0.00     0.010 A 
HETATM    2  C   LIG     1      15.456  31.722  15.396  1.00  0.00     0.016 A 
HETATM    3  C   LIG     1      15.710  32.551  16.492  1.00  0.00     0.013 A 
HETATM    4  C   LIG     1      14.935  32.449  17.661  1.00  0.00    -0.026 A 
HETATM    5  C   LIG     1      13.907  31.493  17.710  1.00  0.00     0.013 A 
HETATM    6  C   LIG     1      13.656  30.662  16.616  1.00  0.00     0.016 A 
ENDROOT
BRANCH   1   7
HETATM    7  C   LIG     1      14.138  29.879  14.295  1.00  0.00     0.160 C 
HETATM    8  O   LIG     1      15.045  29.679  13.441  1.00  0.00    -0.292 OA
BRANCH   7   9
HETATM    9  C   LIG     1      12.805  29.193  14.117  1.00  0.00     0.094 C 
BRANCH   9  10
HETATM   10  C   LIG     1      12.965  27.704  13.778  1.00  0.00     0.117 C 
BRANCH  10  11
HETATM   11  C   LIG     1      11.800  27.173  12.993  1.00  0.00     0.139 C 
HETATM   12  O   LIG     1      11.484  25.958  13.079  1.00  0.00    -0.650 OA
BRANCH  11  13
HETATM   13  O   LIG     1      11.073  28.012  12.154  1.00  0.00    -0.776 OA
HETATM   14  H   LIG     1      11.198  29.017  12.181  1.00  0.00     0.167 HD
ENDBRANCH  11  13
ENDBRANCH  10  11
ENDBRANCH   9  10
ENDBRANCH   7   9
ENDBRANCH   1   7
BRANCH   4  15
HETATM   15  C   LIG     1      15.203  33.331  18.825  1.00  0.00    -0.026 A 
HETATM   16  C   LIG     1      15.642  34.656  18.635  1.00  0.00     0.012 A 
HETATM   17  C   LIG     1      15.894  35.484  19.734  1.00  0.00     0.001 A 
HETATM   18  C   LIG     1      15.711  35.001  21.031  1.00  0.00     0.000 A 
HETATM   19  C   LIG     1      15.276  33.689  21.234  1.00  0.00     0.001 A 
HETATM   20  C   LIG     1      15.023  32.858  20.139  1.00  0.00     0.012 A 
ENDBRANCH   4  15
TORSDOF 6
ENDMDL
MODEL 11
REMARK VINA RESULT:      -6.7      6.197      7.785
REMARK  6 active torsions:
REMARK  status: ('A' for Active; 'I' for Inactive)
REMARK    1  A    between atoms: O_1  and  C_2 
REMARK    2  A    between atoms: C_2  and  C_3 
REMARK    3  A    between atoms: C_3  and  C_4 
REMARK    4  A    between atoms: C_4  and  C_5 
REMARK    5  A    between atoms: C_5  and  C_6 
REMARK    6  A    between atoms: C_9  and  C_10 
ROOT
HETATM    1  C   LIG     1      18.589  33.534  13.167  1.00  0.00     0.010 A 
HETATM    2  C   LIG     1      18.596  33.405  14.567  1.00  0.00     0.016 A 
HETATM    3  C   LIG     1      17.505  32.839  15.232  1.00  0.00     0.013 A 
HETATM    4  C   LIG     1      16.386  32.384  14.514  1.00  0.00    -0.026 A 
HETATM    5  C   LIG     1      16.387  32.500  13.114  1.00  0.00     0.013 A 
HETATM    6  C   LIG     1      17.479  33.063  12.448  1.00  0.00     0.016 A 
ENDROOT
BRANCH   1   7
HETATM    7  C   LIG     1      19.739  34.122  12.440  1.00  0.00     0.160 C 
HETATM    8  O   LIG     1      19.519  34.820  11.412  1.00  0.00    -0.292 OA
BRANCH   7   9
HETATM    9  C   LIG     1      21.166  33.918  12.890  1.00  0.00     0.094 C 
BRANCH   9  10
HETATM   10  C   LIG     1      21.998  35.203  12.766  1.00  0.00     0.117 C 
BRANCH  10  11
HETATM   11  C   LIG     1      23.282  35.123  13.541  1.00  0.00     0.139 C 
HETATM   12  O   LIG     1      23.633  34.035  14.067  1.00  0.00    -0.650 OA
BRANCH  11  13
HETATM   13  O   LIG     1      24.083  36.249  13.697  1.00  0.00    -0.776 OA
HETATM   14  H   LIG     1      25.053  36.167  13.979  1.00  0.00     0.167 HD
ENDBRANCH  11  13
ENDBRANCH  10  11
ENDBRANCH   9  10
ENDBRANCH   7   9
ENDBRANCH   1   7
BRANCH   4  15
HETATM   15  C   LIG     1      15.226  31.784  15.221  1.00  0.00    -0.026 A 
HETATM   16  C   LIG     1      14.803  32.293  16.464  1.00  0.00     0.012 A 
HETATM   17  C   LIG     1      13.711  31.725  17.128  1.00  0.00     0.001 A 
HETATM   18  C   LIG     1      13.030  30.646  16.561  1.00  0.00     0.000 A 
HETATM   19  C   LIG     1      13.439  30.132  15.328  1.00  0.00     0.001 A 
HETATM   20  C   LIG     1      14.530  30.696  14.661  1.00  0.00     0.012 A 
ENDBRANCH   4  15
TORSDOF 6
ENDMDL
MODEL 12
REMARK VINA RESULT:      -6.7      1.993      3.748
REMARK  6 active torsions:
REMARK  status: ('A' for Active; 'I' for Inactive)
REMARK    1  A    between atoms: O_1  and  C_2 
REMARK    2  A    between atoms: C_2  and  C_3 
REMARK    3  A    between atoms: C_3  and  C_4 
REMARK    4  A    between atoms: C_4  and  C_5 
REMARK    5  A    between atoms: C_5  and  C_6 
REMARK    6  A    between atoms: C_9  and  C_10 
ROOT
HETATM    1  C   LIG     1      15.002  32.646  16.818  1.00  0.00     0.010 A 
HETATM    2  C   LIG     1      15.828  32.326  15.727  1.00  0.00     0.016 A 
HETATM    3  C   LIG     1      15.559  31.204  14.938  1.00  0.00     0.013 A 
HETATM    4  C   LIG     1      14.455  30.381  15.219  1.00  0.00    -0.026 A 
HETATM    5  C   LIG     1      13.621  30.710  16.300  1.00  0.00     0.013 A 
HETATM    6  C   LIG     1      13.888  31.833  17.087  1.00  0.00     0.016 A 
ENDROOT
BRANCH   1   7
HETATM    7  C   LIG     1      15.263  33.836  17.662  1.00  0.00     0.160 C 
HETATM    8  O   LIG     1      15.461  34.949  17.103  1.00  0.00    -0.292 OA
BRANCH   7   9
HETATM    9  C   LIG     1      15.293  33.763  19.170  1.00  0.00     0.094 C 
BRANCH   9  10
HETATM   10  C   LIG     1      16.012  34.969  19.791  1.00  0.00     0.117 C 
BRANCH  10  11
HETATM   11  C   LIG     1      15.471  35.313  21.149  1.00  0.00     0.139 C 
HETATM   12  O   LIG     1      16.193  35.165  22.170  1.00  0.00    -0.650 OA
BRANCH  11  13
HETATM   13  O   LIG     1      14.169  35.781  21.294  1.00  0.00    -0.776 OA
HETATM   14  H   LIG     1      13.905  36.704  20.969  1.00  0.00     0.167 HD
ENDBRANCH  11  13
ENDBRANCH  10  11
ENDBRANCH   9  10
ENDBRANCH   7   9
ENDBRANCH   1   7
BRANCH   4  15
HETATM   15  C   LIG     1      14.170  29.187  14.381  1.00  0.00    -0.026 A 
HETATM   16  C   LIG     1      12.846  28.744  14.192  1.00  0.00     0.012 A 
HETATM   17  C   LIG     1      12.582  27.620  13.403  1.00  0.00     0.001 A 
HETATM   18  C   LIG     1      13.631  26.927  12.796  1.00  0.00     0.000 A 
HETATM   19  C   LIG     1      14.948  27.357  12.975  1.00  0.00     0.001 A 
HETATM   20  C   LIG     1      15.218  28.480  13.763  1.00  0.00     0.012 A 
ENDBRANCH   4  15
TORSDOF 6
ENDMDL
MODEL 13
REMARK VINA RESULT:      -6.7      3.220      5.516
REMARK  6 active torsions:
REMARK  status: ('A' for Active; 'I' for Inactive)
REMARK    1  A    between atoms: O_1  and  C_2 
REMARK    2  A    between atoms: C_2  and  C_3 
REMARK    3  A    between atoms: C_3  and  C_4 
REMARK    4  A    between atoms: C_4  and  C_5 
REMARK    5  A    between atoms: C_5  and  C_6 
REMARK    6  A    between atoms: C_9  and  C_10 
ROOT
HETATM    1  C   LIG     1      14.773  31.840  15.781  1.00  0.00     0.010 A 
HETATM    2  C   LIG     1      15.382  31.206  14.685  1.00  0.00     0.016 A 
HETATM    3  C   LIG     1      14.746  30.144  14.037  1.00  0.00     0.013 A 
HETATM    4  C   LIG     1      13.485  29.696  14.466  1.00  0.00    -0.026 A 
HETATM    5  C   LIG     1      12.871  30.341  15.552  1.00  0.00     0.013 A 
HETATM    6  C   LIG     1      13.505  31.404  16.199  1.00  0.00     0.016 A 
ENDROOT
BRANCH   1   7
HETATM    7  C   LIG     1      15.425  32.975  16.477  1.00  0.00     0.160 C 
HETATM    8  O   LIG     1      16.235  33.700  15.838  1.00  0.00    -0.292 OA
BRANCH   7   9
HETATM    9  C   LIG     1      15.147  33.297  17.926  1.00  0.00     0.094 C 
BRANCH   9  10
HETATM   10  C   LIG     1      15.722  32.235  18.873  1.00  0.00     0.117 C 
BRANCH  10  11
HETATM   11  C   LIG     1      14.869  32.042  20.094  1.00  0.00     0.139 C 
HETATM   12  O   LIG     1      14.526  30.883  20.446  1.00  0.00    -0.650 OA
BRANCH  11  13
HETATM   13  O   LIG     1      14.440  33.138  20.835  1.00  0.00    -0.776 OA
HETATM   14  H   LIG     1      13.516  33.533  20.701  1.00  0.00     0.167 HD
ENDBRANCH  11  13
ENDBRANCH  10  11
ENDBRANCH   9  10
ENDBRANCH   7   9
ENDBRANCH   1   7
BRANCH   4  15
HETATM   15  C   LIG     1      12.809  28.566  13.778  1.00  0.00    -0.026 A 
HETATM   16  C   LIG     1      13.507  27.373  13.507  1.00  0.00     0.012 A 
HETATM   17  C   LIG     1      12.868  26.310  12.858  1.00  0.00     0.001 A 
HETATM   18  C   LIG     1      11.530  26.426  12.474  1.00  0.00     0.000 A 
HETATM   19  C   LIG     1      10.827  27.604  12.739  1.00  0.00     0.001 A 
HETATM   20  C   LIG     1      11.461  28.669  13.386  1.00  0.00     0.012 A 
ENDBRANCH   4  15
TORSDOF 6
ENDMDL
MODEL 14
REMARK VINA RESULT:      -6.6      6.085      8.747
REMARK  6 active torsions:
REMARK  status: ('A' for Active; 'I' for Inactive)
REMARK    1  A    between atoms: O_1  and  C_2 
REMARK    2  A    between atoms: C_2  and  C_3 
REMARK    3  A    between atoms: C_3  and  C_4 
REMARK    4  A    between atoms: C_4  and  C_5 
REMARK    5  A    between atoms: C_5  and  C_6 
REMARK    6  A    between atoms: C_9  and  C_10 
ROOT
HETATM    1  C   LIG     1      18.149  33.686  12.952  1.00  0.00     0.010 A 
HETATM    2  C   LIG     1      18.075  34.141  14.279  1.00  0.00     0.016 A 
HETATM    3  C   LIG     1      17.135  33.602  15.163  1.00  0.00     0.013 A 
HETATM    4  C   LIG     1      16.252  32.593  14.741  1.00  0.00    -0.026 A 
HETATM    5  C   LIG     1      16.337  32.129  13.418  1.00  0.00     0.013 A 
HETATM    6  C   LIG     1      17.278  32.664  12.535  1.00  0.00     0.016 A 
ENDROOT
BRANCH   1   7
HETATM    7  C   LIG     1      19.144  34.235  12.000  1.00  0.00     0.160 C 
HETATM    8  O   LIG     1      18.783  35.130  11.189  1.00  0.00    -0.292 OA
BRANCH   7   9
HETATM    9  C   LIG     1      20.578  33.762  11.973  1.00  0.00     0.094 C 
BRANCH   9  10
HETATM   10  C   LIG     1      21.001  33.287  10.576  1.00  0.00     0.117 C 
BRANCH  10  11
HETATM   11  C   LIG     1      20.684  31.837  10.351  1.00  0.00     0.139 C 
HETATM   12  O   LIG     1      21.590  30.969  10.461  1.00  0.00    -0.650 OA
BRANCH  11  13
HETATM   13  O   LIG     1      19.396  31.440  10.005  1.00  0.00    -0.776 OA
HETATM   14  H   LIG     1      18.626  32.099  10.007  1.00  0.00     0.167 HD
ENDBRANCH  11  13
ENDBRANCH  10  11
ENDBRANCH   9  10
ENDBRANCH   7   9
ENDBRANCH   1   7
BRANCH   4  15
HETATM   15  C   LIG     1      15.252  32.022  15.679  1.00  0.00    -0.026 A 
HETATM   16  C   LIG     1      14.358  31.022  15.252  1.00  0.00     0.012 A 
HETATM   17  C   LIG     1      13.417  30.487  16.138  1.00  0.00     0.001 A 
HETATM   18  C   LIG     1      13.359  30.942  17.457  1.00  0.00     0.000 A 
HETATM   19  C   LIG     1      14.241  31.934  17.893  1.00  0.00     0.001 A 
HETATM   20  C   LIG     1      15.183  32.471  17.011  1.00  0.00     0.012 A 
ENDBRANCH   4  15
TORSDOF 6
ENDMDL
MODEL 15
REMARK VINA RESULT:      -6.5      5.099      8.953
REMARK  6 active torsions:
REMARK  status: ('A' for Active; 'I' for Inactive)
REMARK    1  A    between atoms: O_1  and  C_2 
REMARK    2  A    between atoms: C_2  and  C_3 
REMARK    3  A    between atoms: C_3  and  C_4 
REMARK    4  A    between atoms: C_4  and  C_5 
REMARK    5  A    between atoms: C_5  and  C_6 
REMARK    6  A    between atoms: C_9  and  C_10 
ROOT
HETATM    1  C   LIG     1      14.971  31.086  15.190  1.00  0.00     0.010 A 
HETATM    2  C   LIG     1      15.965  32.063  15.374  1.00  0.00     0.016 A 
HETATM    3  C   LIG     1      16.036  32.787  16.568  1.00  0.00     0.013 A 
HETATM    4  C   LIG     1      15.120  32.546  17.606  1.00  0.00    -0.026 A 
HETATM    5  C   LIG     1      14.136  31.560  17.427  1.00  0.00     0.013 A 
HETATM    6  C   LIG     1      14.066  30.834  16.235  1.00  0.00     0.016 A 
ENDROOT
BRANCH   1   7
HETATM    7  C   LIG     1      14.883  30.300  13.937  1.00  0.00     0.160 C 
HETATM    8  O   LIG     1      15.319  30.805  12.867  1.00  0.00    -0.292 OA
BRANCH   7   9
HETATM    9  C   LIG     1      14.292  28.910  13.899  1.00  0.00     0.094 C 
BRANCH   9  10
HETATM   10  C   LIG     1      15.368  27.833  13.702  1.00  0.00     0.117 C 
BRANCH  10  11
HETATM   11  C   LIG     1      15.308  27.215  12.335  1.00  0.00     0.139 C 
HETATM   12  O   LIG     1      16.313  27.260  11.579  1.00  0.00    -0.650 OA
BRANCH  11  13
HETATM   13  O   LIG     1      14.141  26.605  11.886  1.00  0.00    -0.776 OA
HETATM   14  H   LIG     1      13.544  26.086  12.519  1.00  0.00     0.167 HD
ENDBRANCH  11  13
ENDBRANCH  10  11
ENDBRANCH   9  10
ENDBRANCH   7   9
ENDBRANCH   1   7
BRANCH   4  15
HETATM   15  C   LIG     1      15.195  33.317  18.874  1.00  0.00    -0.026 A 
HETATM   16  C   LIG     1      14.854  32.714  20.100  1.00  0.00     0.012 A 
HETATM   17  C   LIG     1      14.925  33.443  21.292  1.00  0.00     0.001 A 
HETATM   18  C   LIG     1      15.336  34.778  21.274  1.00  0.00     0.000 A 
HETATM   19  C   LIG     1      15.678  35.387  20.064  1.00  0.00     0.001 A 
HETATM   20  C   LIG     1      15.608  34.663  18.870  1.00  0.00     0.012 A 
ENDBRANCH   4  15
TORSDOF 6
ENDMDL
MODEL 16
REMARK VINA RESULT:      -5.5      4.242      7.084
REMARK  6 active torsions:
REMARK  status: ('A' for Active; 'I' for Inactive)
REMARK    1  A    between atoms: O_1  and  C_2 
REMARK    2  A    between atoms: C_2  and  C_3 
REMARK    3  A    between atoms: C_3  and  C_4 
REMARK    4  A    between atoms: C_4  and  C_5 
REMARK    5  A    between atoms: C_5  and  C_6 
REMARK    6  A    between atoms: C_9  and  C_10 
ROOT
HETATM    1  C   LIG     1      15.121  30.325  14.637  1.00  0.00     0.010 A 
HETATM    2  C   LIG     1      13.725  30.203  14.743  1.00  0.00     0.016 A 
HETATM    3  C   LIG     1      13.057  29.138  14.130  1.00  0.00     0.013 A 
HETATM    4  C   LIG     1      13.771  28.170  13.403  1.00  0.00    -0.026 A 
HETATM    5  C   LIG     1      15.168  28.285  13.310  1.00  0.00     0.013 A 
HETATM    6  C   LIG     1      15.836  29.347  13.925  1.00  0.00     0.016 A 
ENDROOT
BRANCH   1   7
HETATM    7  C   LIG     1      15.851  31.440  15.287  1.00  0.00     0.160 C 
HETATM    8  O   LIG     1      17.110  31.401  15.331  1.00  0.00    -0.292 OA
BRANCH   7   9
HETATM    9  C   LIG     1      15.137  32.624  15.894  1.00  0.00     0.094 C 
BRANCH   9  10
HETATM   10  C   LIG     1      15.281  32.662  17.422  1.00  0.00     0.117 C 
BRANCH  10  11
HETATM   11  C   LIG     1      14.209  31.870  18.112  1.00  0.00     0.139 C 
HETATM   12  O   LIG     1      13.132  31.614  17.514  1.00  0.00    -0.650 OA
BRANCH  11  13
HETATM   13  O   LIG     1      14.389  31.427  19.419  1.00  0.00    -0.776 OA
HETATM   14  H   LIG     1      15.137  31.790  19.997  1.00  0.00     0.167 HD
ENDBRANCH  11  13
ENDBRANCH  10  11
ENDBRANCH   9  10
ENDBRANCH   7   9
ENDBRANCH   1   7
BRANCH   4  15
HETATM   15  C   LIG     1      13.061  27.040  12.750  1.00  0.00    -0.026 A 
HETATM   16  C   LIG     1      11.746  26.707  13.126  1.00  0.00     0.012 A 
HETATM   17  C   LIG     1      11.081  25.642  12.510  1.00  0.00     0.001 A 
HETATM   18  C   LIG     1      11.719  24.899  11.514  1.00  0.00     0.000 A 
HETATM   19  C   LIG     1      13.024  25.220  11.132  1.00  0.00     0.001 A 
HETATM   20  C   LIG     1      13.693  26.283  11.745  1.00  0.00     0.012 A 
ENDBRANCH   4  15
TORSDOF 6
ENDMDL
MODEL 17
REMARK VINA RESULT:      -5.3      7.377     11.005
REMARK  6 active torsions:
REMARK  status: ('A' for Active; 'I' for Inactive)
REMARK    1  A    between atoms: O_1  and  C_2 
REMARK    2  A    between atoms: C_2  and  C_3 
REMARK    3  A    between atoms: C_3  and  C_4 
REMARK    4  A    between atoms: C_4  and  C_5 
REMARK    5  A    between atoms: C_5  and  C_6 
REMARK    6  A    between atoms: C_9  and  C_10 
ROOT
HETATM    1  C   LIG     1      15.359  27.539  12.515  1.00  0.00     0.010 A 
HETATM    2  C   LIG     1      14.223  27.390  13.329  1.00  0.00     0.016 A 
HETATM    3  C   LIG     1      13.856  28.396  14.227  1.00  0.00     0.013 A 
HETATM    4  C   LIG     1      14.613  29.576  14.327  1.00  0.00    -0.026 A 
HETATM    5  C   LIG     1      15.739  29.731  13.502  1.00  0.00     0.013 A 
HETATM    6  C   LIG     1      16.105  28.727  12.602  1.00  0.00     0.016 A 
ENDROOT
BRANCH   1   7
HETATM    7  C   LIG     1      15.761  26.490  11.548  1.00  0.00     0.160 C 
HETATM    8  O   LIG     1      16.823  25.843  11.757  1.00  0.00    -0.292 OA
BRANCH   7   9
HETATM    9  C   LIG     1      14.939  26.165  10.324  1.00  0.00     0.094 C 
BRANCH   9  10
HETATM   10  C   LIG     1      13.947  25.022  10.583  1.00  0.00     0.117 C 
BRANCH  10  11
HETATM   11  C   LIG     1      12.523  25.497  10.582  1.00  0.00     0.139 C 
HETATM   12  O   LIG     1      11.621  24.784  11.094  1.00  0.00    -0.650 OA
BRANCH  11  13
HETATM   13  O   LIG     1      12.185  26.718  10.005  1.00  0.00    -0.776 OA
HETATM   14  H   LIG     1      12.066  26.808   9.003  1.00  0.00     0.167 HD
ENDBRANCH  11  13
ENDBRANCH  10  11
ENDBRANCH   9  10
ENDBRANCH   7   9
ENDBRANCH   1   7
BRANCH   4  15
HETATM   15  C   LIG     1      14.223  30.645  15.283  1.00  0.00    -0.026 A 
HETATM   16  C   LIG     1      15.110  31.697  15.581  1.00  0.00     0.012 A 
HETATM   17  C   LIG     1      14.741  32.701  16.483  1.00  0.00     0.001 A 
HETATM   18  C   LIG     1      13.486  32.667  17.093  1.00  0.00     0.000 A 
HETATM   19  C   LIG     1      12.596  31.629  16.805  1.00  0.00     0.001 A 
HETATM   20  C   LIG     1      12.961  30.623  15.905  1.00  0.00     0.012 A 
ENDBRANCH   4  15
TORSDOF 6
ENDMDL
