REMARK  6 active torsions:
REMARK  status: ('A' for Active; 'I' for Inactive)
REMARK    1  A    between atoms: O_1  and  C_2 
REMARK    2  A    between atoms: C_2  and  C_3 
REMARK    3  A    between atoms: C_3  and  C_4 
REMARK    4  A    between atoms: C_4  and  C_5 
REMARK    5  A    between atoms: C_5  and  C_6 
REMARK    6  A    between atoms: C_9  and  C_10 
ROOT
HETATM    1  C   LIG     1       1.162   0.281   0.674  1.00  0.00     0.010 A 
HETATM    2  C   LIG     1       0.476   1.026  -0.300  1.00  0.00     0.016 A 
HETATM    3  C   LIG     1      -0.909   0.904  -0.442  1.00  0.00     0.013 A 
HETATM    4  C   LIG     1      -1.640   0.039   0.391  1.00  0.00    -0.026 A 
HETATM    5  C   LIG     1      -0.955  -0.694   1.374  1.00  0.00     0.013 A 
HETATM    6  C   LIG     1       0.429  -0.570   1.518  1.00  0.00     0.016 A 
ENDROOT
BRANCH   1   7
HETATM    7  C   LIG     1       2.629   0.402   0.849  1.00  0.00     0.160 C 
HETATM    8  O   LIG     1       3.116   0.301   2.008  1.00  0.00    -0.292 OA
BRANCH   7   9
HETATM    9  C   LIG     1       3.562   0.637  -0.315  1.00  0.00     0.094 C 
BRANCH   9  10
HETATM   10  C   LIG     1       4.561  -0.515  -0.494  1.00  0.00     0.117 C 
BRANCH  10  11
HETATM   11  C   LIG     1       5.616  -0.521   0.574  1.00  0.00     0.139 C 
HETATM   12  O   LIG     1       5.583  -1.387   1.487  1.00  0.00    -0.650 OA
BRANCH  11  13
HETATM   13  O   LIG     1       6.627   0.435   0.574  1.00  0.00    -0.776 OA
HETATM   14  H   LIG     1       6.678   1.144  -0.148  1.00  0.00     0.167 HD
ENDBRANCH  11  13
ENDBRANCH  10  11
ENDBRANCH   9  10
ENDBRANCH   7   9
ENDBRANCH   1   7
BRANCH   4  15
HETATM   15  C   LIG     1      -3.112  -0.092   0.239  1.00  0.00    -0.026 A 
HETATM   16  C   LIG     1      -3.910   1.041  -0.011  1.00  0.00     0.012 A 
HETATM   17  C   LIG     1      -5.296   0.914  -0.153  1.00  0.00     0.001 A 
HETATM   18  C   LIG     1      -5.899  -0.341  -0.048  1.00  0.00     0.000 A 
HETATM   19  C   LIG     1      -5.118  -1.473   0.199  1.00  0.00     0.001 A 
HETATM   20  C   LIG     1      -3.733  -1.351   0.342  1.00  0.00     0.012 A 
ENDBRANCH   4  15
TORSDOF 6
