MODEL 1
REMARK VINA RESULT:      -5.8      0.000      0.000
REMARK  0 active torsions:
REMARK  status: ('A' for Active; 'I' for Inactive)
ROOT
HETATM    1  C   LIG     1      30.163  26.197  31.389  1.00  0.00     0.016 C 
HETATM    2  C   LIG     1      28.902  27.034  31.758  1.00  0.00    -0.036 C 
HETATM    3  C   LIG     1      29.076  27.480  33.278  1.00  0.00    -0.002 C 
HETATM    4  C   LIG     1      30.264  28.467  33.494  1.00  0.00     0.007 C 
HETATM    5  C   LIG     1      30.006  29.505  34.587  1.00  0.00     0.018 C 
HETATM    6  C   LIG     1      27.779  27.916  34.047  1.00  0.00    -0.004 C 
HETATM    7  C   LIG     1      26.572  27.008  33.708  1.00  0.00     0.006 C 
HETATM    8  C   LIG     1      26.394  26.785  32.214  1.00  0.00     0.006 C 
HETATM    9  C   LIG     1      27.646  26.118  31.613  1.00  0.00    -0.006 C 
HETATM   10  C   LIG     1      27.383  25.648  30.153  1.00  0.00     0.005 C 
HETATM   11  C   LIG     1      27.829  26.631  29.054  1.00  0.00     0.000 C 
HETATM   12  C   LIG     1      27.897  28.073  29.540  1.00  0.00     0.001 C 
HETATM   13  C   LIG     1      28.802  28.257  30.777  1.00  0.00     0.010 C 
HETATM   14  C   LIG     1      27.477  29.449  33.982  1.00  0.00     0.006 C 
HETATM   15  C   LIG     1      26.368  29.866  34.993  1.00  0.00     0.013 C 
HETATM   16  C   LIG     1      26.967  30.814  36.024  1.00  0.00     0.079 C 
HETATM   17  C   LIG     1      28.727  30.337  34.310  1.00  0.00     0.021 C 
HETATM   18  C   LIG     1      28.979  31.396  33.212  1.00  0.00     0.024 C 
HETATM   19  C   LIG     1      28.342  31.062  35.559  1.00  0.00     0.135 C 
HETATM   20  O   LIG     1      29.100  31.815  36.153  1.00  0.00    -0.297 OA
ENDROOT
TORSDOF 0
ENDMDL
MODEL 2
REMARK VINA RESULT:      -5.5      1.974      3.918
REMARK  0 active torsions:
REMARK  status: ('A' for Active; 'I' for Inactive)
ROOT
HETATM    1  C   LIG     1      26.365  27.629  32.706  1.00  0.00     0.016 C 
HETATM    2  C   LIG     1      27.417  27.889  33.825  1.00  0.00    -0.036 C 
HETATM    3  C   LIG     1      27.393  29.454  34.123  1.00  0.00    -0.002 C 
HETATM    4  C   LIG     1      26.048  29.936  34.747  1.00  0.00     0.007 C 
HETATM    5  C   LIG     1      26.214  31.076  35.753  1.00  0.00     0.018 C 
HETATM    6  C   LIG     1      28.648  30.063  34.843  1.00  0.00    -0.004 C 
HETATM    7  C   LIG     1      29.970  29.464  34.306  1.00  0.00     0.006 C 
HETATM    8  C   LIG     1      29.947  27.946  34.223  1.00  0.00     0.006 C 
HETATM    9  C   LIG     1      28.822  27.473  33.282  1.00  0.00    -0.006 C 
HETATM   10  C   LIG     1      28.948  25.951  32.982  1.00  0.00     0.005 C 
HETATM   11  C   LIG     1      28.091  25.030  33.871  1.00  0.00     0.000 C 
HETATM   12  C   LIG     1      27.743  25.659  35.215  1.00  0.00     0.001 C 
HETATM   13  C   LIG     1      27.042  27.028  35.083  1.00  0.00     0.010 C 
HETATM   14  C   LIG     1      28.539  30.104  36.402  1.00  0.00     0.006 C 
HETATM   15  C   LIG     1      29.659  30.977  37.041  1.00  0.00     0.013 C 
HETATM   16  C   LIG     1      29.022  32.173  37.737  1.00  0.00     0.079 C 
HETATM   17  C   LIG     1      27.178  30.697  36.909  1.00  0.00     0.021 C 
HETATM   18  C   LIG     1      26.488  29.757  37.922  1.00  0.00     0.024 C 
HETATM   19  C   LIG     1      27.571  31.941  37.639  1.00  0.00     0.135 C 
HETATM   20  O   LIG     1      26.758  32.710  38.129  1.00  0.00    -0.297 OA
ENDROOT
TORSDOF 0
ENDMDL
MODEL 3
REMARK VINA RESULT:      -5.4      2.505      6.041
REMARK  0 active torsions:
REMARK  status: ('A' for Active; 'I' for Inactive)
ROOT
HETATM    1  C   LIG     1      29.284  29.789  37.791  1.00  0.00     0.016 C 
HETATM    2  C   LIG     1      28.244  29.626  36.643  1.00  0.00    -0.036 C 
HETATM    3  C   LIG     1      28.932  28.727  35.523  1.00  0.00    -0.002 C 
HETATM    4  C   LIG     1      29.209  27.267  35.995  1.00  0.00     0.007 C 
HETATM    5  C   LIG     1      29.063  26.226  34.883  1.00  0.00     0.018 C 
HETATM    6  C   LIG     1      28.319  28.791  34.079  1.00  0.00    -0.004 C 
HETATM    7  C   LIG     1      27.919  30.233  33.684  1.00  0.00     0.006 C 
HETATM    8  C   LIG     1      27.113  30.944  34.760  1.00  0.00     0.006 C 
HETATM    9  C   LIG     1      27.924  31.042  36.067  1.00  0.00    -0.006 C 
HETATM   10  C   LIG     1      27.226  31.987  37.088  1.00  0.00     0.005 C 
HETATM   11  C   LIG     1      26.330  31.288  38.128  1.00  0.00     0.000 C 
HETATM   12  C   LIG     1      25.815  29.935  37.653  1.00  0.00     0.001 C 
HETATM   13  C   LIG     1      26.943  28.969  37.229  1.00  0.00     0.010 C 
HETATM   14  C   LIG     1      27.224  27.712  33.796  1.00  0.00     0.006 C 
HETATM   15  C   LIG     1      26.869  27.625  32.283  1.00  0.00     0.013 C 
HETATM   16  C   LIG     1      27.261  26.250  31.757  1.00  0.00     0.079 C 
HETATM   17  C   LIG     1      27.657  26.267  34.229  1.00  0.00     0.021 C 
HETATM   18  C   LIG     1      26.600  25.603  35.139  1.00  0.00     0.024 C 
HETATM   19  C   LIG     1      27.698  25.500  32.947  1.00  0.00     0.135 C 
HETATM   20  O   LIG     1      28.056  24.333  32.880  1.00  0.00    -0.297 OA
ENDROOT
TORSDOF 0
ENDMDL
MODEL 4
REMARK VINA RESULT:      -5.3     13.306     17.364
REMARK  0 active torsions:
REMARK  status: ('A' for Active; 'I' for Inactive)
ROOT
HETATM    1  C   LIG     1      26.522  23.027  20.273  1.00  0.00     0.016 C 
HETATM    2  C   LIG     1      25.283  22.086  20.185  1.00  0.00    -0.036 C 
HETATM    3  C   LIG     1      24.977  21.873  18.636  1.00  0.00    -0.002 C 
HETATM    4  C   LIG     1      26.103  21.091  17.892  1.00  0.00     0.007 C 
HETATM    5  C   LIG     1      25.582  20.182  16.777  1.00  0.00     0.018 C 
HETATM    6  C   LIG     1      23.539  21.374  18.254  1.00  0.00    -0.004 C 
HETATM    7  C   LIG     1      22.443  22.060  19.106  1.00  0.00     0.006 C 
HETATM    8  C   LIG     1      22.755  22.056  20.594  1.00  0.00     0.006 C 
HETATM    9  C   LIG     1      24.076  22.799  20.872  1.00  0.00    -0.006 C 
HETATM   10  C   LIG     1      24.276  23.031  22.399  1.00  0.00     0.005 C 
HETATM   11  C   LIG     1      25.143  21.979  23.117  1.00  0.00     0.000 C 
HETATM   12  C   LIG     1      25.164  20.636  22.397  1.00  0.00     0.001 C 
HETATM   13  C   LIG     1      25.616  20.741  20.925  1.00  0.00     0.010 C 
HETATM   14  C   LIG     1      23.403  19.820  18.151  1.00  0.00     0.006 C 
HETATM   15  C   LIG     1      22.060  19.396  17.487  1.00  0.00     0.013 C 
HETATM   16  C   LIG     1      22.356  18.683  16.174  1.00  0.00     0.079 C 
HETATM   17  C   LIG     1      24.541  19.157  17.299  1.00  0.00     0.021 C 
HETATM   18  C   LIG     1      25.231  18.006  18.065  1.00  0.00     0.024 C 
HETATM   19  C   LIG     1      23.823  18.560  16.132  1.00  0.00     0.135 C 
HETATM   20  O   LIG     1      24.400  18.001  15.210  1.00  0.00    -0.297 OA
ENDROOT
TORSDOF 0
ENDMDL
MODEL 5
REMARK VINA RESULT:      -5.3     11.851     14.313
REMARK  0 active torsions:
REMARK  status: ('A' for Active; 'I' for Inactive)
ROOT
HETATM    1  C   LIG     1      29.155  22.768  19.474  1.00  0.00     0.016 C 
HETATM    2  C   LIG     1      27.693  23.282  19.634  1.00  0.00    -0.036 C 
HETATM    3  C   LIG     1      26.811  22.029  20.072  1.00  0.00    -0.002 C 
HETATM    4  C   LIG     1      27.179  21.487  21.487  1.00  0.00     0.007 C 
HETATM    5  C   LIG     1      25.980  20.942  22.265  1.00  0.00     0.018 C 
HETATM    6  C   LIG     1      25.261  22.135  19.848  1.00  0.00    -0.004 C 
HETATM    7  C   LIG     1      24.915  22.807  18.498  1.00  0.00     0.006 C 
HETATM    8  C   LIG     1      25.692  24.093  18.256  1.00  0.00     0.006 C 
HETATM    9  C   LIG     1      27.208  23.816  18.249  1.00  0.00    -0.006 C 
HETATM   10  C   LIG     1      28.000  25.058  17.747  1.00  0.00     0.005 C 
HETATM   11  C   LIG     1      28.546  25.981  18.853  1.00  0.00     0.000 C 
HETATM   12  C   LIG     1      27.761  25.877  20.155  1.00  0.00     0.001 C 
HETATM   13  C   LIG     1      27.676  24.435  20.700  1.00  0.00     0.010 C 
HETATM   14  C   LIG     1      24.470  22.695  21.075  1.00  0.00     0.006 C 
HETATM   15  C   LIG     1      22.933  22.501  20.915  1.00  0.00     0.013 C 
HETATM   16  C   LIG     1      22.435  21.561  22.005  1.00  0.00     0.079 C 
HETATM   17  C   LIG     1      24.861  22.005  22.428  1.00  0.00     0.021 C 
HETATM   18  C   LIG     1      25.233  23.042  23.511  1.00  0.00     0.024 C 
HETATM   19  C   LIG     1      23.606  21.322  22.865  1.00  0.00     0.135 C 
HETATM   20  O   LIG     1      23.542  20.623  23.866  1.00  0.00    -0.297 OA
ENDROOT
TORSDOF 0
ENDMDL
MODEL 6
REMARK VINA RESULT:      -5.2     10.722     14.168
REMARK  0 active torsions:
REMARK  status: ('A' for Active; 'I' for Inactive)
ROOT
HETATM    1  C   LIG     1      22.810  19.783  19.258  1.00  0.00     0.016 C 
HETATM    2  C   LIG     1      23.719  20.665  20.165  1.00  0.00    -0.036 C 
HETATM    3  C   LIG     1      22.954  20.840  21.552  1.00  0.00    -0.002 C 
HETATM    4  C   LIG     1      22.809  19.504  22.343  1.00  0.00     0.007 C 
HETATM    5  C   LIG     1      22.881  19.682  23.861  1.00  0.00     0.018 C 
HETATM    6  C   LIG     1      23.393  22.040  22.463  1.00  0.00    -0.004 C 
HETATM    7  C   LIG     1      23.671  23.321  21.640  1.00  0.00     0.006 C 
HETATM    8  C   LIG     1      24.556  23.071  20.429  1.00  0.00     0.006 C 
HETATM    9  C   LIG     1      23.896  22.056  19.476  1.00  0.00    -0.006 C 
HETATM   10  C   LIG     1      24.656  21.987  18.119  1.00  0.00     0.005 C 
HETATM   11  C   LIG     1      25.700  20.860  18.006  1.00  0.00     0.000 C 
HETATM   12  C   LIG     1      26.227  20.401  19.360  1.00  0.00     0.001 C 
HETATM   13  C   LIG     1      25.111  19.956  20.328  1.00  0.00     0.010 C 
HETATM   14  C   LIG     1      24.504  21.684  23.505  1.00  0.00     0.006 C 
HETATM   15  C   LIG     1      24.687  22.808  24.567  1.00  0.00     0.013 C 
HETATM   16  C   LIG     1      24.310  22.262  25.938  1.00  0.00     0.079 C 
HETATM   17  C   LIG     1      24.199  20.369  24.304  1.00  0.00     0.021 C 
HETATM   18  C   LIG     1      25.387  19.382  24.253  1.00  0.00     0.024 C 
HETATM   19  C   LIG     1      24.052  20.829  25.719  1.00  0.00     0.135 C 
HETATM   20  O   LIG     1      23.750  20.078  26.635  1.00  0.00    -0.297 OA
ENDROOT
TORSDOF 0
ENDMDL
MODEL 7
REMARK VINA RESULT:      -5.1     12.083     15.102
REMARK  0 active torsions:
REMARK  status: ('A' for Active; 'I' for Inactive)
ROOT
HETATM    1  C   LIG     1      25.745  20.275  16.993  1.00  0.00     0.016 C 
HETATM    2  C   LIG     1      25.518  21.021  18.342  1.00  0.00    -0.036 C 
HETATM    3  C   LIG     1      26.923  21.641  18.766  1.00  0.00    -0.002 C 
HETATM    4  C   LIG     1      27.419  22.755  17.793  1.00  0.00     0.007 C 
HETATM    5  C   LIG     1      28.195  23.874  18.490  1.00  0.00     0.018 C 
HETATM    6  C   LIG     1      27.106  22.030  20.276  1.00  0.00    -0.004 C 
HETATM    7  C   LIG     1      26.480  20.979  21.224  1.00  0.00     0.006 C 
HETATM    8  C   LIG     1      25.067  20.582  20.825  1.00  0.00     0.006 C 
HETATM    9  C   LIG     1      25.054  19.978  19.407  1.00  0.00    -0.006 C 
HETATM   10  C   LIG     1      23.674  19.332  19.087  1.00  0.00     0.005 C 
HETATM   11  C   LIG     1      22.690  20.231  18.315  1.00  0.00     0.000 C 
HETATM   12  C   LIG     1      22.969  21.717  18.505  1.00  0.00     0.001 C 
HETATM   13  C   LIG     1      24.412  22.117  18.134  1.00  0.00     0.010 C 
HETATM   14  C   LIG     1      26.731  23.511  20.609  1.00  0.00     0.006 C 
HETATM   15  C   LIG     1      27.207  23.925  22.033  1.00  0.00     0.013 C 
HETATM   16  C   LIG     1      28.248  25.030  21.907  1.00  0.00     0.079 C 
HETATM   17  C   LIG     1      27.365  24.545  19.616  1.00  0.00     0.021 C 
HETATM   18  C   LIG     1      26.301  25.500  19.029  1.00  0.00     0.024 C 
HETATM   19  C   LIG     1      28.281  25.359  20.472  1.00  0.00     0.135 C 
HETATM   20  O   LIG     1      29.002  26.239  20.027  1.00  0.00    -0.297 OA
ENDROOT
TORSDOF 0
ENDMDL
MODEL 8
REMARK VINA RESULT:      -5.1     12.424     14.522
REMARK  0 active torsions:
REMARK  status: ('A' for Active; 'I' for Inactive)
ROOT
HETATM    1  C   LIG     1      24.798  19.798  20.595  1.00  0.00     0.016 C 
HETATM    2  C   LIG     1      25.024  21.289  20.984  1.00  0.00    -0.036 C 
HETATM    3  C   LIG     1      26.436  21.713  20.379  1.00  0.00    -0.002 C 
HETATM    4  C   LIG     1      26.455  21.720  18.819  1.00  0.00     0.007 C 
HETATM    5  C   LIG     1      27.345  22.811  18.223  1.00  0.00     0.018 C 
HETATM    6  C   LIG     1      27.128  22.978  20.999  1.00  0.00    -0.004 C 
HETATM    7  C   LIG     1      26.974  23.026  22.538  1.00  0.00     0.006 C 
HETATM    8  C   LIG     1      25.547  22.778  23.002  1.00  0.00     0.006 C 
HETATM    9  C   LIG     1      25.063  21.389  22.542  1.00  0.00    -0.006 C 
HETATM   10  C   LIG     1      23.715  21.013  23.224  1.00  0.00     0.005 C 
HETATM   11  C   LIG     1      22.451  21.321  22.399  1.00  0.00     0.000 C 
HETATM   12  C   LIG     1      22.666  22.428  21.375  1.00  0.00     0.001 C 
HETATM   13  C   LIG     1      23.839  22.147  20.412  1.00  0.00     0.010 C 
HETATM   14  C   LIG     1      26.790  24.319  20.269  1.00  0.00     0.006 C 
HETATM   15  C   LIG     1      27.721  25.481  20.726  1.00  0.00     0.013 C 
HETATM   16  C   LIG     1      28.557  25.944  19.540  1.00  0.00     0.079 C 
HETATM   17  C   LIG     1      26.936  24.226  18.710  1.00  0.00     0.021 C 
HETATM   18  C   LIG     1      25.663  24.717  17.987  1.00  0.00     0.024 C 
HETATM   19  C   LIG     1      28.038  25.185  18.390  1.00  0.00     0.135 C 
HETATM   20  O   LIG     1      28.477  25.341  17.260  1.00  0.00    -0.297 OA
ENDROOT
TORSDOF 0
ENDMDL
MODEL 9
REMARK VINA RESULT:      -5.1     12.640     16.204
REMARK  0 active torsions:
REMARK  status: ('A' for Active; 'I' for Inactive)
ROOT
HETATM    1  C   LIG     1      25.690  24.253  20.124  1.00  0.00     0.016 C 
HETATM    2  C   LIG     1      25.478  22.784  20.596  1.00  0.00    -0.036 C 
HETATM    3  C   LIG     1      24.058  22.323  20.041  1.00  0.00    -0.002 C 
HETATM    4  C   LIG     1      24.009  22.234  18.485  1.00  0.00     0.007 C 
HETATM    5  C   LIG     1      23.112  21.109  17.964  1.00  0.00     0.018 C 
HETATM    6  C   LIG     1      23.383  21.090  20.740  1.00  0.00    -0.004 C 
HETATM    7  C   LIG     1      23.567  21.124  22.276  1.00  0.00     0.006 C 
HETATM    8  C   LIG     1      25.001  21.402  22.699  1.00  0.00     0.006 C 
HETATM    9  C   LIG     1      25.470  22.766  22.158  1.00  0.00    -0.006 C 
HETATM   10  C   LIG     1      26.829  23.183  22.792  1.00  0.00     0.005 C 
HETATM   11  C   LIG     1      28.079  22.836  21.961  1.00  0.00     0.000 C 
HETATM   12  C   LIG     1      27.849  21.675  21.000  1.00  0.00     0.001 C 
HETATM   13  C   LIG     1      26.656  21.901  20.047  1.00  0.00     0.010 C 
HETATM   14  C   LIG     1      23.714  19.713  20.076  1.00  0.00     0.006 C 
HETATM   15  C   LIG     1      22.798  18.574  20.612  1.00  0.00     0.013 C 
HETATM   16  C   LIG     1      21.941  18.045  19.468  1.00  0.00     0.079 C 
HETATM   17  C   LIG     1      23.537  19.723  18.518  1.00  0.00     0.021 C 
HETATM   18  C   LIG     1      24.800  19.199  17.797  1.00  0.00     0.024 C 
HETATM   19  C   LIG     1      22.435  18.745  18.270  1.00  0.00     0.135 C 
HETATM   20  O   LIG     1      21.975  18.527  17.158  1.00  0.00    -0.297 OA
ENDROOT
TORSDOF 0
ENDMDL
MODEL 10
REMARK VINA RESULT:      -5.0     10.968     14.752
REMARK  0 active torsions:
REMARK  status: ('A' for Active; 'I' for Inactive)
ROOT
HETATM    1  C   LIG     1      22.793  21.081  18.222  1.00  0.00     0.016 C 
HETATM    2  C   LIG     1      24.154  21.086  18.980  1.00  0.00    -0.036 C 
HETATM    3  C   LIG     1      24.099  22.296  20.015  1.00  0.00    -0.002 C 
HETATM    4  C   LIG     1      23.039  22.091  21.140  1.00  0.00     0.007 C 
HETATM    5  C   LIG     1      23.458  22.674  22.490  1.00  0.00     0.018 C 
HETATM    6  C   LIG     1      25.470  22.829  20.564  1.00  0.00    -0.004 C 
HETATM    7  C   LIG     1      26.552  22.890  19.460  1.00  0.00     0.006 C 
HETATM    8  C   LIG     1      26.637  21.613  18.637  1.00  0.00     0.006 C 
HETATM    9  C   LIG     1      25.294  21.329  17.939  1.00  0.00    -0.006 C 
HETATM   10  C   LIG     1      25.438  20.183  16.895  1.00  0.00     0.005 C 
HETATM   11  C   LIG     1      25.054  18.779  17.401  1.00  0.00     0.000 C 
HETATM   12  C   LIG     1      25.168  18.641  18.914  1.00  0.00     0.001 C 
HETATM   13  C   LIG     1      24.346  19.696  19.685  1.00  0.00     0.010 C 
HETATM   14  C   LIG     1      25.936  22.152  21.895  1.00  0.00     0.006 C 
HETATM   15  C   LIG     1      27.129  22.912  22.547  1.00  0.00     0.013 C 
HETATM   16  C   LIG     1      26.685  23.472  23.892  1.00  0.00     0.079 C 
HETATM   17  C   LIG     1      24.808  22.089  22.982  1.00  0.00     0.021 C 
HETATM   18  C   LIG     1      24.626  20.656  23.533  1.00  0.00     0.024 C 
HETATM   19  C   LIG     1      25.327  22.940  24.096  1.00  0.00     0.135 C 
HETATM   20  O   LIG     1      24.684  23.177  25.108  1.00  0.00    -0.297 OA
ENDROOT
TORSDOF 0
ENDMDL
MODEL 11
REMARK VINA RESULT:      -5.0     11.197     13.985
REMARK  0 active torsions:
REMARK  status: ('A' for Active; 'I' for Inactive)
ROOT
HETATM    1  C   LIG     1      22.166  22.473  21.016  1.00  0.00     0.016 C 
HETATM    2  C   LIG     1      23.630  22.044  20.703  1.00  0.00    -0.036 C 
HETATM    3  C   LIG     1      24.579  22.967  21.589  1.00  0.00    -0.002 C 
HETATM    4  C   LIG     1      24.427  22.711  23.119  1.00  0.00     0.007 C 
HETATM    5  C   LIG     1      25.732  22.873  23.900  1.00  0.00     0.018 C 
HETATM    6  C   LIG     1      26.079  23.089  21.141  1.00  0.00    -0.004 C 
HETATM    7  C   LIG     1      26.216  23.199  19.603  1.00  0.00     0.006 C 
HETATM    8  C   LIG     1      25.400  22.157  18.855  1.00  0.00     0.006 C 
HETATM    9  C   LIG     1      23.903  22.301  19.187  1.00  0.00    -0.006 C 
HETATM   10  C   LIG     1      23.033  21.424  18.240  1.00  0.00     0.005 C 
HETATM   11  C   LIG     1      22.646  20.040  18.795  1.00  0.00     0.000 C 
HETATM   12  C   LIG     1      23.614  19.535  19.858  1.00  0.00     0.001 C 
HETATM   13  C   LIG     1      23.792  20.517  21.035  1.00  0.00     0.010 C 
HETATM   14  C   LIG     1      27.035  22.045  21.806  1.00  0.00     0.006 C 
HETATM   15  C   LIG     1      28.533  22.393  21.564  1.00  0.00     0.013 C 
HETATM   16  C   LIG     1      29.195  22.698  22.902  1.00  0.00     0.079 C 
HETATM   17  C   LIG     1      26.852  21.945  23.360  1.00  0.00     0.021 C 
HETATM   18  C   LIG     1      26.633  20.485  23.816  1.00  0.00     0.024 C 
HETATM   19  C   LIG     1      28.165  22.401  23.912  1.00  0.00     0.135 C 
HETATM   20  O   LIG     1      28.381  22.513  25.109  1.00  0.00    -0.297 OA
ENDROOT
TORSDOF 0
ENDMDL
MODEL 12
REMARK VINA RESULT:      -4.9     13.455     15.997
REMARK  0 active torsions:
REMARK  status: ('A' for Active; 'I' for Inactive)
ROOT
HETATM    1  C   LIG     1      26.029  24.804  18.494  1.00  0.00     0.016 C 
HETATM    2  C   LIG     1      26.108  23.526  19.382  1.00  0.00    -0.036 C 
HETATM    3  C   LIG     1      24.629  22.945  19.485  1.00  0.00    -0.002 C 
HETATM    4  C   LIG     1      24.079  22.427  18.121  1.00  0.00     0.007 C 
HETATM    5  C   LIG     1      23.159  21.211  18.254  1.00  0.00     0.018 C 
HETATM    6  C   LIG     1      24.327  21.964  20.672  1.00  0.00    -0.004 C 
HETATM    7  C   LIG     1      25.002  22.423  21.987  1.00  0.00     0.006 C 
HETATM    8  C   LIG     1      26.467  22.792  21.809  1.00  0.00     0.006 C 
HETATM    9  C   LIG     1      26.615  23.945  20.798  1.00  0.00    -0.006 C 
HETATM   10  C   LIG     1      28.067  24.506  20.800  1.00  0.00     0.005 C 
HETATM   11  C   LIG     1      28.998  23.927  19.719  1.00  0.00     0.000 C 
HETATM   12  C   LIG     1      28.565  22.548  19.238  1.00  0.00     0.001 C 
HETATM   13  C   LIG     1      27.111  22.513  18.722  1.00  0.00     0.010 C 
HETATM   14  C   LIG     1      24.536  20.453  20.327  1.00  0.00     0.006 C 
HETATM   15  C   LIG     1      23.946  19.519  21.424  1.00  0.00     0.013 C 
HETATM   16  C   LIG     1      22.810  18.702  20.823  1.00  0.00     0.079 C 
HETATM   17  C   LIG     1      23.857  20.030  18.978  1.00  0.00     0.021 C 
HETATM   18  C   LIG     1      24.852  19.312  18.039  1.00  0.00     0.024 C 
HETATM   19  C   LIG     1      22.821  19.034  19.388  1.00  0.00     0.135 C 
HETATM   20  O   LIG     1      22.042  18.520  18.599  1.00  0.00    -0.297 OA
ENDROOT
TORSDOF 0
ENDMDL
MODEL 13
REMARK VINA RESULT:      -4.8     10.865     12.939
REMARK  0 active torsions:
REMARK  status: ('A' for Active; 'I' for Inactive)
ROOT
HETATM    1  C   LIG     1      25.344  20.568  20.657  1.00  0.00     0.016 C 
HETATM    2  C   LIG     1      25.530  21.884  21.470  1.00  0.00    -0.036 C 
HETATM    3  C   LIG     1      27.086  22.222  21.447  1.00  0.00    -0.002 C 
HETATM    4  C   LIG     1      27.614  22.577  20.024  1.00  0.00     0.007 C 
HETATM    5  C   LIG     1      28.722  23.633  20.027  1.00  0.00     0.018 C 
HETATM    6  C   LIG     1      27.621  23.200  22.553  1.00  0.00    -0.004 C 
HETATM    7  C   LIG     1      26.976  22.922  23.932  1.00  0.00     0.006 C 
HETATM    8  C   LIG     1      25.463  22.786  23.866  1.00  0.00     0.006 C 
HETATM    9  C   LIG     1      25.063  21.623  22.938  1.00  0.00    -0.006 C 
HETATM   10  C   LIG     1      23.545  21.305  23.061  1.00  0.00     0.005 C 
HETATM   11  C   LIG     1      22.643  21.973  22.006  1.00  0.00     0.000 C 
HETATM   12  C   LIG     1      23.255  23.238  21.418  1.00  0.00     0.001 C 
HETATM   13  C   LIG     1      24.657  23.012  20.813  1.00  0.00     0.010 C 
HETATM   14  C   LIG     1      27.630  24.705  22.131  1.00  0.00     0.006 C 
HETATM   15  C   LIG     1      28.436  25.585  23.132  1.00  0.00     0.013 C 
HETATM   16  C   LIG     1      29.642  26.176  22.415  1.00  0.00     0.079 C 
HETATM   17  C   LIG     1      28.271  24.946  20.720  1.00  0.00     0.021 C 
HETATM   18  C   LIG     1      27.340  25.768  19.803  1.00  0.00     0.024 C 
HETATM   19  C   LIG     1      29.478  25.780  21.006  1.00  0.00     0.135 C 
HETATM   20  O   LIG     1      30.272  26.121  20.141  1.00  0.00    -0.297 OA
ENDROOT
TORSDOF 0
ENDMDL
MODEL 14
REMARK VINA RESULT:      -4.8     11.810     14.087
REMARK  0 active torsions:
REMARK  status: ('A' for Active; 'I' for Inactive)
ROOT
HETATM    1  C   LIG     1      24.799  21.528  24.866  1.00  0.00     0.016 C 
HETATM    2  C   LIG     1      24.637  21.381  23.323  1.00  0.00    -0.036 C 
HETATM    3  C   LIG     1      25.073  22.773  22.681  1.00  0.00    -0.002 C 
HETATM    4  C   LIG     1      26.588  23.088  22.876  1.00  0.00     0.007 C 
HETATM    5  C   LIG     1      27.211  23.847  21.703  1.00  0.00     0.018 C 
HETATM    6  C   LIG     1      24.574  23.075  21.224  1.00  0.00    -0.004 C 
HETATM    7  C   LIG     1      23.110  22.623  21.008  1.00  0.00     0.006 C 
HETATM    8  C   LIG     1      22.843  21.210  21.503  1.00  0.00     0.006 C 
HETATM    9  C   LIG     1      23.132  21.101  23.013  1.00  0.00    -0.006 C 
HETATM   10  C   LIG     1      22.620  19.747  23.584  1.00  0.00     0.005 C 
HETATM   11  C   LIG     1      23.675  18.629  23.675  1.00  0.00     0.000 C 
HETATM   12  C   LIG     1      24.825  18.817  22.693  1.00  0.00     0.001 C 
HETATM   13  C   LIG     1      25.527  20.184  22.832  1.00  0.00     0.010 C 
HETATM   14  C   LIG     1      25.564  22.628  20.099  1.00  0.00     0.006 C 
HETATM   15  C   LIG     1      25.168  23.211  18.711  1.00  0.00     0.013 C 
HETATM   16  C   LIG     1      26.267  24.152  18.234  1.00  0.00     0.079 C 
HETATM   17  C   LIG     1      27.041  23.085  20.362  1.00  0.00     0.021 C 
HETATM   18  C   LIG     1      28.031  21.903  20.265  1.00  0.00     0.024 C 
HETATM   19  C   LIG     1      27.340  24.020  19.235  1.00  0.00     0.135 C 
HETATM   20  O   LIG     1      28.396  24.628  19.135  1.00  0.00    -0.297 OA
ENDROOT
TORSDOF 0
ENDMDL
MODEL 15
REMARK VINA RESULT:      -4.8      9.146     13.209
REMARK  0 active torsions:
REMARK  status: ('A' for Active; 'I' for Inactive)
ROOT
HETATM    1  C   LIG     1      28.940  22.157  24.391  1.00  0.00     0.016 C 
HETATM    2  C   LIG     1      28.234  23.330  23.649  1.00  0.00    -0.036 C 
HETATM    3  C   LIG     1      28.267  22.979  22.096  1.00  0.00    -0.002 C 
HETATM    4  C   LIG     1      27.410  21.728  21.733  1.00  0.00     0.007 C 
HETATM    5  C   LIG     1      26.744  21.821  20.359  1.00  0.00     0.018 C 
HETATM    6  C   LIG     1      28.063  24.167  21.090  1.00  0.00    -0.004 C 
HETATM    7  C   LIG     1      28.808  25.445  21.544  1.00  0.00     0.006 C 
HETATM    8  C   LIG     1      28.569  25.787  23.007  1.00  0.00     0.006 C 
HETATM    9  C   LIG     1      29.044  24.638  23.917  1.00  0.00    -0.006 C 
HETATM   10  C   LIG     1      29.049  25.074  25.411  1.00  0.00     0.005 C 
HETATM   11  C   LIG     1      27.789  24.696  26.212  1.00  0.00     0.000 C 
HETATM   12  C   LIG     1      26.560  24.508  25.330  1.00  0.00     0.001 C 
HETATM   13  C   LIG     1      26.771  23.472  24.205  1.00  0.00     0.010 C 
HETATM   14  C   LIG     1      26.577  24.399  20.662  1.00  0.00     0.006 C 
HETATM   15  C   LIG     1      26.465  25.375  19.455  1.00  0.00     0.013 C 
HETATM   16  C   LIG     1      25.881  24.628  18.263  1.00  0.00     0.079 C 
HETATM   17  C   LIG     1      25.847  23.080  20.229  1.00  0.00     0.021 C 
HETATM   18  C   LIG     1      24.512  22.891  20.984  1.00  0.00     0.024 C 
HETATM   19  C   LIG     1      25.525  23.298  18.786  1.00  0.00     0.135 C 
HETATM   20  O   LIG     1      24.998  22.447  18.085  1.00  0.00    -0.297 OA
ENDROOT
TORSDOF 0
ENDMDL
MODEL 16
REMARK VINA RESULT:      -4.7     15.006     16.609
REMARK  0 active torsions:
REMARK  status: ('A' for Active; 'I' for Inactive)
ROOT
HETATM    1  C   LIG     1      24.679  18.196  19.680  1.00  0.00     0.016 C 
HETATM    2  C   LIG     1      24.536  19.525  18.880  1.00  0.00    -0.036 C 
HETATM    3  C   LIG     1      25.310  20.645  19.707  1.00  0.00    -0.002 C 
HETATM    4  C   LIG     1      26.849  20.404  19.771  1.00  0.00     0.007 C 
HETATM    5  C   LIG     1      27.671  21.694  19.769  1.00  0.00     0.018 C 
HETATM    6  C   LIG     1      24.943  22.140  19.402  1.00  0.00    -0.004 C 
HETATM    7  C   LIG     1      23.420  22.333  19.201  1.00  0.00     0.006 C 
HETATM    8  C   LIG     1      22.810  21.311  18.255  1.00  0.00     0.006 C 
HETATM    9  C   LIG     1      23.018  19.882  18.793  1.00  0.00    -0.006 C 
HETATM   10  C   LIG     1      22.181  18.851  17.981  1.00  0.00     0.005 C 
HETATM   11  C   LIG     1      22.937  18.138  16.844  1.00  0.00     0.000 C 
HETATM   12  C   LIG     1      24.128  18.938  16.331  1.00  0.00     0.001 C 
HETATM   13  C   LIG     1      25.131  19.316  17.442  1.00  0.00     0.010 C 
HETATM   14  C   LIG     1      25.833  22.810  18.305  1.00  0.00     0.006 C 
HETATM   15  C   LIG     1      25.630  24.353  18.254  1.00  0.00     0.013 C 
HETATM   16  C   LIG     1      26.936  25.039  18.635  1.00  0.00     0.079 C 
HETATM   17  C   LIG     1      27.367  22.576  18.530  1.00  0.00     0.021 C 
HETATM   18  C   LIG     1      28.050  22.011  17.264  1.00  0.00     0.024 C 
HETATM   19  C   LIG     1      27.915  23.947  18.766  1.00  0.00     0.135 C 
HETATM   20  O   LIG     1      29.087  24.158  19.039  1.00  0.00    -0.297 OA
ENDROOT
TORSDOF 0
ENDMDL
MODEL 17
REMARK VINA RESULT:      -4.7      8.975     11.898
REMARK  0 active torsions:
REMARK  status: ('A' for Active; 'I' for Inactive)
ROOT
HETATM    1  C   LIG     1      28.432  22.600  19.687  1.00  0.00     0.016 C 
HETATM    2  C   LIG     1      27.274  23.075  20.614  1.00  0.00    -0.036 C 
HETATM    3  C   LIG     1      27.486  22.357  22.020  1.00  0.00    -0.002 C 
HETATM    4  C   LIG     1      28.779  22.823  22.757  1.00  0.00     0.007 C 
HETATM    5  C   LIG     1      28.634  22.864  24.279  1.00  0.00     0.018 C 
HETATM    6  C   LIG     1      26.242  22.272  22.973  1.00  0.00    -0.004 C 
HETATM    7  C   LIG     1      24.941  21.947  22.200  1.00  0.00     0.006 C 
HETATM    8  C   LIG     1      24.750  22.813  20.964  1.00  0.00     0.006 C 
HETATM    9  C   LIG     1      25.921  22.618  19.981  1.00  0.00    -0.006 C 
HETATM   10  C   LIG     1      25.617  23.288  18.610  1.00  0.00     0.005 C 
HETATM   11  C   LIG     1      26.184  24.709  18.430  1.00  0.00     0.000 C 
HETATM   12  C   LIG     1      26.414  25.427  19.754  1.00  0.00     0.001 C 
HETATM   13  C   LIG     1      27.324  24.642  20.723  1.00  0.00     0.010 C 
HETATM   14  C   LIG     1      26.120  23.462  23.979  1.00  0.00     0.006 C 
HETATM   15  C   LIG     1      25.059  23.184  25.085  1.00  0.00     0.013 C 
HETATM   16  C   LIG     1      25.755  23.123  26.438  1.00  0.00     0.079 C 
HETATM   17  C   LIG     1      27.462  23.776  24.728  1.00  0.00     0.021 C 
HETATM   18  C   LIG     1      27.844  25.269  24.615  1.00  0.00     0.024 C 
HETATM   19  C   LIG     1      27.153  23.494  26.163  1.00  0.00     0.135 C 
HETATM   20  O   LIG     1      27.989  23.573  27.052  1.00  0.00    -0.297 OA
ENDROOT
TORSDOF 0
ENDMDL
MODEL 18
REMARK VINA RESULT:      -4.6     13.284     15.219
REMARK  0 active torsions:
REMARK  status: ('A' for Active; 'I' for Inactive)
ROOT
HETATM    1  C   LIG     1      24.019  23.077  21.466  1.00  0.00     0.016 C 
HETATM    2  C   LIG     1      25.295  22.601  20.708  1.00  0.00    -0.036 C 
HETATM    3  C   LIG     1      25.484  23.580  19.466  1.00  0.00    -0.002 C 
HETATM    4  C   LIG     1      25.816  25.045  19.887  1.00  0.00     0.007 C 
HETATM    5  C   LIG     1      26.762  25.760  18.921  1.00  0.00     0.018 C 
HETATM    6  C   LIG     1      26.384  23.070  18.285  1.00  0.00    -0.004 C 
HETATM    7  C   LIG     1      26.141  21.573  17.977  1.00  0.00     0.006 C 
HETATM    8  C   LIG     1      26.151  20.699  19.221  1.00  0.00     0.006 C 
HETATM    9  C   LIG     1      25.050  21.143  20.204  1.00  0.00    -0.006 C 
HETATM   10  C   LIG     1      24.875  20.107  21.352  1.00  0.00     0.005 C 
HETATM   11  C   LIG     1      25.646  20.423  22.648  1.00  0.00     0.000 C 
HETATM   12  C   LIG     1      26.860  21.314  22.413  1.00  0.00     0.001 C 
HETATM   13  C   LIG     1      26.514  22.637  21.698  1.00  0.00     0.010 C 
HETATM   14  C   LIG     1      27.890  23.473  18.404  1.00  0.00     0.006 C 
HETATM   15  C   LIG     1      28.669  23.207  17.082  1.00  0.00     0.013 C 
HETATM   16  C   LIG     1      29.158  24.535  16.517  1.00  0.00     0.079 C 
HETATM   17  C   LIG     1      28.097  24.992  18.738  1.00  0.00     0.021 C 
HETATM   18  C   LIG     1      29.023  25.186  19.960  1.00  0.00     0.024 C 
HETATM   19  C   LIG     1      28.807  25.535  17.540  1.00  0.00     0.135 C 
HETATM   20  O   LIG     1      29.089  26.717  17.412  1.00  0.00    -0.297 OA
ENDROOT
TORSDOF 0
ENDMDL
MODEL 19
REMARK VINA RESULT:      -4.6      9.963     13.994
REMARK  0 active torsions:
REMARK  status: ('A' for Active; 'I' for Inactive)
ROOT
HETATM    1  C   LIG     1      25.944  20.208  25.011  1.00  0.00     0.016 C 
HETATM    2  C   LIG     1      25.955  21.424  24.037  1.00  0.00    -0.036 C 
HETATM    3  C   LIG     1      25.792  20.835  22.565  1.00  0.00    -0.002 C 
HETATM    4  C   LIG     1      24.403  20.167  22.324  1.00  0.00     0.007 C 
HETATM    5  C   LIG     1      23.879  20.344  20.898  1.00  0.00     0.018 C 
HETATM    6  C   LIG     1      26.236  21.756  21.374  1.00  0.00    -0.004 C 
HETATM    7  C   LIG     1      27.544  22.521  21.691  1.00  0.00     0.006 C 
HETATM    8  C   LIG     1      27.527  23.192  23.055  1.00  0.00     0.006 C 
HETATM    9  C   LIG     1      27.333  22.147  24.170  1.00  0.00    -0.006 C 
HETATM   10  C   LIG     1      27.573  22.776  25.574  1.00  0.00     0.005 C 
HETATM   11  C   LIG     1      26.306  23.254  26.307  1.00  0.00     0.000 C 
HETATM   12  C   LIG     1      25.157  23.575  25.359  1.00  0.00     0.001 C 
HETATM   13  C   LIG     1      24.787  22.398  24.431  1.00  0.00     0.010 C 
HETATM   14  C   LIG     1      25.091  22.643  20.784  1.00  0.00     0.006 C 
HETATM   15  C   LIG     1      25.502  23.303  19.435  1.00  0.00     0.013 C 
HETATM   16  C   LIG     1      24.607  22.767  18.326  1.00  0.00     0.079 C 
HETATM   17  C   LIG     1      23.775  21.839  20.497  1.00  0.00     0.021 C 
HETATM   18  C   LIG     1      22.544  22.506  21.149  1.00  0.00     0.024 C 
HETATM   19  C   LIG     1      23.609  21.930  19.014  1.00  0.00     0.135 C 
HETATM   20  O   LIG     1      22.710  21.366  18.409  1.00  0.00    -0.297 OA
ENDROOT
TORSDOF 0
ENDMDL
MODEL 20
REMARK VINA RESULT:      -4.6     13.330     15.871
REMARK  0 active torsions:
REMARK  status: ('A' for Active; 'I' for Inactive)
ROOT
HETATM    1  C   LIG     1      23.176  23.501  21.628  1.00  0.00     0.016 C 
HETATM    2  C   LIG     1      24.002  22.281  21.121  1.00  0.00    -0.036 C 
HETATM    3  C   LIG     1      24.438  22.611  19.625  1.00  0.00    -0.002 C 
HETATM    4  C   LIG     1      25.431  23.809  19.527  1.00  0.00     0.007 C 
HETATM    5  C   LIG     1      26.459  23.661  18.404  1.00  0.00     0.018 C 
HETATM    6  C   LIG     1      24.859  21.399  18.720  1.00  0.00    -0.004 C 
HETATM    7  C   LIG     1      23.945  20.169  18.938  1.00  0.00     0.006 C 
HETATM    8  C   LIG     1      23.732  19.836  20.407  1.00  0.00     0.006 C 
HETATM    9  C   LIG     1      23.078  21.022  21.141  1.00  0.00    -0.006 C 
HETATM   10  C   LIG     1      22.617  20.609  22.569  1.00  0.00     0.005 C 
HETATM   11  C   LIG     1      23.611  20.932  23.701  1.00  0.00     0.000 C 
HETATM   12  C   LIG     1      25.050  21.042  23.213  1.00  0.00     0.001 C 
HETATM   13  C   LIG     1      25.231  22.070  22.077  1.00  0.00     0.010 C 
HETATM   14  C   LIG     1      26.390  21.082  18.741  1.00  0.00     0.006 C 
HETATM   15  C   LIG     1      26.793  20.083  17.616  1.00  0.00     0.013 C 
HETATM   16  C   LIG     1      27.737  20.781  16.646  1.00  0.00     0.079 C 
HETATM   17  C   LIG     1      27.285  22.354  18.539  1.00  0.00     0.021 C 
HETATM   18  C   LIG     1      28.353  22.483  19.649  1.00  0.00     0.024 C 
HETATM   19  C   LIG     1      27.998  22.098  17.251  1.00  0.00     0.135 C 
HETATM   20  O   LIG     1      28.752  22.910  16.734  1.00  0.00    -0.297 OA
ENDROOT
TORSDOF 0
ENDMDL
