REMARK  0 active torsions:
REMARK  status: ('A' for Active; 'I' for Inactive)
ROOT
HETATM    1  C   LIG     1       2.140  -1.271   1.938  1.00  0.00     0.016 C 
HETATM    2  C   LIG     1       1.450  -0.593   0.717  1.00  0.00    -0.036 C 
HETATM    3  C   LIG     1      -0.052  -1.123   0.685  1.00  0.00    -0.002 C 
HETATM    4  C   LIG     1      -0.894  -0.649   1.909  1.00  0.00     0.007 C 
HETATM    5  C   LIG     1      -2.364  -0.388   1.576  1.00  0.00     0.018 C 
HETATM    6  C   LIG     1      -0.828  -0.989  -0.673  1.00  0.00    -0.004 C 
HETATM    7  C   LIG     1       0.069  -1.327  -1.888  1.00  0.00     0.006 C 
HETATM    8  C   LIG     1       1.420  -0.630  -1.844  1.00  0.00     0.006 C 
HETATM    9  C   LIG     1       2.199  -1.039  -0.579  1.00  0.00    -0.006 C 
HETATM   10  C   LIG     1       3.674  -0.546  -0.647  1.00  0.00     0.005 C 
HETATM   11  C   LIG     1       3.954   0.794   0.059  1.00  0.00     0.000 C 
HETATM   12  C   LIG     1       2.714   1.671   0.181  1.00  0.00     0.001 C 
HETATM   13  C   LIG     1       1.537   0.966   0.888  1.00  0.00     0.010 C 
HETATM   14  C   LIG     1      -1.647   0.335  -0.818  1.00  0.00     0.006 C 
HETATM   15  C   LIG     1      -2.622   0.286  -2.031  1.00  0.00     0.013 C 
HETATM   16  C   LIG     1      -4.055   0.365  -1.521  1.00  0.00     0.079 C 
HETATM   17  C   LIG     1      -2.527   0.656   0.440  1.00  0.00     0.021 C 
HETATM   18  C   LIG     1      -2.277   2.089   0.961  1.00  0.00     0.024 C 
HETATM   19  C   LIG     1      -3.930   0.598  -0.072  1.00  0.00     0.135 C 
HETATM   20  O   LIG     1      -4.908   0.741   0.647  1.00  0.00    -0.297 OA
ENDROOT
TORSDOF 0
