MODEL 1
REMARK VINA RESULT:      -6.9      0.000      0.000
REMARK  8 active torsions:
REMARK  status: ('A' for Active; 'I' for Inactive)
REMARK    1  A    between atoms: C_2  and  N_3 
REMARK    2  A    between atoms: N_3  and  C_19 
REMARK    3  A    between atoms: N_3  and  C_4 
REMARK    4  A    between atoms: C_4  and  C_5 
REMARK    5  A    between atoms: C_5  and  N_6 
REMARK       I    between atoms: N_6  and  C_7 
REMARK    6  A    between atoms: C_7  and  C_8 
REMARK    7  A    between atoms: C_9  and  O_10 
REMARK    8  A    between atoms: C_13  and  N_14 
ROOT
HETATM    1  C   LIG     1      17.346  36.624  22.241  1.00  0.00     0.067 A 
HETATM    2  C   LIG     1      17.447  37.990  22.566  1.00  0.00     0.086 A 
HETATM    3  C   LIG     1      17.446  38.377  23.920  1.00  0.00     0.068 A 
HETATM    4  C   LIG     1      17.371  37.419  24.941  1.00  0.00     0.050 A 
HETATM    5  C   LIG     1      17.300  36.054  24.606  1.00  0.00     0.061 A 
HETATM    6 CL   LIG     1      17.213  34.800  25.837  1.00  0.00    -0.082 Cl
HETATM    7  C   LIG     1      17.293  35.667  23.262  1.00  0.00     0.046 A 
ENDROOT
BRANCH   1   8
HETATM    8  C   LIG     1      17.324  36.178  20.835  1.00  0.00     0.254 C 
HETATM    9  N   LIG     1      16.143  35.623  20.238  1.00  0.00    -0.355 N 
HETATM   10  H   LIG     1      16.143  35.496  19.201  1.00  0.00     0.162 HD
HETATM   11  O   LIG     1      18.377  36.267  20.149  1.00  0.00    -0.268 OA
BRANCH   9  12
HETATM   12  C   LIG     1      15.037  35.090  21.037  1.00  0.00     0.153 C 
BRANCH  12  13
HETATM   13  C   LIG     1      14.863  33.573  20.843  1.00  0.00     0.292 C 
BRANCH  13  14
HETATM   14  N   LIG     1      15.562  33.094  19.626  1.00  0.00     0.089 N 
BRANCH  14  15
HETATM   15  C   LIG     1      14.855  33.407  18.360  1.00  0.00     0.268 C 
HETATM   16  C   LIG     1      15.310  32.564  17.158  1.00  0.00     0.037 C 
ENDBRANCH  14  15
BRANCH  14  17
HETATM   17  C   LIG     1      15.940  31.667  19.725  1.00  0.00     0.268 C 
HETATM   18  C   LIG     1      14.803  30.859  20.345  1.00  0.00     0.037 C 
ENDBRANCH  14  17
ENDBRANCH  13  14
ENDBRANCH  12  13
ENDBRANCH   9  12
ENDBRANCH   1   8
BRANCH   2  19
HETATM   19  O   LIG     1      17.565  38.928  21.527  1.00  0.00    -0.355 OA
HETATM   20  C   LIG     1      18.786  39.537  21.121  1.00  0.00     0.210 C 
ENDBRANCH   2  19
BRANCH   4  21
HETATM   21  N   LIG     1      17.374  37.850  26.308  1.00  0.00    -0.398 N 
HETATM   22  H   LIG     1      18.249  38.216  26.747  1.00  0.00     0.156 HD
HETATM   23  H   LIG     1      16.518  37.814  26.902  1.00  0.00     0.156 HD
ENDBRANCH   4  21
TORSDOF 8
ENDMDL
MODEL 2
REMARK VINA RESULT:      -6.7      2.647      3.551
REMARK  8 active torsions:
REMARK  status: ('A' for Active; 'I' for Inactive)
REMARK    1  A    between atoms: C_2  and  N_3 
REMARK    2  A    between atoms: N_3  and  C_19 
REMARK    3  A    between atoms: N_3  and  C_4 
REMARK    4  A    between atoms: C_4  and  C_5 
REMARK    5  A    between atoms: C_5  and  N_6 
REMARK       I    between atoms: N_6  and  C_7 
REMARK    6  A    between atoms: C_7  and  C_8 
REMARK    7  A    between atoms: C_9  and  O_10 
REMARK    8  A    between atoms: C_13  and  N_14 
ROOT
HETATM    1  C   LIG     1      17.295  36.494  22.207  1.00  0.00     0.067 A 
HETATM    2  C   LIG     1      17.242  37.685  22.955  1.00  0.00     0.086 A 
HETATM    3  C   LIG     1      17.818  38.855  22.425  1.00  0.00     0.068 A 
HETATM    4  C   LIG     1      18.419  38.851  21.158  1.00  0.00     0.050 A 
HETATM    5  C   LIG     1      18.440  37.661  20.406  1.00  0.00     0.061 A 
HETATM    6 CL   LIG     1      19.168  37.587  18.806  1.00  0.00    -0.082 Cl
HETATM    7  C   LIG     1      17.875  36.495  20.932  1.00  0.00     0.046 A 
ENDROOT
BRANCH   1   8
HETATM    8  C   LIG     1      16.720  35.242  22.734  1.00  0.00     0.254 C 
HETATM    9  N   LIG     1      15.782  34.464  21.975  1.00  0.00    -0.355 N 
HETATM   10  H   LIG     1      15.555  33.507  22.328  1.00  0.00     0.162 HD
HETATM   11  O   LIG     1      17.044  34.858  23.890  1.00  0.00    -0.268 OA
BRANCH   9  12
HETATM   12  C   LIG     1      15.031  35.023  20.848  1.00  0.00     0.153 C 
BRANCH  12  13
HETATM   13  C   LIG     1      15.662  34.655  19.494  1.00  0.00     0.292 C 
BRANCH  13  14
HETATM   14  N   LIG     1      15.043  33.439  18.913  1.00  0.00     0.089 N 
BRANCH  14  15
HETATM   15  C   LIG     1      15.660  32.169  19.369  1.00  0.00     0.268 C 
HETATM   16  C   LIG     1      14.744  31.302  20.247  1.00  0.00     0.037 C 
ENDBRANCH  14  15
BRANCH  14  17
HETATM   17  C   LIG     1      14.933  33.518  17.440  1.00  0.00     0.268 C 
HETATM   18  C   LIG     1      14.244  32.272  16.892  1.00  0.00     0.037 C 
ENDBRANCH  14  17
ENDBRANCH  13  14
ENDBRANCH  12  13
ENDBRANCH   9  12
ENDBRANCH   1   8
BRANCH   2  19
HETATM   19  O   LIG     1      16.596  37.676  24.203  1.00  0.00    -0.355 OA
HETATM   20  C   LIG     1      17.220  38.007  25.439  1.00  0.00     0.210 C 
ENDBRANCH   2  19
BRANCH   4  21
HETATM   21  N   LIG     1      18.994  40.062  20.650  1.00  0.00    -0.398 N 
HETATM   22  H   LIG     1      18.636  40.489  19.766  1.00  0.00     0.156 HD
HETATM   23  H   LIG     1      19.775  40.550  21.138  1.00  0.00     0.156 HD
ENDBRANCH   4  21
TORSDOF 8
ENDMDL
MODEL 3
REMARK VINA RESULT:      -6.7      2.930      5.083
REMARK  8 active torsions:
REMARK  status: ('A' for Active; 'I' for Inactive)
REMARK    1  A    between atoms: C_2  and  N_3 
REMARK    2  A    between atoms: N_3  and  C_19 
REMARK    3  A    between atoms: N_3  and  C_4 
REMARK    4  A    between atoms: C_4  and  C_5 
REMARK    5  A    between atoms: C_5  and  N_6 
REMARK       I    between atoms: N_6  and  C_7 
REMARK    6  A    between atoms: C_7  and  C_8 
REMARK    7  A    between atoms: C_9  and  O_10 
REMARK    8  A    between atoms: C_13  and  N_14 
ROOT
HETATM    1  C   LIG     1      16.952  37.641  23.332  1.00  0.00     0.067 A 
HETATM    2  C   LIG     1      16.630  36.332  22.925  1.00  0.00     0.086 A 
HETATM    3  C   LIG     1      16.954  35.251  23.766  1.00  0.00     0.068 A 
HETATM    4  C   LIG     1      17.569  35.466  25.008  1.00  0.00     0.050 A 
HETATM    5  C   LIG     1      17.860  36.781  25.418  1.00  0.00     0.061 A 
HETATM    6 CL   LIG     1      18.621  37.122  26.968  1.00  0.00    -0.082 Cl
HETATM    7  C   LIG     1      17.546  37.856  24.582  1.00  0.00     0.046 A 
ENDROOT
BRANCH   1   8
HETATM    8  C   LIG     1      16.646  38.800  22.471  1.00  0.00     0.254 C 
HETATM    9  N   LIG     1      17.602  39.315  21.532  1.00  0.00    -0.355 N 
HETATM   10  H   LIG     1      17.261  40.015  20.836  1.00  0.00     0.162 HD
HETATM   11  O   LIG     1      15.525  39.364  22.581  1.00  0.00    -0.268 OA
BRANCH   9  12
HETATM   12  C   LIG     1      19.034  39.022  21.631  1.00  0.00     0.153 C 
BRANCH  12  13
HETATM   13  C   LIG     1      19.746  39.156  20.274  1.00  0.00     0.292 C 
BRANCH  13  14
HETATM   14  N   LIG     1      18.879  38.711  19.156  1.00  0.00     0.089 N 
BRANCH  14  15
HETATM   15  C   LIG     1      18.664  37.244  19.103  1.00  0.00     0.268 C 
HETATM   16  C   LIG     1      19.887  36.411  19.515  1.00  0.00     0.037 C 
ENDBRANCH  14  15
BRANCH  14  17
HETATM   17  C   LIG     1      19.318  39.265  17.855  1.00  0.00     0.268 C 
HETATM   18  C   LIG     1      18.180  40.040  17.197  1.00  0.00     0.037 C 
ENDBRANCH  14  17
ENDBRANCH  13  14
ENDBRANCH  12  13
ENDBRANCH   9  12
ENDBRANCH   1   8
BRANCH   2  19
HETATM   19  O   LIG     1      15.975  36.145  21.696  1.00  0.00    -0.355 OA
HETATM   20  C   LIG     1      16.220  35.063  20.805  1.00  0.00     0.210 C 
ENDBRANCH   2  19
BRANCH   4  21
HETATM   21  N   LIG     1      17.883  34.341  25.840  1.00  0.00    -0.398 N 
HETATM   22  H   LIG     1      17.184  33.579  25.987  1.00  0.00     0.156 HD
HETATM   23  H   LIG     1      18.806  34.246  26.317  1.00  0.00     0.156 HD
ENDBRANCH   4  21
TORSDOF 8
ENDMDL
MODEL 4
REMARK VINA RESULT:      -5.8      4.098      8.094
REMARK  8 active torsions:
REMARK  status: ('A' for Active; 'I' for Inactive)
REMARK    1  A    between atoms: C_2  and  N_3 
REMARK    2  A    between atoms: N_3  and  C_19 
REMARK    3  A    between atoms: N_3  and  C_4 
REMARK    4  A    between atoms: C_4  and  C_5 
REMARK    5  A    between atoms: C_5  and  N_6 
REMARK       I    between atoms: N_6  and  C_7 
REMARK    6  A    between atoms: C_7  and  C_8 
REMARK    7  A    between atoms: C_9  and  O_10 
REMARK    8  A    between atoms: C_13  and  N_14 
ROOT
HETATM    1  C   LIG     1      14.995  32.962  16.324  1.00  0.00     0.067 A 
HETATM    2  C   LIG     1      16.132  32.618  15.569  1.00  0.00     0.086 A 
HETATM    3  C   LIG     1      16.177  31.366  14.926  1.00  0.00     0.068 A 
HETATM    4  C   LIG     1      15.097  30.476  15.010  1.00  0.00     0.050 A 
HETATM    5  C   LIG     1      13.953  30.842  15.744  1.00  0.00     0.061 A 
HETATM    6 CL   LIG     1      12.559  29.777  15.882  1.00  0.00    -0.082 Cl
HETATM    7  C   LIG     1      13.908  32.081  16.390  1.00  0.00     0.046 A 
ENDROOT
BRANCH   1   8
HETATM    8  C   LIG     1      14.916  34.256  17.029  1.00  0.00     0.254 C 
HETATM    9  N   LIG     1      15.374  34.408  18.381  1.00  0.00    -0.355 N 
HETATM   10  H   LIG     1      15.454  35.381  18.754  1.00  0.00     0.162 HD
HETATM   11  O   LIG     1      14.411  35.246  16.435  1.00  0.00    -0.268 OA
BRANCH   9  12
HETATM   12  C   LIG     1      15.564  33.265  19.277  1.00  0.00     0.153 C 
BRANCH  12  13
HETATM   13  C   LIG     1      15.800  33.705  20.733  1.00  0.00     0.292 C 
BRANCH  13  14
HETATM   14  N   LIG     1      15.937  35.178  20.843  1.00  0.00     0.089 N 
BRANCH  14  15
HETATM   15  C   LIG     1      17.257  35.627  21.352  1.00  0.00     0.268 C 
HETATM   16  C   LIG     1      18.072  36.456  20.347  1.00  0.00     0.037 C 
ENDBRANCH  14  15
BRANCH  14  17
HETATM   17  C   LIG     1      14.809  35.789  21.581  1.00  0.00     0.268 C 
HETATM   18  C   LIG     1      15.285  37.014  22.357  1.00  0.00     0.037 C 
ENDBRANCH  14  17
ENDBRANCH  13  14
ENDBRANCH  12  13
ENDBRANCH   9  12
ENDBRANCH   1   8
BRANCH   2  19
HETATM   19  O   LIG     1      17.183  33.545  15.463  1.00  0.00    -0.355 OA
HETATM   20  C   LIG     1      17.846  33.881  14.249  1.00  0.00     0.210 C 
ENDBRANCH   2  19
BRANCH   4  21
HETATM   21  N   LIG     1      15.178  29.211  14.341  1.00  0.00    -0.398 N 
HETATM   22  H   LIG     1      15.932  28.529  14.583  1.00  0.00     0.156 HD
HETATM   23  H   LIG     1      14.496  28.931  13.603  1.00  0.00     0.156 HD
ENDBRANCH   4  21
TORSDOF 8
ENDMDL
MODEL 5
REMARK VINA RESULT:      -5.6      8.116     10.492
REMARK  8 active torsions:
REMARK  status: ('A' for Active; 'I' for Inactive)
REMARK    1  A    between atoms: C_2  and  N_3 
REMARK    2  A    between atoms: N_3  and  C_19 
REMARK    3  A    between atoms: N_3  and  C_4 
REMARK    4  A    between atoms: C_4  and  C_5 
REMARK    5  A    between atoms: C_5  and  N_6 
REMARK       I    between atoms: N_6  and  C_7 
REMARK    6  A    between atoms: C_7  and  C_8 
REMARK    7  A    between atoms: C_9  and  O_10 
REMARK    8  A    between atoms: C_13  and  N_14 
ROOT
HETATM    1  C   LIG     1      15.287  31.236  15.151  1.00  0.00     0.067 A 
HETATM    2  C   LIG     1      13.947  31.181  15.578  1.00  0.00     0.086 A 
HETATM    3  C   LIG     1      13.122  30.135  15.124  1.00  0.00     0.068 A 
HETATM    4  C   LIG     1      13.626  29.140  14.274  1.00  0.00     0.050 A 
HETATM    5  C   LIG     1      14.976  29.187  13.876  1.00  0.00     0.061 A 
HETATM    6 CL   LIG     1      15.675  27.966  12.820  1.00  0.00    -0.082 Cl
HETATM    7  C   LIG     1      15.796  30.229  14.321  1.00  0.00     0.046 A 
ENDROOT
BRANCH   1   8
HETATM    8  C   LIG     1      16.179  32.326  15.589  1.00  0.00     0.254 C 
HETATM    9  N   LIG     1      16.811  33.207  14.649  1.00  0.00    -0.355 N 
HETATM   10  H   LIG     1      17.282  34.059  15.031  1.00  0.00     0.162 HD
HETATM   11  O   LIG     1      16.409  32.471  16.820  1.00  0.00    -0.268 OA
BRANCH   9  12
HETATM   12  C   LIG     1      16.957  32.867  13.232  1.00  0.00     0.153 C 
BRANCH  12  13
HETATM   13  C   LIG     1      17.796  33.908  12.471  1.00  0.00     0.292 C 
BRANCH  13  14
HETATM   14  N   LIG     1      19.141  33.384  12.130  1.00  0.00     0.089 N 
BRANCH  14  15
HETATM   15  C   LIG     1      20.187  33.701  13.134  1.00  0.00     0.268 C 
HETATM   16  C   LIG     1      21.422  34.410  12.557  1.00  0.00     0.037 C 
ENDBRANCH  14  15
BRANCH  14  17
HETATM   17  C   LIG     1      19.549  33.746  10.755  1.00  0.00     0.268 C 
HETATM   18  C   LIG     1      18.742  34.944  10.261  1.00  0.00     0.037 C 
ENDBRANCH  14  17
ENDBRANCH  13  14
ENDBRANCH  12  13
ENDBRANCH   9  12
ENDBRANCH   1   8
BRANCH   2  19
HETATM   19  O   LIG     1      13.476  32.165  16.464  1.00  0.00    -0.355 OA
HETATM   20  C   LIG     1      12.106  32.369  16.794  1.00  0.00     0.210 C 
ENDBRANCH   2  19
BRANCH   4  21
HETATM   21  N   LIG     1      12.758  28.088  13.832  1.00  0.00    -0.398 N 
HETATM   22  H   LIG     1      11.720  28.205  13.872  1.00  0.00     0.156 HD
HETATM   23  H   LIG     1      13.126  27.186  13.461  1.00  0.00     0.156 HD
ENDBRANCH   4  21
TORSDOF 8
ENDMDL
MODEL 6
REMARK VINA RESULT:      -5.5      4.891      8.984
REMARK  8 active torsions:
REMARK  status: ('A' for Active; 'I' for Inactive)
REMARK    1  A    between atoms: C_2  and  N_3 
REMARK    2  A    between atoms: N_3  and  C_19 
REMARK    3  A    between atoms: N_3  and  C_4 
REMARK    4  A    between atoms: C_4  and  C_5 
REMARK    5  A    between atoms: C_5  and  N_6 
REMARK       I    between atoms: N_6  and  C_7 
REMARK    6  A    between atoms: C_7  and  C_8 
REMARK    7  A    between atoms: C_9  and  O_10 
REMARK    8  A    between atoms: C_13  and  N_14 
ROOT
HETATM    1  C   LIG     1      13.948  31.390  15.769  1.00  0.00     0.067 A 
HETATM    2  C   LIG     1      15.137  31.748  15.109  1.00  0.00     0.086 A 
HETATM    3  C   LIG     1      15.679  30.874  14.147  1.00  0.00     0.068 A 
HETATM    4  C   LIG     1      15.037  29.669  13.827  1.00  0.00     0.050 A 
HETATM    5  C   LIG     1      13.831  29.335  14.473  1.00  0.00     0.061 A 
HETATM    6 CL   LIG     1      12.968  27.845  14.111  1.00  0.00    -0.082 Cl
HETATM    7  C   LIG     1      13.294  30.197  15.433  1.00  0.00     0.046 A 
ENDROOT
BRANCH   1   8
HETATM    8  C   LIG     1      13.357  32.268  16.797  1.00  0.00     0.254 C 
HETATM    9  N   LIG     1      14.107  32.701  17.941  1.00  0.00    -0.355 N 
HETATM   10  H   LIG     1      13.691  33.459  18.530  1.00  0.00     0.162 HD
HETATM   11  O   LIG     1      12.155  32.629  16.676  1.00  0.00    -0.268 OA
BRANCH   9  12
HETATM   12  C   LIG     1      15.321  32.014  18.389  1.00  0.00     0.153 C 
BRANCH  12  13
HETATM   13  C   LIG     1      15.755  32.464  19.794  1.00  0.00     0.292 C 
BRANCH  13  14
HETATM   14  N   LIG     1      15.209  33.801  20.134  1.00  0.00     0.089 N 
BRANCH  14  15
HETATM   15  C   LIG     1      16.175  34.912  19.957  1.00  0.00     0.268 C 
HETATM   16  C   LIG     1      16.774  35.443  21.269  1.00  0.00     0.037 C 
ENDBRANCH  14  15
BRANCH  14  17
HETATM   17  C   LIG     1      14.564  33.818  21.466  1.00  0.00     0.268 C 
HETATM   18  C   LIG     1      13.855  32.493  21.729  1.00  0.00     0.037 C 
ENDBRANCH  14  17
ENDBRANCH  13  14
ENDBRANCH  12  13
ENDBRANCH   9  12
ENDBRANCH   1   8
BRANCH   2  19
HETATM   19  O   LIG     1      15.741  32.980  15.414  1.00  0.00    -0.355 OA
HETATM   20  C   LIG     1      17.092  33.314  15.120  1.00  0.00     0.210 C 
ENDBRANCH   2  19
BRANCH   4  21
HETATM   21  N   LIG     1      15.617  28.805  12.841  1.00  0.00    -0.398 N 
HETATM   22  H   LIG     1      15.314  27.807  12.766  1.00  0.00     0.156 HD
HETATM   23  H   LIG     1      16.347  29.137  12.175  1.00  0.00     0.156 HD
ENDBRANCH   4  21
TORSDOF 8
ENDMDL
MODEL 7
REMARK VINA RESULT:      -5.2      6.192      9.328
REMARK  8 active torsions:
REMARK  status: ('A' for Active; 'I' for Inactive)
REMARK    1  A    between atoms: C_2  and  N_3 
REMARK    2  A    between atoms: N_3  and  C_19 
REMARK    3  A    between atoms: N_3  and  C_4 
REMARK    4  A    between atoms: C_4  and  C_5 
REMARK    5  A    between atoms: C_5  and  N_6 
REMARK       I    between atoms: N_6  and  C_7 
REMARK    6  A    between atoms: C_7  and  C_8 
REMARK    7  A    between atoms: C_9  and  O_10 
REMARK    8  A    between atoms: C_13  and  N_14 
ROOT
HETATM    1  C   LIG     1      16.143  33.350  15.461  1.00  0.00     0.067 A 
HETATM    2  C   LIG     1      15.261  33.441  16.554  1.00  0.00     0.086 A 
HETATM    3  C   LIG     1      14.316  32.418  16.761  1.00  0.00     0.068 A 
HETATM    4  C   LIG     1      14.261  31.306  15.908  1.00  0.00     0.050 A 
HETATM    5  C   LIG     1      15.167  31.212  14.835  1.00  0.00     0.061 A 
HETATM    6 CL   LIG     1      15.160  29.840  13.733  1.00  0.00    -0.082 Cl
HETATM    7  C   LIG     1      16.103  32.229  14.623  1.00  0.00     0.046 A 
ENDROOT
BRANCH   1   8
HETATM    8  C   LIG     1      17.136  34.409  15.198  1.00  0.00     0.254 C 
HETATM    9  N   LIG     1      17.882  34.456  13.973  1.00  0.00    -0.355 N 
HETATM   10  H   LIG     1      18.431  35.324  13.777  1.00  0.00     0.162 HD
HETATM   11  O   LIG     1      17.348  35.282  16.082  1.00  0.00    -0.268 OA
BRANCH   9  12
HETATM   12  C   LIG     1      18.026  33.290  13.098  1.00  0.00     0.153 C 
BRANCH  12  13
HETATM   13  C   LIG     1      18.512  33.680  11.691  1.00  0.00     0.292 C 
BRANCH  13  14
HETATM   14  N   LIG     1      19.921  33.273  11.466  1.00  0.00     0.089 N 
BRANCH  14  15
HETATM   15  C   LIG     1      20.898  34.384  11.584  1.00  0.00     0.268 C 
HETATM   16  C   LIG     1      21.760  34.334  12.855  1.00  0.00     0.037 C 
ENDBRANCH  14  15
BRANCH  14  17
HETATM   17  C   LIG     1      20.087  32.505  10.213  1.00  0.00     0.268 C 
HETATM   18  C   LIG     1      21.079  31.364  10.417  1.00  0.00     0.037 C 
ENDBRANCH  14  17
ENDBRANCH  13  14
ENDBRANCH  12  13
ENDBRANCH   9  12
ENDBRANCH   1   8
BRANCH   2  19
HETATM   19  O   LIG     1      15.364  34.542  17.421  1.00  0.00    -0.355 OA
HETATM   20  C   LIG     1      15.449  34.451  18.838  1.00  0.00     0.210 C 
ENDBRANCH   2  19
BRANCH   4  21
HETATM   21  N   LIG     1      13.286  30.283  16.151  1.00  0.00    -0.398 N 
HETATM   22  H   LIG     1      13.546  29.416  16.673  1.00  0.00     0.156 HD
HETATM   23  H   LIG     1      12.301  30.369  15.821  1.00  0.00     0.156 HD
ENDBRANCH   4  21
TORSDOF 8
ENDMDL
MODEL 8
REMARK VINA RESULT:      -5.2      2.799      3.574
REMARK  8 active torsions:
REMARK  status: ('A' for Active; 'I' for Inactive)
REMARK    1  A    between atoms: C_2  and  N_3 
REMARK    2  A    between atoms: N_3  and  C_19 
REMARK    3  A    between atoms: N_3  and  C_4 
REMARK    4  A    between atoms: C_4  and  C_5 
REMARK    5  A    between atoms: C_5  and  N_6 
REMARK       I    between atoms: N_6  and  C_7 
REMARK    6  A    between atoms: C_7  and  C_8 
REMARK    7  A    between atoms: C_9  and  O_10 
REMARK    8  A    between atoms: C_13  and  N_14 
ROOT
HETATM    1  C   LIG     1      17.191  36.378  21.170  1.00  0.00     0.067 A 
HETATM    2  C   LIG     1      17.199  37.297  22.235  1.00  0.00     0.086 A 
HETATM    3  C   LIG     1      17.908  38.505  22.095  1.00  0.00     0.068 A 
HETATM    4  C   LIG     1      18.582  38.809  20.903  1.00  0.00     0.050 A 
HETATM    5  C   LIG     1      18.542  37.895  19.833  1.00  0.00     0.061 A 
HETATM    6 CL   LIG     1      19.356  38.218  18.307  1.00  0.00    -0.082 Cl
HETATM    7  C   LIG     1      17.845  36.692  19.971  1.00  0.00     0.046 A 
ENDROOT
BRANCH   1   8
HETATM    8  C   LIG     1      16.475  35.092  21.283  1.00  0.00     0.254 C 
HETATM    9  N   LIG     1      15.993  34.393  20.126  1.00  0.00    -0.355 N 
HETATM   10  H   LIG     1      15.658  33.412  20.262  1.00  0.00     0.162 HD
HETATM   11  O   LIG     1      16.264  34.608  22.427  1.00  0.00    -0.268 OA
BRANCH   9  12
HETATM   12  C   LIG     1      15.804  35.055  18.832  1.00  0.00     0.153 C 
BRANCH  12  13
HETATM   13  C   LIG     1      14.879  34.251  17.902  1.00  0.00     0.292 C 
BRANCH  13  14
HETATM   14  N   LIG     1      15.345  32.852  17.742  1.00  0.00     0.089 N 
BRANCH  14  15
HETATM   15  C   LIG     1      15.654  32.473  16.342  1.00  0.00     0.268 C 
HETATM   16  C   LIG     1      14.704  31.421  15.748  1.00  0.00     0.037 C 
ENDBRANCH  14  15
BRANCH  14  17
HETATM   17  C   LIG     1      14.441  31.884  18.404  1.00  0.00     0.268 C 
HETATM   18  C   LIG     1      15.000  31.483  19.766  1.00  0.00     0.037 C 
ENDBRANCH  14  17
ENDBRANCH  13  14
ENDBRANCH  12  13
ENDBRANCH   9  12
ENDBRANCH   1   8
BRANCH   2  19
HETATM   19  O   LIG     1      16.481  36.990  23.404  1.00  0.00    -0.355 OA
HETATM   20  C   LIG     1      16.949  37.227  24.726  1.00  0.00     0.210 C 
ENDBRANCH   2  19
BRANCH   4  21
HETATM   21  N   LIG     1      19.292  40.050  20.795  1.00  0.00    -0.398 N 
HETATM   22  H   LIG     1      20.032  40.177  20.068  1.00  0.00     0.156 HD
HETATM   23  H   LIG     1      19.097  40.856  21.428  1.00  0.00     0.156 HD
ENDBRANCH   4  21
TORSDOF 8
ENDMDL
MODEL 9
REMARK VINA RESULT:      -5.1      5.529      9.539
REMARK  8 active torsions:
REMARK  status: ('A' for Active; 'I' for Inactive)
REMARK    1  A    between atoms: C_2  and  N_3 
REMARK    2  A    between atoms: N_3  and  C_19 
REMARK    3  A    between atoms: N_3  and  C_4 
REMARK    4  A    between atoms: C_4  and  C_5 
REMARK    5  A    between atoms: C_5  and  N_6 
REMARK       I    between atoms: N_6  and  C_7 
REMARK    6  A    between atoms: C_7  and  C_8 
REMARK    7  A    between atoms: C_9  and  O_10 
REMARK    8  A    between atoms: C_13  and  N_14 
ROOT
HETATM    1  C   LIG     1      15.128  31.016  14.558  1.00  0.00     0.067 A 
HETATM    2  C   LIG     1      13.822  30.935  15.076  1.00  0.00     0.086 A 
HETATM    3  C   LIG     1      13.073  29.761  14.869  1.00  0.00     0.068 A 
HETATM    4  C   LIG     1      13.620  28.671  14.177  1.00  0.00     0.050 A 
HETATM    5  C   LIG     1      14.938  28.752  13.688  1.00  0.00     0.061 A 
HETATM    6 CL   LIG     1      15.690  27.419  12.821  1.00  0.00    -0.082 Cl
HETATM    7  C   LIG     1      15.683  29.919  13.886  1.00  0.00     0.046 A 
ENDROOT
BRANCH   1   8
HETATM    8  C   LIG     1      15.940  32.235  14.736  1.00  0.00     0.254 C 
HETATM    9  N   LIG     1      16.365  32.675  16.035  1.00  0.00    -0.355 N 
HETATM   10  H   LIG     1      17.081  33.436  16.074  1.00  0.00     0.162 HD
HETATM   11  O   LIG     1      16.249  32.918  13.723  1.00  0.00    -0.268 OA
BRANCH   9  12
HETATM   12  C   LIG     1      15.719  32.219  17.267  1.00  0.00     0.153 C 
BRANCH  12  13
HETATM   13  C   LIG     1      15.195  33.392  18.114  1.00  0.00     0.292 C 
BRANCH  13  14
HETATM   14  N   LIG     1      15.271  33.096  19.565  1.00  0.00     0.089 N 
BRANCH  14  15
HETATM   15  C   LIG     1      15.908  34.169  20.368  1.00  0.00     0.268 C 
HETATM   16  C   LIG     1      14.977  34.823  21.401  1.00  0.00     0.037 C 
ENDBRANCH  14  15
BRANCH  14  17
HETATM   17  C   LIG     1      15.857  31.765  19.833  1.00  0.00     0.268 C 
HETATM   18  C   LIG     1      14.796  30.821  20.392  1.00  0.00     0.037 C 
ENDBRANCH  14  17
ENDBRANCH  13  14
ENDBRANCH  12  13
ENDBRANCH   9  12
ENDBRANCH   1   8
BRANCH   2  19
HETATM   19  O   LIG     1      13.310  32.023  15.803  1.00  0.00    -0.355 OA
HETATM   20  C   LIG     1      12.244  31.939  16.741  1.00  0.00     0.210 C 
ENDBRANCH   2  19
BRANCH   4  21
HETATM   21  N   LIG     1      12.828  27.491  13.986  1.00  0.00    -0.398 N 
HETATM   22  H   LIG     1      11.998  27.306  14.592  1.00  0.00     0.156 HD
HETATM   23  H   LIG     1      13.050  26.790  13.247  1.00  0.00     0.156 HD
ENDBRANCH   4  21
TORSDOF 8
ENDMDL
MODEL 10
REMARK VINA RESULT:      -5.1      2.728      4.457
REMARK  8 active torsions:
REMARK  status: ('A' for Active; 'I' for Inactive)
REMARK    1  A    between atoms: C_2  and  N_3 
REMARK    2  A    between atoms: N_3  and  C_19 
REMARK    3  A    between atoms: N_3  and  C_4 
REMARK    4  A    between atoms: C_4  and  C_5 
REMARK    5  A    between atoms: C_5  and  N_6 
REMARK       I    between atoms: N_6  and  C_7 
REMARK    6  A    between atoms: C_7  and  C_8 
REMARK    7  A    between atoms: C_9  and  O_10 
REMARK    8  A    between atoms: C_13  and  N_14 
ROOT
HETATM    1  C   LIG     1      16.629  35.852  23.293  1.00  0.00     0.067 A 
HETATM    2  C   LIG     1      16.548  37.222  23.603  1.00  0.00     0.086 A 
HETATM    3  C   LIG     1      17.095  37.686  24.815  1.00  0.00     0.068 A 
HETATM    4  C   LIG     1      17.735  36.805  25.699  1.00  0.00     0.050 A 
HETATM    5  C   LIG     1      17.836  35.441  25.365  1.00  0.00     0.061 A 
HETATM    6 CL   LIG     1      18.635  34.284  26.422  1.00  0.00    -0.082 Cl
HETATM    7  C   LIG     1      17.288  34.976  24.165  1.00  0.00     0.046 A 
ENDROOT
BRANCH   1   8
HETATM    8  C   LIG     1      16.052  35.322  22.042  1.00  0.00     0.254 C 
HETATM    9  N   LIG     1      16.821  35.238  20.833  1.00  0.00    -0.355 N 
HETATM   10  H   LIG     1      16.413  34.692  20.041  1.00  0.00     0.162 HD
HETATM   11  O   LIG     1      14.847  34.955  22.032  1.00  0.00    -0.268 OA
BRANCH   9  12
HETATM   12  C   LIG     1      18.047  36.013  20.629  1.00  0.00     0.153 C 
BRANCH  12  13
HETATM   13  C   LIG     1      17.768  37.367  19.952  1.00  0.00     0.292 C 
BRANCH  13  14
HETATM   14  N   LIG     1      18.842  37.732  18.996  1.00  0.00     0.089 N 
BRANCH  14  15
HETATM   15  C   LIG     1      20.183  37.215  19.366  1.00  0.00     0.268 C 
HETATM   16  C   LIG     1      21.203  38.306  19.724  1.00  0.00     0.037 C 
ENDBRANCH  14  15
BRANCH  14  17
HETATM   17  C   LIG     1      18.856  39.182  18.701  1.00  0.00     0.268 C 
HETATM   18  C   LIG     1      18.777  39.417  17.195  1.00  0.00     0.037 C 
ENDBRANCH  14  17
ENDBRANCH  13  14
ENDBRANCH  12  13
ENDBRANCH   9  12
ENDBRANCH   1   8
BRANCH   2  19
HETATM   19  O   LIG     1      15.940  38.093  22.683  1.00  0.00    -0.355 OA
HETATM   20  C   LIG     1      16.473  39.351  22.285  1.00  0.00     0.210 C 
ENDBRANCH   2  19
BRANCH   4  21
HETATM   21  N   LIG     1      18.281  37.313  26.923  1.00  0.00    -0.398 N 
HETATM   22  H   LIG     1      17.697  37.897  27.563  1.00  0.00     0.156 HD
HETATM   23  H   LIG     1      19.264  37.119  27.213  1.00  0.00     0.156 HD
ENDBRANCH   4  21
TORSDOF 8
ENDMDL
MODEL 11
REMARK VINA RESULT:      -5.0      3.368      6.038
REMARK  8 active torsions:
REMARK  status: ('A' for Active; 'I' for Inactive)
REMARK    1  A    between atoms: C_2  and  N_3 
REMARK    2  A    between atoms: N_3  and  C_19 
REMARK    3  A    between atoms: N_3  and  C_4 
REMARK    4  A    between atoms: C_4  and  C_5 
REMARK    5  A    between atoms: C_5  and  N_6 
REMARK       I    between atoms: N_6  and  C_7 
REMARK    6  A    between atoms: C_7  and  C_8 
REMARK    7  A    between atoms: C_9  and  O_10 
REMARK    8  A    between atoms: C_13  and  N_14 
ROOT
HETATM    1  C   LIG     1      17.183  38.404  21.772  1.00  0.00     0.067 A 
HETATM    2  C   LIG     1      16.825  37.087  21.427  1.00  0.00     0.086 A 
HETATM    3  C   LIG     1      17.604  36.387  20.486  1.00  0.00     0.068 A 
HETATM    4  C   LIG     1      18.740  36.976  19.912  1.00  0.00     0.050 A 
HETATM    5  C   LIG     1      19.106  38.283  20.287  1.00  0.00     0.061 A 
HETATM    6 CL   LIG     1      20.524  39.078  19.614  1.00  0.00    -0.082 Cl
HETATM    7  C   LIG     1      18.330  38.983  21.216  1.00  0.00     0.046 A 
ENDROOT
BRANCH   1   8
HETATM    8  C   LIG     1      16.383  39.179  22.739  1.00  0.00     0.254 C 
HETATM    9  N   LIG     1      16.836  39.409  24.082  1.00  0.00    -0.355 N 
HETATM   10  H   LIG     1      16.311  40.109  24.652  1.00  0.00     0.162 HD
HETATM   11  O   LIG     1      15.262  39.630  22.383  1.00  0.00    -0.268 OA
BRANCH   9  12
HETATM   12  C   LIG     1      17.878  38.591  24.708  1.00  0.00     0.153 C 
BRANCH  12  13
HETATM   13  C   LIG     1      17.297  37.608  25.740  1.00  0.00     0.292 C 
BRANCH  13  14
HETATM   14  N   LIG     1      17.986  36.295  25.694  1.00  0.00     0.089 N 
BRANCH  14  15
HETATM   15  C   LIG     1      17.108  35.164  25.305  1.00  0.00     0.268 C 
HETATM   16  C   LIG     1      17.247  34.733  23.836  1.00  0.00     0.037 C 
ENDBRANCH  14  15
BRANCH  14  17
HETATM   17  C   LIG     1      18.746  36.021  26.933  1.00  0.00     0.268 C 
HETATM   18  C   LIG     1      19.111  34.541  27.014  1.00  0.00     0.037 C 
ENDBRANCH  14  17
ENDBRANCH  13  14
ENDBRANCH  12  13
ENDBRANCH   9  12
ENDBRANCH   1   8
BRANCH   2  19
HETATM   19  O   LIG     1      15.708  36.502  22.047  1.00  0.00    -0.355 OA
HETATM   20  C   LIG     1      14.747  35.689  21.383  1.00  0.00     0.210 C 
ENDBRANCH   2  19
BRANCH   4  21
HETATM   21  N   LIG     1      19.511  36.233  18.960  1.00  0.00    -0.398 N 
HETATM   22  H   LIG     1      20.553  36.310  18.943  1.00  0.00     0.156 HD
HETATM   23  H   LIG     1      19.065  35.597  18.263  1.00  0.00     0.156 HD
ENDBRANCH   4  21
TORSDOF 8
ENDMDL
MODEL 12
REMARK VINA RESULT:      -5.0      2.956      5.822
REMARK  8 active torsions:
REMARK  status: ('A' for Active; 'I' for Inactive)
REMARK    1  A    between atoms: C_2  and  N_3 
REMARK    2  A    between atoms: N_3  and  C_19 
REMARK    3  A    between atoms: N_3  and  C_4 
REMARK    4  A    between atoms: C_4  and  C_5 
REMARK    5  A    between atoms: C_5  and  N_6 
REMARK       I    between atoms: N_6  and  C_7 
REMARK    6  A    between atoms: C_7  and  C_8 
REMARK    7  A    between atoms: C_9  and  O_10 
REMARK    8  A    between atoms: C_13  and  N_14 
ROOT
HETATM    1  C   LIG     1      16.146  36.636  22.163  1.00  0.00     0.067 A 
HETATM    2  C   LIG     1      16.759  35.552  22.818  1.00  0.00     0.086 A 
HETATM    3  C   LIG     1      16.770  34.289  22.196  1.00  0.00     0.068 A 
HETATM    4  C   LIG     1      16.201  34.107  20.927  1.00  0.00     0.050 A 
HETATM    5  C   LIG     1      15.616  35.205  20.268  1.00  0.00     0.061 A 
HETATM    6 CL   LIG     1      14.892  35.050  18.671  1.00  0.00    -0.082 Cl
HETATM    7  C   LIG     1      15.597  36.459  20.886  1.00  0.00     0.046 A 
ENDROOT
BRANCH   1   8
HETATM    8  C   LIG     1      16.095  37.971  22.788  1.00  0.00     0.254 C 
HETATM    9  N   LIG     1      17.084  38.973  22.508  1.00  0.00    -0.355 N 
HETATM   10  H   LIG     1      16.891  39.944  22.841  1.00  0.00     0.162 HD
HETATM   11  O   LIG     1      15.172  38.229  23.606  1.00  0.00    -0.268 OA
BRANCH   9  12
HETATM   12  C   LIG     1      18.393  38.644  21.936  1.00  0.00     0.153 C 
BRANCH  12  13
HETATM   13  C   LIG     1      18.699  39.477  20.679  1.00  0.00     0.292 C 
BRANCH  13  14
HETATM   14  N   LIG     1      18.605  38.659  19.445  1.00  0.00     0.089 N 
BRANCH  14  15
HETATM   15  C   LIG     1      18.705  37.198  19.679  1.00  0.00     0.268 C 
HETATM   16  C   LIG     1      20.123  36.628  19.522  1.00  0.00     0.037 C 
ENDBRANCH  14  15
BRANCH  14  17
HETATM   17  C   LIG     1      19.533  39.128  18.393  1.00  0.00     0.268 C 
HETATM   18  C   LIG     1      18.760  39.500  17.130  1.00  0.00     0.037 C 
ENDBRANCH  14  17
ENDBRANCH  13  14
ENDBRANCH  12  13
ENDBRANCH   9  12
ENDBRANCH   1   8
BRANCH   2  19
HETATM   19  O   LIG     1      17.362  35.767  24.069  1.00  0.00    -0.355 OA
HETATM   20  C   LIG     1      17.278  34.873  25.173  1.00  0.00     0.210 C 
ENDBRANCH   2  19
BRANCH   4  21
HETATM   21  N   LIG     1      16.232  32.808  20.323  1.00  0.00    -0.398 N 
HETATM   22  H   LIG     1      16.148  32.702  19.287  1.00  0.00     0.156 HD
HETATM   23  H   LIG     1      16.341  31.938  20.888  1.00  0.00     0.156 HD
ENDBRANCH   4  21
TORSDOF 8
ENDMDL
MODEL 13
REMARK VINA RESULT:      -4.7      4.304      8.369
REMARK  8 active torsions:
REMARK  status: ('A' for Active; 'I' for Inactive)
REMARK    1  A    between atoms: C_2  and  N_3 
REMARK    2  A    between atoms: N_3  and  C_19 
REMARK    3  A    between atoms: N_3  and  C_4 
REMARK    4  A    between atoms: C_4  and  C_5 
REMARK    5  A    between atoms: C_5  and  N_6 
REMARK       I    between atoms: N_6  and  C_7 
REMARK    6  A    between atoms: C_7  and  C_8 
REMARK    7  A    between atoms: C_9  and  O_10 
REMARK    8  A    between atoms: C_13  and  N_14 
ROOT
HETATM    1  C   LIG     1      16.054  33.167  15.125  1.00  0.00     0.067 A 
HETATM    2  C   LIG     1      16.363  32.716  13.828  1.00  0.00     0.086 A 
HETATM    3  C   LIG     1      15.825  31.495  13.379  1.00  0.00     0.068 A 
HETATM    4  C   LIG     1      14.971  30.741  14.197  1.00  0.00     0.050 A 
HETATM    5  C   LIG     1      14.645  31.216  15.481  1.00  0.00     0.061 A 
HETATM    6 CL   LIG     1      13.573  30.326  16.555  1.00  0.00    -0.082 Cl
HETATM    7  C   LIG     1      15.183  32.425  15.933  1.00  0.00     0.046 A 
ENDROOT
BRANCH   1   8
HETATM    8  C   LIG     1      16.612  34.431  15.641  1.00  0.00     0.254 C 
HETATM    9  N   LIG     1      16.418  34.841  17.003  1.00  0.00    -0.355 N 
HETATM   10  H   LIG     1      16.985  35.649  17.347  1.00  0.00     0.162 HD
HETATM   11  O   LIG     1      17.257  35.180  14.859  1.00  0.00    -0.268 OA
BRANCH   9  12
HETATM   12  C   LIG     1      15.357  34.284  17.846  1.00  0.00     0.153 C 
BRANCH  12  13
HETATM   13  C   LIG     1      15.315  34.946  19.234  1.00  0.00     0.292 C 
BRANCH  13  14
HETATM   14  N   LIG     1      15.748  34.010  20.300  1.00  0.00     0.089 N 
BRANCH  14  15
HETATM   15  C   LIG     1      14.888  32.809  20.438  1.00  0.00     0.268 C 
HETATM   16  C   LIG     1      15.474  31.536  19.809  1.00  0.00     0.037 C 
ENDBRANCH  14  15
BRANCH  14  17
HETATM   17  C   LIG     1      15.969  34.698  21.591  1.00  0.00     0.268 C 
HETATM   18  C   LIG     1      17.161  35.647  21.489  1.00  0.00     0.037 C 
ENDBRANCH  14  17
ENDBRANCH  13  14
ENDBRANCH  12  13
ENDBRANCH   9  12
ENDBRANCH   1   8
BRANCH   2  19
HETATM   19  O   LIG     1      17.186  33.509  13.010  1.00  0.00    -0.355 OA
HETATM   20  C   LIG     1      18.365  33.050  12.361  1.00  0.00     0.210 C 
ENDBRANCH   2  19
BRANCH   4  21
HETATM   21  N   LIG     1      14.441  29.503  13.705  1.00  0.00    -0.398 N 
HETATM   22  H   LIG     1      14.336  29.341  12.678  1.00  0.00     0.156 HD
HETATM   23  H   LIG     1      14.147  28.734  14.345  1.00  0.00     0.156 HD
ENDBRANCH   4  21
TORSDOF 8
ENDMDL
MODEL 14
REMARK VINA RESULT:      -4.5     14.978     16.511
REMARK  8 active torsions:
REMARK  status: ('A' for Active; 'I' for Inactive)
REMARK    1  A    between atoms: C_2  and  N_3 
REMARK    2  A    between atoms: N_3  and  C_19 
REMARK    3  A    between atoms: N_3  and  C_4 
REMARK    4  A    between atoms: C_4  and  C_5 
REMARK    5  A    between atoms: C_5  and  N_6 
REMARK       I    between atoms: N_6  and  C_7 
REMARK    6  A    between atoms: C_7  and  C_8 
REMARK    7  A    between atoms: C_9  and  O_10 
REMARK    8  A    between atoms: C_13  and  N_14 
ROOT
HETATM    1  C   LIG     1      23.758  22.584  20.501  1.00  0.00     0.067 A 
HETATM    2  C   LIG     1      23.803  21.991  19.225  1.00  0.00     0.086 A 
HETATM    3  C   LIG     1      24.917  22.225  18.397  1.00  0.00     0.068 A 
HETATM    4  C   LIG     1      25.986  23.018  18.837  1.00  0.00     0.050 A 
HETATM    5  C   LIG     1      25.945  23.582  20.126  1.00  0.00     0.061 A 
HETATM    6 CL   LIG     1      27.256  24.579  20.745  1.00  0.00    -0.082 Cl
HETATM    7  C   LIG     1      24.837  23.358  20.948  1.00  0.00     0.046 A 
ENDROOT
BRANCH   1   8
HETATM    8  C   LIG     1      22.601  22.379  21.392  1.00  0.00     0.254 C 
HETATM    9  N   LIG     1      22.602  21.367  22.410  1.00  0.00    -0.355 N 
HETATM   10  H   LIG     1      21.832  21.395  23.116  1.00  0.00     0.162 HD
HETATM   11  O   LIG     1      21.577  23.098  21.240  1.00  0.00    -0.268 OA
BRANCH   9  12
HETATM   12  C   LIG     1      23.529  20.232  22.386  1.00  0.00     0.153 C 
BRANCH  12  13
HETATM   13  C   LIG     1      23.987  19.830  23.799  1.00  0.00     0.292 C 
BRANCH  13  14
HETATM   14  N   LIG     1      23.623  20.858  24.805  1.00  0.00     0.089 N 
BRANCH  14  15
HETATM   15  C   LIG     1      24.777  21.636  25.319  1.00  0.00     0.268 C 
HETATM   16  C   LIG     1      25.010  22.972  24.598  1.00  0.00     0.037 C 
ENDBRANCH  14  15
BRANCH  14  17
HETATM   17  C   LIG     1      22.785  20.303  25.891  1.00  0.00     0.268 C 
HETATM   18  C   LIG     1      22.728  21.275  27.066  1.00  0.00     0.037 C 
ENDBRANCH  14  17
ENDBRANCH  13  14
ENDBRANCH  12  13
ENDBRANCH   9  12
ENDBRANCH   1   8
BRANCH   2  19
HETATM   19  O   LIG     1      22.740  21.164  18.822  1.00  0.00    -0.355 OA
HETATM   20  C   LIG     1      22.840  20.137  17.842  1.00  0.00     0.210 C 
ENDBRANCH   2  19
BRANCH   4  21
HETATM   21  N   LIG     1      27.105  23.233  17.967  1.00  0.00    -0.398 N 
HETATM   22  H   LIG     1      27.358  22.525  17.241  1.00  0.00     0.156 HD
HETATM   23  H   LIG     1      27.695  24.091  18.026  1.00  0.00     0.156 HD
ENDBRANCH   4  21
TORSDOF 8
ENDMDL
MODEL 15
REMARK VINA RESULT:      -4.3     15.282     16.752
REMARK  8 active torsions:
REMARK  status: ('A' for Active; 'I' for Inactive)
REMARK    1  A    between atoms: C_2  and  N_3 
REMARK    2  A    between atoms: N_3  and  C_19 
REMARK    3  A    between atoms: N_3  and  C_4 
REMARK    4  A    between atoms: C_4  and  C_5 
REMARK    5  A    between atoms: C_5  and  N_6 
REMARK       I    between atoms: N_6  and  C_7 
REMARK    6  A    between atoms: C_7  and  C_8 
REMARK    7  A    between atoms: C_9  and  O_10 
REMARK    8  A    between atoms: C_13  and  N_14 
ROOT
HETATM    1  C   LIG     1      26.020  22.134  21.119  1.00  0.00     0.067 A 
HETATM    2  C   LIG     1      26.224  21.699  19.797  1.00  0.00     0.086 A 
HETATM    3  C   LIG     1      25.124  21.619  18.922  1.00  0.00     0.068 A 
HETATM    4  C   LIG     1      23.840  21.989  19.346  1.00  0.00     0.050 A 
HETATM    5  C   LIG     1      23.652  22.451  20.662  1.00  0.00     0.061 A 
HETATM    6 CL   LIG     1      22.070  22.942  21.256  1.00  0.00    -0.082 Cl
HETATM    7  C   LIG     1      24.741  22.525  21.536  1.00  0.00     0.046 A 
ENDROOT
BRANCH   1   8
HETATM    8  C   LIG     1      27.143  22.214  22.073  1.00  0.00     0.254 C 
HETATM    9  N   LIG     1      27.816  23.453  22.344  1.00  0.00    -0.355 N 
HETATM   10  H   LIG     1      28.476  23.474  23.154  1.00  0.00     0.162 HD
HETATM   11  O   LIG     1      27.533  21.163  22.648  1.00  0.00    -0.268 OA
BRANCH   9  12
HETATM   12  C   LIG     1      27.735  24.602  21.439  1.00  0.00     0.153 C 
BRANCH  12  13
HETATM   13  C   LIG     1      28.815  24.554  20.345  1.00  0.00     0.292 C 
BRANCH  13  14
HETATM   14  N   LIG     1      28.301  25.051  19.045  1.00  0.00     0.089 N 
BRANCH  14  15
HETATM   15  C   LIG     1      29.216  25.991  18.352  1.00  0.00     0.268 C 
HETATM   16  C   LIG     1      28.721  27.445  18.319  1.00  0.00     0.037 C 
ENDBRANCH  14  15
BRANCH  14  17
HETATM   17  C   LIG     1      26.924  25.581  19.157  1.00  0.00     0.268 C 
HETATM   18  C   LIG     1      26.011  24.902  18.139  1.00  0.00     0.037 C 
ENDBRANCH  14  17
ENDBRANCH  13  14
ENDBRANCH  12  13
ENDBRANCH   9  12
ENDBRANCH   1   8
BRANCH   2  19
HETATM   19  O   LIG     1      27.527  21.374  19.381  1.00  0.00    -0.355 OA
HETATM   20  C   LIG     1      28.023  21.553  18.060  1.00  0.00     0.210 C 
ENDBRANCH   2  19
BRANCH   4  21
HETATM   21  N   LIG     1      22.743  21.896  18.427  1.00  0.00    -0.398 N 
HETATM   22  H   LIG     1      22.556  21.007  17.912  1.00  0.00     0.156 HD
HETATM   23  H   LIG     1      22.104  22.700  18.246  1.00  0.00     0.156 HD
ENDBRANCH   4  21
TORSDOF 8
ENDMDL
MODEL 16
REMARK VINA RESULT:      -4.3     15.031     16.814
REMARK  8 active torsions:
REMARK  status: ('A' for Active; 'I' for Inactive)
REMARK    1  A    between atoms: C_2  and  N_3 
REMARK    2  A    between atoms: N_3  and  C_19 
REMARK    3  A    between atoms: N_3  and  C_4 
REMARK    4  A    between atoms: C_4  and  C_5 
REMARK    5  A    between atoms: C_5  and  N_6 
REMARK       I    between atoms: N_6  and  C_7 
REMARK    6  A    between atoms: C_7  and  C_8 
REMARK    7  A    between atoms: C_9  and  O_10 
REMARK    8  A    between atoms: C_13  and  N_14 
ROOT
HETATM    1  C   LIG     1      23.751  22.070  20.132  1.00  0.00     0.067 A 
HETATM    2  C   LIG     1      24.858  22.632  19.470  1.00  0.00     0.086 A 
HETATM    3  C   LIG     1      25.398  21.971  18.350  1.00  0.00     0.068 A 
HETATM    4  C   LIG     1      24.832  20.778  17.878  1.00  0.00     0.050 A 
HETATM    5  C   LIG     1      23.707  20.240  18.530  1.00  0.00     0.061 A 
HETATM    6 CL   LIG     1      22.942  18.752  17.984  1.00  0.00    -0.082 Cl
HETATM    7  C   LIG     1      23.173  20.890  19.646  1.00  0.00     0.046 A 
ENDROOT
BRANCH   1   8
HETATM    8  C   LIG     1      23.167  22.721  21.320  1.00  0.00     0.254 C 
HETATM    9  N   LIG     1      23.904  22.858  22.544  1.00  0.00    -0.355 N 
HETATM   10  H   LIG     1      23.501  23.481  23.280  1.00  0.00     0.162 HD
HETATM   11  O   LIG     1      21.982  23.147  21.264  1.00  0.00    -0.268 OA
BRANCH   9  12
HETATM   12  C   LIG     1      25.081  22.040  22.846  1.00  0.00     0.153 C 
BRANCH  12  13
HETATM   13  C   LIG     1      25.949  22.664  23.953  1.00  0.00     0.292 C 
BRANCH  13  14
HETATM   14  N   LIG     1      25.149  22.986  25.160  1.00  0.00     0.089 N 
BRANCH  14  15
HETATM   15  C   LIG     1      25.802  23.950  26.079  1.00  0.00     0.268 C 
HETATM   16  C   LIG     1      26.969  24.729  25.453  1.00  0.00     0.037 C 
ENDBRANCH  14  15
BRANCH  14  17
HETATM   17  C   LIG     1      24.678  21.769  25.857  1.00  0.00     0.268 C 
HETATM   18  C   LIG     1      24.196  22.117  27.263  1.00  0.00     0.037 C 
ENDBRANCH  14  17
ENDBRANCH  13  14
ENDBRANCH  12  13
ENDBRANCH   9  12
ENDBRANCH   1   8
BRANCH   2  19
HETATM   19  O   LIG     1      25.381  23.851  19.934  1.00  0.00    -0.355 OA
HETATM   20  C   LIG     1      26.758  24.094  20.196  1.00  0.00     0.210 C 
ENDBRANCH   2  19
BRANCH   4  21
HETATM   21  N   LIG     1      25.408  20.133  16.734  1.00  0.00    -0.398 N 
HETATM   22  H   LIG     1      26.359  19.705  16.788  1.00  0.00     0.156 HD
HETATM   23  H   LIG     1      24.904  20.069  15.823  1.00  0.00     0.156 HD
ENDBRANCH   4  21
TORSDOF 8
ENDMDL
MODEL 17
REMARK VINA RESULT:      -4.2     15.204     16.167
REMARK  8 active torsions:
REMARK  status: ('A' for Active; 'I' for Inactive)
REMARK    1  A    between atoms: C_2  and  N_3 
REMARK    2  A    between atoms: N_3  and  C_19 
REMARK    3  A    between atoms: N_3  and  C_4 
REMARK    4  A    between atoms: C_4  and  C_5 
REMARK    5  A    between atoms: C_5  and  N_6 
REMARK       I    between atoms: N_6  and  C_7 
REMARK    6  A    between atoms: C_7  and  C_8 
REMARK    7  A    between atoms: C_9  and  O_10 
REMARK    8  A    between atoms: C_13  and  N_14 
ROOT
HETATM    1  C   LIG     1      25.086  21.552  24.148  1.00  0.00     0.067 A 
HETATM    2  C   LIG     1      24.313  21.680  25.317  1.00  0.00     0.086 A 
HETATM    3  C   LIG     1      24.585  22.736  26.208  1.00  0.00     0.068 A 
HETATM    4  C   LIG     1      25.595  23.668  25.932  1.00  0.00     0.050 A 
HETATM    5  C   LIG     1      26.342  23.547  24.745  1.00  0.00     0.061 A 
HETATM    6 CL   LIG     1      27.617  24.688  24.331  1.00  0.00    -0.082 Cl
HETATM    7  C   LIG     1      26.080  22.496  23.861  1.00  0.00     0.046 A 
ENDROOT
BRANCH   1   8
HETATM    8  C   LIG     1      24.846  20.449  23.198  1.00  0.00     0.254 C 
HETATM    9  N   LIG     1      23.950  20.592  22.086  1.00  0.00    -0.355 N 
HETATM   10  H   LIG     1      23.963  19.843  21.358  1.00  0.00     0.162 HD
HETATM   11  O   LIG     1      25.428  19.346  23.381  1.00  0.00    -0.268 OA
BRANCH   9  12
HETATM   12  C   LIG     1      22.928  21.641  22.034  1.00  0.00     0.153 C 
BRANCH  12  13
HETATM   13  C   LIG     1      22.981  22.434  20.716  1.00  0.00     0.292 C 
BRANCH  13  14
HETATM   14  N   LIG     1      24.329  22.381  20.100  1.00  0.00     0.089 N 
BRANCH  14  15
HETATM   15  C   LIG     1      25.200  23.531  20.450  1.00  0.00     0.268 C 
HETATM   16  C   LIG     1      25.996  24.103  19.268  1.00  0.00     0.037 C 
ENDBRANCH  14  15
BRANCH  14  17
HETATM   17  C   LIG     1      24.267  22.143  18.641  1.00  0.00     0.268 C 
HETATM   18  C   LIG     1      22.995  21.380  18.282  1.00  0.00     0.037 C 
ENDBRANCH  14  17
ENDBRANCH  13  14
ENDBRANCH  12  13
ENDBRANCH   9  12
ENDBRANCH   1   8
BRANCH   2  19
HETATM   19  O   LIG     1      23.277  20.760  25.552  1.00  0.00    -0.355 OA
HETATM   20  C   LIG     1      23.243  19.840  26.637  1.00  0.00     0.210 C 
ENDBRANCH   2  19
BRANCH   4  21
HETATM   21  N   LIG     1      25.843  24.731  26.861  1.00  0.00    -0.398 N 
HETATM   22  H   LIG     1      26.246  25.638  26.535  1.00  0.00     0.156 HD
HETATM   23  H   LIG     1      25.630  24.638  27.878  1.00  0.00     0.156 HD
ENDBRANCH   4  21
TORSDOF 8
ENDMDL
