REMARK  8 active torsions:
REMARK  status: ('A' for Active; 'I' for Inactive)
REMARK    1  A    between atoms: C_2  and  N_3 
REMARK    2  A    between atoms: N_3  and  C_19 
REMARK    3  A    between atoms: N_3  and  C_4 
REMARK    4  A    between atoms: C_4  and  C_5 
REMARK    5  A    between atoms: C_5  and  N_6 
REMARK       I    between atoms: N_6  and  C_7 
REMARK    6  A    between atoms: C_7  and  C_8 
REMARK    7  A    between atoms: C_9  and  O_10 
REMARK    8  A    between atoms: C_13  and  N_14 
ROOT
HETATM    1  C   LIG     1       2.129  -0.839   0.933  1.00  0.00     0.067 A 
HETATM    2  C   LIG     1       2.857  -0.526  -0.230  1.00  0.00     0.086 A 
HETATM    3  C   LIG     1       3.947   0.361  -0.141  1.00  0.00     0.068 A 
HETATM    4  C   LIG     1       4.326   0.913   1.091  1.00  0.00     0.050 A 
HETATM    5  C   LIG     1       3.609   0.570   2.253  1.00  0.00     0.061 A 
HETATM    6 CL   LIG     1       4.037   1.218   3.832  1.00  0.00    -0.082 Cl
HETATM    7  C   LIG     1       2.522  -0.305   2.167  1.00  0.00     0.046 A 
ENDROOT
BRANCH   1   8
HETATM    8  C   LIG     1       0.969  -1.749   0.880  1.00  0.00     0.254 C 
HETATM    9  N   LIG     1      -0.177  -1.464   0.064  1.00  0.00    -0.355 N 
HETATM   10  H   LIG     1      -0.877  -2.229  -0.065  1.00  0.00     0.162 HD
HETATM   11  O   LIG     1       0.977  -2.792   1.587  1.00  0.00    -0.268 OA
BRANCH   9  12
HETATM   12  C   LIG     1      -0.467  -0.118  -0.437  1.00  0.00     0.153 C 
BRANCH  12  13
HETATM   13  C   LIG     1      -1.906   0.003  -0.968  1.00  0.00     0.292 C 
BRANCH  13  14
HETATM   14  N   LIG     1      -2.845   0.444   0.092  1.00  0.00     0.089 N 
BRANCH  14  15
HETATM   15  C   LIG     1      -3.163  -0.604   1.093  1.00  0.00     0.268 C 
HETATM   16  C   LIG     1      -3.947  -1.799   0.529  1.00  0.00     0.037 C 
ENDBRANCH  14  15
BRANCH  14  17
HETATM   17  C   LIG     1      -4.059   1.079  -0.467  1.00  0.00     0.268 C 
HETATM   18  C   LIG     1      -3.824   2.571  -0.686  1.00  0.00     0.037 C 
ENDBRANCH  14  17
ENDBRANCH  13  14
ENDBRANCH  12  13
ENDBRANCH   9  12
ENDBRANCH   1   8
BRANCH   2  19
HETATM   19  O   LIG     1       2.486  -1.125  -1.446  1.00  0.00    -0.355 OA
HETATM   20  C   LIG     1       3.120  -0.879  -2.696  1.00  0.00     0.210 C 
ENDBRANCH   2  19
BRANCH   4  21
HETATM   21  N   LIG     1       5.442   1.811   1.144  1.00  0.00    -0.398 N 
HETATM   22  H   LIG     1       5.968   2.056   0.275  1.00  0.00     0.156 HD
HETATM   23  H   LIG     1       5.761   2.245   2.037  1.00  0.00     0.156 HD
ENDBRANCH   4  21
TORSDOF 8
