MODEL 1
REMARK VINA RESULT:      -7.0      0.000      0.000
REMARK  1 active torsions:
REMARK  status: ('A' for Active; 'I' for Inactive)
REMARK    1  A    between atoms: C_1  and  C_2 
ROOT
HETATM    1  C   LIG     1      17.198  35.909  24.044  1.00  0.00     0.085 A 
HETATM    2  C   LIG     1      17.498  34.857  24.929  1.00  0.00     0.034 A 
HETATM    3  C   LIG     1      17.923  35.150  26.227  1.00  0.00     0.004 A 
HETATM    4  C   LIG     1      18.047  36.477  26.637  1.00  0.00     0.019 A 
HETATM    5  C   LIG     1      17.741  37.499  25.737  1.00  0.00     0.117 A 
HETATM    6  N   LIG     1      17.329  37.196  24.478  1.00  0.00    -0.259 NA
ENDROOT
BRANCH   1   7
HETATM    7  C   LIG     1      16.743  35.637  22.659  1.00  0.00     0.085 A 
HETATM    8  C   LIG     1      17.377  36.239  21.557  1.00  0.00     0.034 A 
HETATM    9  C   LIG     1      16.924  35.960  20.265  1.00  0.00     0.004 A 
HETATM   10  C   LIG     1      15.850  35.090  20.077  1.00  0.00     0.019 A 
HETATM   11  C   LIG     1      15.241  34.508  21.190  1.00  0.00     0.117 A 
HETATM   12  N   LIG     1      15.696  34.791  22.440  1.00  0.00    -0.259 NA
ENDBRANCH   1   7
TORSDOF 1
ENDMDL
MODEL 2
REMARK VINA RESULT:      -7.0      0.039      5.013
REMARK  1 active torsions:
REMARK  status: ('A' for Active; 'I' for Inactive)
REMARK    1  A    between atoms: C_1  and  C_2 
ROOT
HETATM    1  C   LIG     1      16.733  35.620  22.644  1.00  0.00     0.085 A 
HETATM    2  C   LIG     1      17.393  36.183  21.536  1.00  0.00     0.034 A 
HETATM    3  C   LIG     1      16.933  35.905  20.246  1.00  0.00     0.004 A 
HETATM    4  C   LIG     1      15.827  35.075  20.066  1.00  0.00     0.019 A 
HETATM    5  C   LIG     1      15.192  34.532  21.184  1.00  0.00     0.117 A 
HETATM    6  N   LIG     1      15.654  34.813  22.432  1.00  0.00    -0.259 NA
ENDROOT
BRANCH   1   7
HETATM    7  C   LIG     1      17.193  35.893  24.027  1.00  0.00     0.085 A 
HETATM    8  C   LIG     1      17.498  34.841  24.910  1.00  0.00     0.034 A 
HETATM    9  C   LIG     1      17.930  35.134  26.207  1.00  0.00     0.004 A 
HETATM   10  C   LIG     1      18.054  36.462  26.616  1.00  0.00     0.019 A 
HETATM   11  C   LIG     1      17.743  37.483  25.717  1.00  0.00     0.117 A 
HETATM   12  N   LIG     1      17.325  37.180  24.459  1.00  0.00    -0.259 NA
ENDBRANCH   1   7
TORSDOF 1
ENDMDL
MODEL 3
REMARK VINA RESULT:      -6.3      2.902      4.394
REMARK  1 active torsions:
REMARK  status: ('A' for Active; 'I' for Inactive)
REMARK    1  A    between atoms: C_1  and  C_2 
ROOT
HETATM    1  C   LIG     1      18.126  37.103  20.445  1.00  0.00     0.085 A 
HETATM    2  C   LIG     1      19.162  36.944  19.506  1.00  0.00     0.034 A 
HETATM    3  C   LIG     1      20.086  37.976  19.319  1.00  0.00     0.004 A 
HETATM    4  C   LIG     1      19.974  39.153  20.060  1.00  0.00     0.019 A 
HETATM    5  C   LIG     1      18.935  39.281  20.983  1.00  0.00     0.117 A 
HETATM    6  N   LIG     1      18.047  38.266  21.152  1.00  0.00    -0.259 NA
ENDROOT
BRANCH   1   7
HETATM    7  C   LIG     1      17.128  36.029  20.670  1.00  0.00     0.085 A 
HETATM    8  C   LIG     1      16.771  35.634  21.973  1.00  0.00     0.034 A 
HETATM    9  C   LIG     1      15.827  34.619  22.149  1.00  0.00     0.004 A 
HETATM   10  C   LIG     1      15.248  34.006  21.038  1.00  0.00     0.019 A 
HETATM   11  C   LIG     1      15.623  34.419  19.759  1.00  0.00     0.117 A 
HETATM   12  N   LIG     1      16.543  35.409  19.606  1.00  0.00    -0.259 NA
ENDBRANCH   1   7
TORSDOF 1
ENDMDL
MODEL 4
REMARK VINA RESULT:      -6.3      2.908      4.887
REMARK  1 active torsions:
REMARK  status: ('A' for Active; 'I' for Inactive)
REMARK    1  A    between atoms: C_1  and  C_2 
ROOT
HETATM    1  C   LIG     1      17.125  36.030  20.666  1.00  0.00     0.085 A 
HETATM    2  C   LIG     1      16.764  35.637  21.968  1.00  0.00     0.034 A 
HETATM    3  C   LIG     1      15.820  34.622  22.144  1.00  0.00     0.004 A 
HETATM    4  C   LIG     1      15.244  34.007  21.032  1.00  0.00     0.019 A 
HETATM    5  C   LIG     1      15.623  34.419  19.753  1.00  0.00     0.117 A 
HETATM    6  N   LIG     1      16.543  35.408  19.601  1.00  0.00    -0.259 NA
ENDROOT
BRANCH   1   7
HETATM    7  C   LIG     1      18.124  37.103  20.441  1.00  0.00     0.085 A 
HETATM    8  C   LIG     1      19.173  36.936  19.518  1.00  0.00     0.034 A 
HETATM    9  C   LIG     1      20.096  37.968  19.330  1.00  0.00     0.004 A 
HETATM   10  C   LIG     1      19.973  39.152  20.056  1.00  0.00     0.019 A 
HETATM   11  C   LIG     1      18.922  39.289  20.965  1.00  0.00     0.117 A 
HETATM   12  N   LIG     1      18.033  38.274  21.134  1.00  0.00    -0.259 NA
ENDBRANCH   1   7
TORSDOF 1
ENDMDL
MODEL 5
REMARK VINA RESULT:      -6.2      3.135      5.941
REMARK  1 active torsions:
REMARK  status: ('A' for Active; 'I' for Inactive)
REMARK    1  A    between atoms: C_1  and  C_2 
ROOT
HETATM    1  C   LIG     1      15.653  34.223  19.539  1.00  0.00     0.085 A 
HETATM    2  C   LIG     1      15.350  32.969  20.102  1.00  0.00     0.034 A 
HETATM    3  C   LIG     1      14.875  31.943  19.281  1.00  0.00     0.004 A 
HETATM    4  C   LIG     1      14.704  32.167  17.915  1.00  0.00     0.019 A 
HETATM    5  C   LIG     1      15.013  33.421  17.386  1.00  0.00     0.117 A 
HETATM    6  N   LIG     1      15.474  34.408  18.200  1.00  0.00    -0.259 NA
ENDROOT
BRANCH   1   7
HETATM    7  C   LIG     1      16.159  35.335  20.380  1.00  0.00     0.085 A 
HETATM    8  C   LIG     1      15.418  35.810  21.477  1.00  0.00     0.034 A 
HETATM    9  C   LIG     1      15.925  36.859  22.249  1.00  0.00     0.004 A 
HETATM   10  C   LIG     1      17.158  37.427  21.926  1.00  0.00     0.019 A 
HETATM   11  C   LIG     1      17.869  36.935  20.831  1.00  0.00     0.117 A 
HETATM   12  N   LIG     1      17.361  35.913  20.092  1.00  0.00    -0.259 NA
ENDBRANCH   1   7
TORSDOF 1
ENDMDL
MODEL 6
REMARK VINA RESULT:      -6.1      0.915      4.927
REMARK  1 active torsions:
REMARK  status: ('A' for Active; 'I' for Inactive)
REMARK    1  A    between atoms: C_1  and  C_2 
ROOT
HETATM    1  C   LIG     1      16.554  35.406  22.249  1.00  0.00     0.085 A 
HETATM    2  C   LIG     1      17.110  36.044  21.126  1.00  0.00     0.034 A 
HETATM    3  C   LIG     1      16.672  35.693  19.846  1.00  0.00     0.004 A 
HETATM    4  C   LIG     1      15.690  34.715  19.691  1.00  0.00     0.019 A 
HETATM    5  C   LIG     1      15.156  34.099  20.825  1.00  0.00     0.117 A 
HETATM    6  N   LIG     1      15.595  34.454  22.062  1.00  0.00    -0.259 NA
ENDROOT
BRANCH   1   7
HETATM    7  C   LIG     1      16.994  35.754  23.622  1.00  0.00     0.085 A 
HETATM    8  C   LIG     1      17.130  37.096  24.021  1.00  0.00     0.034 A 
HETATM    9  C   LIG     1      17.547  37.388  25.322  1.00  0.00     0.004 A 
HETATM   10  C   LIG     1      17.824  36.352  26.214  1.00  0.00     0.019 A 
HETATM   11  C   LIG     1      17.680  35.030  25.788  1.00  0.00     0.117 A 
HETATM   12  N   LIG     1      17.273  34.765  24.519  1.00  0.00    -0.259 NA
ENDBRANCH   1   7
TORSDOF 1
ENDMDL
MODEL 7
REMARK VINA RESULT:      -6.0      5.125      7.498
REMARK  1 active torsions:
REMARK  status: ('A' for Active; 'I' for Inactive)
REMARK    1  A    between atoms: C_1  and  C_2 
ROOT
HETATM    1  C   LIG     1      15.064  32.693  17.870  1.00  0.00     0.085 A 
HETATM    2  C   LIG     1      15.020  32.104  19.147  1.00  0.00     0.034 A 
HETATM    3  C   LIG     1      15.280  32.886  20.275  1.00  0.00     0.004 A 
HETATM    4  C   LIG     1      15.580  34.240  20.130  1.00  0.00     0.019 A 
HETATM    5  C   LIG     1      15.615  34.796  18.850  1.00  0.00     0.117 A 
HETATM    6  N   LIG     1      15.360  34.020  17.763  1.00  0.00    -0.259 NA
ENDROOT
BRANCH   1   7
HETATM    7  C   LIG     1      14.793  31.894  16.650  1.00  0.00     0.085 A 
HETATM    8  C   LIG     1      13.650  31.079  16.556  1.00  0.00     0.034 A 
HETATM    9  C   LIG     1      13.425  30.340  15.392  1.00  0.00     0.004 A 
HETATM   10  C   LIG     1      14.331  30.414  14.334  1.00  0.00     0.019 A 
HETATM   11  C   LIG     1      15.456  31.232  14.457  1.00  0.00     0.117 A 
HETATM   12  N   LIG     1      15.658  31.944  15.597  1.00  0.00    -0.259 NA
ENDBRANCH   1   7
TORSDOF 1
ENDMDL
MODEL 8
REMARK VINA RESULT:      -6.0      5.120      8.769
REMARK  1 active torsions:
REMARK  status: ('A' for Active; 'I' for Inactive)
REMARK    1  A    between atoms: C_1  and  C_2 
ROOT
HETATM    1  C   LIG     1      14.802  31.913  16.641  1.00  0.00     0.085 A 
HETATM    2  C   LIG     1      13.654  31.106  16.547  1.00  0.00     0.034 A 
HETATM    3  C   LIG     1      13.429  30.361  15.386  1.00  0.00     0.004 A 
HETATM    4  C   LIG     1      14.340  30.424  14.332  1.00  0.00     0.019 A 
HETATM    5  C   LIG     1      15.470  31.235  14.455  1.00  0.00     0.117 A 
HETATM    6  N   LIG     1      15.673  31.951  15.592  1.00  0.00    -0.259 NA
ENDROOT
BRANCH   1   7
HETATM    7  C   LIG     1      15.074  32.716  17.858  1.00  0.00     0.085 A 
HETATM    8  C   LIG     1      15.035  32.130  19.137  1.00  0.00     0.034 A 
HETATM    9  C   LIG     1      15.297  32.916  20.262  1.00  0.00     0.004 A 
HETATM   10  C   LIG     1      15.592  34.271  20.112  1.00  0.00     0.019 A 
HETATM   11  C   LIG     1      15.623  34.823  18.831  1.00  0.00     0.117 A 
HETATM   12  N   LIG     1      15.366  34.044  17.747  1.00  0.00    -0.259 NA
ENDBRANCH   1   7
TORSDOF 1
ENDMDL
MODEL 9
REMARK VINA RESULT:      -5.7      2.571      5.330
REMARK  1 active torsions:
REMARK  status: ('A' for Active; 'I' for Inactive)
REMARK    1  A    between atoms: C_1  and  C_2 
ROOT
HETATM    1  C   LIG     1      18.206  37.896  21.243  1.00  0.00     0.085 A 
HETATM    2  C   LIG     1      18.539  39.209  20.860  1.00  0.00     0.034 A 
HETATM    3  C   LIG     1      18.910  39.467  19.538  1.00  0.00     0.004 A 
HETATM    4  C   LIG     1      18.949  38.426  18.611  1.00  0.00     0.019 A 
HETATM    5  C   LIG     1      18.614  37.135  19.021  1.00  0.00     0.117 A 
HETATM    6  N   LIG     1      18.254  36.902  20.311  1.00  0.00    -0.259 NA
ENDROOT
BRANCH   1   7
HETATM    7  C   LIG     1      17.807  37.585  22.638  1.00  0.00     0.085 A 
HETATM    8  C   LIG     1      17.868  38.566  23.645  1.00  0.00     0.034 A 
HETATM    9  C   LIG     1      17.484  38.239  24.948  1.00  0.00     0.004 A 
HETATM   10  C   LIG     1      17.044  36.948  25.241  1.00  0.00     0.019 A 
HETATM   11  C   LIG     1      16.993  35.998  24.220  1.00  0.00     0.117 A 
HETATM   12  N   LIG     1      17.371  36.334  22.958  1.00  0.00    -0.259 NA
ENDBRANCH   1   7
TORSDOF 1
ENDMDL
MODEL 10
REMARK VINA RESULT:      -5.7      2.572      3.434
REMARK  1 active torsions:
REMARK  status: ('A' for Active; 'I' for Inactive)
REMARK    1  A    between atoms: C_1  and  C_2 
ROOT
HETATM    1  C   LIG     1      17.808  37.586  22.641  1.00  0.00     0.085 A 
HETATM    2  C   LIG     1      17.892  38.558  23.655  1.00  0.00     0.034 A 
HETATM    3  C   LIG     1      17.508  38.229  24.957  1.00  0.00     0.004 A 
HETATM    4  C   LIG     1      17.045  36.944  25.243  1.00  0.00     0.019 A 
HETATM    5  C   LIG     1      16.974  36.002  24.216  1.00  0.00     0.117 A 
HETATM    6  N   LIG     1      17.352  36.340  22.955  1.00  0.00    -0.259 NA
ENDROOT
BRANCH   1   7
HETATM    7  C   LIG     1      18.207  37.899  21.247  1.00  0.00     0.085 A 
HETATM    8  C   LIG     1      18.531  39.214  20.864  1.00  0.00     0.034 A 
HETATM    9  C   LIG     1      18.904  39.474  19.543  1.00  0.00     0.004 A 
HETATM   10  C   LIG     1      18.952  38.433  18.615  1.00  0.00     0.019 A 
HETATM   11  C   LIG     1      18.626  37.139  19.026  1.00  0.00     0.117 A 
HETATM   12  N   LIG     1      18.265  36.905  20.315  1.00  0.00    -0.259 NA
ENDBRANCH   1   7
TORSDOF 1
ENDMDL
MODEL 11
REMARK VINA RESULT:      -5.6      2.427      3.868
REMARK  1 active torsions:
REMARK  status: ('A' for Active; 'I' for Inactive)
REMARK    1  A    between atoms: C_1  and  C_2 
ROOT
HETATM    1  C   LIG     1      15.817  35.027  21.010  1.00  0.00     0.085 A 
HETATM    2  C   LIG     1      16.956  34.837  21.815  1.00  0.00     0.034 A 
HETATM    3  C   LIG     1      17.220  35.731  22.856  1.00  0.00     0.004 A 
HETATM    4  C   LIG     1      16.357  36.802  23.090  1.00  0.00     0.019 A 
HETATM    5  C   LIG     1      15.235  36.963  22.275  1.00  0.00     0.117 A 
HETATM    6  N   LIG     1      14.994  36.084  21.267  1.00  0.00    -0.259 NA
ENDROOT
BRANCH   1   7
HETATM    7  C   LIG     1      15.505  34.098  19.897  1.00  0.00     0.085 A 
HETATM    8  C   LIG     1      15.204  32.746  20.144  1.00  0.00     0.034 A 
HETATM    9  C   LIG     1      14.914  31.899  19.071  1.00  0.00     0.004 A 
HETATM   10  C   LIG     1      14.925  32.396  17.768  1.00  0.00     0.019 A 
HETATM   11  C   LIG     1      15.226  33.742  17.555  1.00  0.00     0.117 A 
HETATM   12  N   LIG     1      15.506  34.552  18.611  1.00  0.00    -0.259 NA
ENDBRANCH   1   7
TORSDOF 1
ENDMDL
MODEL 12
REMARK VINA RESULT:      -5.4      9.135     11.411
REMARK  1 active torsions:
REMARK  status: ('A' for Active; 'I' for Inactive)
REMARK    1  A    between atoms: C_1  and  C_2 
ROOT
HETATM    1  C   LIG     1      18.876  33.851  12.514  1.00  0.00     0.085 A 
HETATM    2  C   LIG     1      20.228  33.796  12.898  1.00  0.00     0.034 A 
HETATM    3  C   LIG     1      21.208  34.309  12.045  1.00  0.00     0.004 A 
HETATM    4  C   LIG     1      20.841  34.870  10.821  1.00  0.00     0.019 A 
HETATM    5  C   LIG     1      19.491  34.910  10.468  1.00  0.00     0.117 A 
HETATM    6  N   LIG     1      18.552  34.406  11.311  1.00  0.00    -0.259 NA
ENDROOT
BRANCH   1   7
HETATM    7  C   LIG     1      17.809  33.316  13.394  1.00  0.00     0.085 A 
HETATM    8  C   LIG     1      17.608  33.835  14.687  1.00  0.00     0.034 A 
HETATM    9  C   LIG     1      16.593  33.309  15.490  1.00  0.00     0.004 A 
HETATM   10  C   LIG     1      15.789  32.277  15.008  1.00  0.00     0.019 A 
HETATM   11  C   LIG     1      16.012  31.783  13.721  1.00  0.00     0.117 A 
HETATM   12  N   LIG     1      17.004  32.308  12.954  1.00  0.00    -0.259 NA
ENDBRANCH   1   7
TORSDOF 1
ENDMDL
MODEL 13
REMARK VINA RESULT:      -5.4      8.143     11.235
REMARK  1 active torsions:
REMARK  status: ('A' for Active; 'I' for Inactive)
REMARK    1  A    between atoms: C_1  and  C_2 
ROOT
HETATM    1  C   LIG     1      14.447  29.698  14.650  1.00  0.00     0.085 A 
HETATM    2  C   LIG     1      13.139  29.222  14.440  1.00  0.00     0.034 A 
HETATM    3  C   LIG     1      12.947  28.007  13.777  1.00  0.00     0.004 A 
HETATM    4  C   LIG     1      14.048  27.277  13.329  1.00  0.00     0.019 A 
HETATM    5  C   LIG     1      15.333  27.775  13.553  1.00  0.00     0.117 A 
HETATM    6  N   LIG     1      15.500  28.959  14.199  1.00  0.00    -0.259 NA
ENDROOT
BRANCH   1   7
HETATM    7  C   LIG     1      14.689  30.983  15.349  1.00  0.00     0.085 A 
HETATM    8  C   LIG     1      13.854  31.404  16.401  1.00  0.00     0.034 A 
HETATM    9  C   LIG     1      14.111  32.621  17.039  1.00  0.00     0.004 A 
HETATM   10  C   LIG     1      15.188  33.407  16.631  1.00  0.00     0.019 A 
HETATM   11  C   LIG     1      15.999  32.962  15.585  1.00  0.00     0.117 A 
HETATM   12  N   LIG     1      15.734  31.776  14.976  1.00  0.00    -0.259 NA
ENDBRANCH   1   7
TORSDOF 1
ENDMDL
MODEL 14
REMARK VINA RESULT:      -5.4      8.912     11.405
REMARK  1 active torsions:
REMARK  status: ('A' for Active; 'I' for Inactive)
REMARK    1  A    between atoms: C_1  and  C_2 
ROOT
HETATM    1  C   LIG     1      15.057  29.984  14.177  1.00  0.00     0.085 A 
HETATM    2  C   LIG     1      13.670  29.853  14.372  1.00  0.00     0.034 A 
HETATM    3  C   LIG     1      13.058  28.616  14.150  1.00  0.00     0.004 A 
HETATM    4  C   LIG     1      13.822  27.525  13.739  1.00  0.00     0.019 A 
HETATM    5  C   LIG     1      15.196  27.687  13.554  1.00  0.00     0.117 A 
HETATM    6  N   LIG     1      15.775  28.897  13.774  1.00  0.00    -0.259 NA
ENDROOT
BRANCH   1   7
HETATM    7  C   LIG     1      15.741  31.281  14.402  1.00  0.00     0.085 A 
HETATM    8  C   LIG     1      15.571  31.990  15.606  1.00  0.00     0.034 A 
HETATM    9  C   LIG     1      16.231  33.208  15.786  1.00  0.00     0.004 A 
HETATM   10  C   LIG     1      17.049  33.713  14.776  1.00  0.00     0.019 A 
HETATM   11  C   LIG     1      17.198  32.986  13.593  1.00  0.00     0.117 A 
HETATM   12  N   LIG     1      16.549  31.802  13.435  1.00  0.00    -0.259 NA
ENDBRANCH   1   7
TORSDOF 1
ENDMDL
MODEL 15
REMARK VINA RESULT:      -5.4      8.906     10.938
REMARK  1 active torsions:
REMARK  status: ('A' for Active; 'I' for Inactive)
REMARK    1  A    between atoms: C_1  and  C_2 
ROOT
HETATM    1  C   LIG     1      15.720  31.270  14.412  1.00  0.00     0.085 A 
HETATM    2  C   LIG     1      15.545  31.979  15.615  1.00  0.00     0.034 A 
HETATM    3  C   LIG     1      16.205  33.197  15.798  1.00  0.00     0.004 A 
HETATM    4  C   LIG     1      17.031  33.699  14.793  1.00  0.00     0.019 A 
HETATM    5  C   LIG     1      17.184  32.973  13.611  1.00  0.00     0.117 A 
HETATM    6  N   LIG     1      16.534  31.790  13.450  1.00  0.00    -0.259 NA
ENDROOT
BRANCH   1   7
HETATM    7  C   LIG     1      15.034  29.975  14.182  1.00  0.00     0.085 A 
HETATM    8  C   LIG     1      13.648  29.843  14.383  1.00  0.00     0.034 A 
HETATM    9  C   LIG     1      13.034  28.608  14.156  1.00  0.00     0.004 A 
HETATM   10  C   LIG     1      13.796  27.519  13.734  1.00  0.00     0.019 A 
HETATM   11  C   LIG     1      15.169  27.681  13.543  1.00  0.00     0.117 A 
HETATM   12  N   LIG     1      15.749  28.890  13.769  1.00  0.00    -0.259 NA
ENDBRANCH   1   7
TORSDOF 1
ENDMDL
MODEL 16
REMARK VINA RESULT:      -5.2      1.990      4.937
REMARK  1 active torsions:
REMARK  status: ('A' for Active; 'I' for Inactive)
REMARK    1  A    between atoms: C_1  and  C_2 
ROOT
HETATM    1  C   LIG     1      17.927  37.470  22.965  1.00  0.00     0.085 A 
HETATM    2  C   LIG     1      18.244  38.841  22.959  1.00  0.00     0.034 A 
HETATM    3  C   LIG     1      18.350  39.517  21.740  1.00  0.00     0.004 A 
HETATM    4  C   LIG     1      18.142  38.832  20.544  1.00  0.00     0.019 A 
HETATM    5  C   LIG     1      17.829  37.472  20.582  1.00  0.00     0.117 A 
HETATM    6  N   LIG     1      17.730  36.831  21.777  1.00  0.00    -0.259 NA
ENDROOT
BRANCH   1   7
HETATM    7  C   LIG     1      17.805  36.720  24.239  1.00  0.00     0.085 A 
HETATM    8  C   LIG     1      17.228  35.437  24.272  1.00  0.00     0.034 A 
HETATM    9  C   LIG     1      17.130  34.758  25.490  1.00  0.00     0.004 A 
HETATM   10  C   LIG     1      17.602  35.354  26.659  1.00  0.00     0.019 A 
HETATM   11  C   LIG     1      18.170  36.627  26.594  1.00  0.00     0.117 A 
HETATM   12  N   LIG     1      18.257  37.273  25.401  1.00  0.00    -0.259 NA
ENDBRANCH   1   7
TORSDOF 1
ENDMDL
MODEL 17
REMARK VINA RESULT:      -5.2      8.645     10.114
REMARK  1 active torsions:
REMARK  status: ('A' for Active; 'I' for Inactive)
REMARK    1  A    between atoms: C_1  and  C_2 
ROOT
HETATM    1  C   LIG     1      16.333  32.541  14.463  1.00  0.00     0.085 A 
HETATM    2  C   LIG     1      16.919  33.647  15.107  1.00  0.00     0.034 A 
HETATM    3  C   LIG     1      17.975  34.323  14.489  1.00  0.00     0.004 A 
HETATM    4  C   LIG     1      18.440  33.898  13.244  1.00  0.00     0.019 A 
HETATM    5  C   LIG     1      17.838  32.798  12.631  1.00  0.00     0.117 A 
HETATM    6  N   LIG     1      16.812  32.153  13.247  1.00  0.00    -0.259 NA
ENDROOT
BRANCH   1   7
HETATM    7  C   LIG     1      15.211  31.800  15.089  1.00  0.00     0.085 A 
HETATM    8  C   LIG     1      14.651  30.670  14.465  1.00  0.00     0.034 A 
HETATM    9  C   LIG     1      13.595  29.995  15.082  1.00  0.00     0.004 A 
HETATM   10  C   LIG     1      13.103  30.445  16.307  1.00  0.00     0.019 A 
HETATM   11  C   LIG     1      13.679  31.569  16.901  1.00  0.00     0.117 A 
HETATM   12  N   LIG     1      14.706  32.213  16.287  1.00  0.00    -0.259 NA
ENDBRANCH   1   7
TORSDOF 1
ENDMDL
MODEL 18
REMARK VINA RESULT:      -5.2      9.122     11.204
REMARK  1 active torsions:
REMARK  status: ('A' for Active; 'I' for Inactive)
REMARK    1  A    between atoms: C_1  and  C_2 
ROOT
HETATM    1  C   LIG     1      17.822  33.307  13.399  1.00  0.00     0.085 A 
HETATM    2  C   LIG     1      17.623  33.826  14.692  1.00  0.00     0.034 A 
HETATM    3  C   LIG     1      16.601  33.308  15.492  1.00  0.00     0.004 A 
HETATM    4  C   LIG     1      15.787  32.285  15.005  1.00  0.00     0.019 A 
HETATM    5  C   LIG     1      16.009  31.791  13.719  1.00  0.00     0.117 A 
HETATM    6  N   LIG     1      17.008  32.307  12.955  1.00  0.00    -0.259 NA
ENDROOT
BRANCH   1   7
HETATM    7  C   LIG     1      18.897  33.832  12.523  1.00  0.00     0.085 A 
HETATM    8  C   LIG     1      18.595  34.453  11.297  1.00  0.00     0.034 A 
HETATM    9  C   LIG     1      19.632  34.937  10.496  1.00  0.00     0.004 A 
HETATM   10  C   LIG     1      20.956  34.801  10.914  1.00  0.00     0.019 A 
HETATM   11  C   LIG     1      21.224  34.180  12.135  1.00  0.00     0.117 A 
HETATM   12  N   LIG     1      20.202  33.716  12.901  1.00  0.00    -0.259 NA
ENDBRANCH   1   7
TORSDOF 1
ENDMDL
MODEL 19
REMARK VINA RESULT:      -5.1      9.018     10.086
REMARK  1 active torsions:
REMARK  status: ('A' for Active; 'I' for Inactive)
REMARK    1  A    between atoms: C_1  and  C_2 
ROOT
HETATM    1  C   LIG     1      15.235  31.766  15.047  1.00  0.00     0.085 A 
HETATM    2  C   LIG     1      14.733  32.124  16.311  1.00  0.00     0.034 A 
HETATM    3  C   LIG     1      13.673  31.399  16.862  1.00  0.00     0.004 A 
HETATM    4  C   LIG     1      13.122  30.328  16.158  1.00  0.00     0.019 A 
HETATM    5  C   LIG     1      13.643  29.996  14.906  1.00  0.00     0.117 A 
HETATM    6  N   LIG     1      14.674  30.713  14.386  1.00  0.00    -0.259 NA
ENDROOT
BRANCH   1   7
HETATM    7  C   LIG     1      16.359  32.513  14.431  1.00  0.00     0.085 A 
HETATM    8  C   LIG     1      16.970  33.587  15.104  1.00  0.00     0.034 A 
HETATM    9  C   LIG     1      18.027  34.269  14.495  1.00  0.00     0.004 A 
HETATM   10  C   LIG     1      18.467  33.882  13.230  1.00  0.00     0.019 A 
HETATM   11  C   LIG     1      17.842  32.812  12.588  1.00  0.00     0.117 A 
HETATM   12  N   LIG     1      16.815  32.160  13.195  1.00  0.00    -0.259 NA
ENDBRANCH   1   7
TORSDOF 1
ENDMDL
MODEL 20
REMARK VINA RESULT:      -5.1      8.435     10.889
REMARK  1 active torsions:
REMARK  status: ('A' for Active; 'I' for Inactive)
REMARK    1  A    between atoms: C_1  and  C_2 
ROOT
HETATM    1  C   LIG     1      17.658  33.594  13.600  1.00  0.00     0.085 A 
HETATM    2  C   LIG     1      16.876  32.443  13.389  1.00  0.00     0.034 A 
HETATM    3  C   LIG     1      15.940  32.060  14.353  1.00  0.00     0.004 A 
HETATM    4  C   LIG     1      15.787  32.818  15.514  1.00  0.00     0.019 A 
HETATM    5  C   LIG     1      16.576  33.955  15.694  1.00  0.00     0.117 A 
HETATM    6  N   LIG     1      17.482  34.312  14.746  1.00  0.00    -0.259 NA
ENDROOT
BRANCH   1   7
HETATM    7  C   LIG     1      18.661  34.031  12.598  1.00  0.00     0.085 A 
HETATM    8  C   LIG     1      20.029  33.755  12.775  1.00  0.00     0.034 A 
HETATM    9  C   LIG     1      20.947  34.181  11.812  1.00  0.00     0.004 A 
HETATM   10  C   LIG     1      20.504  34.873  10.685  1.00  0.00     0.019 A 
HETATM   11  C   LIG     1      19.140  35.131  10.538  1.00  0.00     0.117 A 
HETATM   12  N   LIG     1      18.261  34.709  11.485  1.00  0.00    -0.259 NA
ENDBRANCH   1   7
TORSDOF 1
ENDMDL
