REMARK  1 active torsions:
REMARK  status: ('A' for Active; 'I' for Inactive)
REMARK    1  A    between atoms: C_1  and  C_2 
ROOT
HETATM    1  C   LIG     1       0.739   0.053  -0.087  1.00  0.00     0.085 A 
HETATM    2  C   LIG     1       1.361   1.184  -0.647  1.00  0.00     0.034 A 
HETATM    3  C   LIG     1       2.756   1.251  -0.692  1.00  0.00     0.004 A 
HETATM    4  C   LIG     1       3.520   0.201  -0.183  1.00  0.00     0.019 A 
HETATM    5  C   LIG     1       2.874  -0.908   0.366  1.00  0.00     0.117 A 
HETATM    6  N   LIG     1       1.516  -0.956   0.401  1.00  0.00    -0.259 NA
ENDROOT
BRANCH   1   7
HETATM    7  C   LIG     1      -0.739  -0.053  -0.023  1.00  0.00     0.085 A 
HETATM    8  C   LIG     1      -1.361  -1.184   0.537  1.00  0.00     0.034 A 
HETATM    9  C   LIG     1      -2.756  -1.251   0.582  1.00  0.00     0.004 A 
HETATM   10  C   LIG     1      -3.520  -0.201   0.073  1.00  0.00     0.019 A 
HETATM   11  C   LIG     1      -2.874   0.908  -0.476  1.00  0.00     0.117 A 
HETATM   12  N   LIG     1      -1.516   0.956  -0.511  1.00  0.00    -0.259 NA
ENDBRANCH   1   7
TORSDOF 1
