REMARK  15 active torsions:
REMARK  status: ('A' for Active; 'I' for Inactive)
REMARK    1  A    between atoms: C_2  and  C_3 
REMARK    2  A    between atoms: C_3  and  C_4 
REMARK    3  A    between atoms: C_4  and  C_5 
REMARK    4  A    between atoms: C_5  and  C_6 
REMARK    5  A    between atoms: C_6  and  C_7 
REMARK    6  A    between atoms: C_7  and  C_8 
REMARK    7  A    between atoms: C_8  and  C_9 
REMARK    8  A    between atoms: C_9  and  C_10 
REMARK    9  A    between atoms: C_10  and  C_11 
REMARK   10  A    between atoms: C_11  and  C_12 
REMARK   11  A    between atoms: C_12  and  C_13 
REMARK   12  A    between atoms: C_13  and  C_14 
REMARK   13  A    between atoms: C_14  and  C_15 
REMARK   14  A    between atoms: C_15  and  C_16 
REMARK   15  A    between atoms: C_16  and  O_17 
ROOT
HETATM    1  C   LIG     1       0.643  -0.352   0.757  1.00  0.00     0.000 C 
ENDROOT
BRANCH   1   2
HETATM    2  C   LIG     1      -0.538   0.147  -0.084  1.00  0.00     0.000 C 
BRANCH   2   3
HETATM    3  C   LIG     1      -1.875  -0.251   0.552  1.00  0.00     0.000 C 
BRANCH   3   4
HETATM    4  C   LIG     1      -3.055   0.252  -0.288  1.00  0.00     0.000 C 
BRANCH   4   5
HETATM    5  C   LIG     1      -4.393  -0.145   0.349  1.00  0.00     0.000 C 
BRANCH   5   6
HETATM    6  C   LIG     1      -5.573   0.359  -0.490  1.00  0.00     0.000 C 
BRANCH   6   7
HETATM    7  C   LIG     1      -6.910  -0.040   0.146  1.00  0.00    -0.000 C 
BRANCH   7   8
HETATM    8  C   LIG     1      -8.090   0.465  -0.692  1.00  0.00    -0.005 C 
HETATM    9  C   LIG     1      -9.423   0.073  -0.061  1.00  0.00     0.005 C 
ENDBRANCH   7   8
ENDBRANCH   6   7
ENDBRANCH   5   6
ENDBRANCH   4   5
ENDBRANCH   3   4
ENDBRANCH   2   3
ENDBRANCH   1   2
BRANCH   1  10
HETATM   10  C   LIG     1       1.980   0.048   0.123  1.00  0.00     0.000 C 
BRANCH  10  11
HETATM   11  C   LIG     1       3.161  -0.459   0.965  1.00  0.00     0.000 C 
BRANCH  11  12
HETATM   12  C   LIG     1       4.520   0.019   0.428  1.00  0.00     0.000 C 
BRANCH  12  13
HETATM   13  C   LIG     1       4.965  -0.754  -0.824  1.00  0.00     0.000 C 
BRANCH  13  14
HETATM   14  C   LIG     1       6.272  -0.213  -1.426  1.00  0.00     0.002 C 
BRANCH  14  15
HETATM   15  C   LIG     1       7.508  -0.436  -0.528  1.00  0.00     0.026 C 
BRANCH  15  16
HETATM   16  C   LIG     1       7.947   0.847   0.187  1.00  0.00     0.164 C 
BRANCH  16  17
HETATM   17  O   LIG     1       9.030   0.581   1.036  1.00  0.00    -0.401 OA
HETATM   18  H   LIG     1       9.832   0.497   0.457  1.00  0.00     0.209 HD
ENDBRANCH  16  17
ENDBRANCH  15  16
ENDBRANCH  14  15
ENDBRANCH  13  14
ENDBRANCH  12  13
ENDBRANCH  11  12
ENDBRANCH  10  11
ENDBRANCH   1  10
TORSDOF 15
