MODEL 1
REMARK VINA RESULT:      -6.0      0.000      0.000
REMARK  0 active torsions:
REMARK  status: ('A' for Active; 'I' for Inactive)
ROOT
HETATM    1  F   LIG     1      17.318  38.918  25.496  1.00  0.00    -0.206 F 
HETATM    2  C   LIG     1      17.468  37.571  25.450  1.00  0.00     0.119 A 
HETATM    3  C   LIG     1      17.014  36.855  24.337  1.00  0.00     0.084 A 
HETATM    4  C   LIG     1      17.169  35.465  24.289  1.00  0.00     0.119 A 
HETATM    5  F   LIG     1      16.729  34.771  23.211  1.00  0.00    -0.206 F 
HETATM    6  C   LIG     1      17.776  34.792  25.355  1.00  0.00     0.042 A 
HETATM    7  C   LIG     1      18.230  35.509  26.468  1.00  0.00     0.006 A 
HETATM    8  C   LIG     1      18.075  36.898  26.515  1.00  0.00     0.042 A 
ENDROOT
TORSDOF 0
ENDMDL
MODEL 2
REMARK VINA RESULT:      -6.0      0.054      2.938
REMARK  0 active torsions:
REMARK  status: ('A' for Active; 'I' for Inactive)
ROOT
HETATM    1  F   LIG     1      16.759  34.807  23.205  1.00  0.00    -0.206 F 
HETATM    2  C   LIG     1      17.198  35.481  24.296  1.00  0.00     0.119 A 
HETATM    3  C   LIG     1      17.024  36.868  24.378  1.00  0.00     0.084 A 
HETATM    4  C   LIG     1      17.477  37.564  25.504  1.00  0.00     0.119 A 
HETATM    5  F   LIG     1      17.308  38.907  25.583  1.00  0.00    -0.206 F 
HETATM    6  C   LIG     1      18.104  36.874  26.547  1.00  0.00     0.042 A 
HETATM    7  C   LIG     1      18.277  35.488  26.465  1.00  0.00     0.006 A 
HETATM    8  C   LIG     1      17.825  34.792  25.340  1.00  0.00     0.042 A 
ENDROOT
TORSDOF 0
ENDMDL
MODEL 3
REMARK VINA RESULT:      -5.8      1.603      2.534
REMARK  0 active torsions:
REMARK  status: ('A' for Active; 'I' for Inactive)
ROOT
HETATM    1  F   LIG     1      18.707  36.311  27.438  1.00  0.00    -0.206 F 
HETATM    2  C   LIG     1      18.131  36.264  26.211  1.00  0.00     0.119 A 
HETATM    3  C   LIG     1      17.884  37.448  25.508  1.00  0.00     0.084 A 
HETATM    4  C   LIG     1      17.290  37.400  24.242  1.00  0.00     0.119 A 
HETATM    5  F   LIG     1      17.051  38.548  23.561  1.00  0.00    -0.206 F 
HETATM    6  C   LIG     1      16.942  36.167  23.680  1.00  0.00     0.042 A 
HETATM    7  C   LIG     1      17.188  34.982  24.383  1.00  0.00     0.006 A 
HETATM    8  C   LIG     1      17.782  35.031  25.648  1.00  0.00     0.042 A 
ENDROOT
TORSDOF 0
ENDMDL
MODEL 4
REMARK VINA RESULT:      -5.8      1.611      2.573
REMARK  0 active torsions:
REMARK  status: ('A' for Active; 'I' for Inactive)
ROOT
HETATM    1  F   LIG     1      17.132  38.562  23.543  1.00  0.00    -0.206 F 
HETATM    2  C   LIG     1      17.336  37.404  24.218  1.00  0.00     0.119 A 
HETATM    3  C   LIG     1      17.913  37.430  25.493  1.00  0.00     0.084 A 
HETATM    4  C   LIG     1      18.124  36.236  26.190  1.00  0.00     0.119 A 
HETATM    5  F   LIG     1      18.683  36.261  27.425  1.00  0.00    -0.206 F 
HETATM    6  C   LIG     1      17.758  35.015  25.612  1.00  0.00     0.042 A 
HETATM    7  C   LIG     1      17.181  34.989  24.338  1.00  0.00     0.006 A 
HETATM    8  C   LIG     1      16.971  36.183  23.641  1.00  0.00     0.042 A 
ENDROOT
TORSDOF 0
ENDMDL
MODEL 5
REMARK VINA RESULT:      -5.8      1.624      2.703
REMARK  0 active torsions:
REMARK  status: ('A' for Active; 'I' for Inactive)
ROOT
HETATM    1  F   LIG     1      16.420  36.171  22.611  1.00  0.00    -0.206 F 
HETATM    2  C   LIG     1      16.950  36.351  23.846  1.00  0.00     0.119 A 
HETATM    3  C   LIG     1      17.378  35.246  24.590  1.00  0.00     0.084 A 
HETATM    4  C   LIG     1      17.926  35.430  25.865  1.00  0.00     0.119 A 
HETATM    5  F   LIG     1      18.341  34.360  26.586  1.00  0.00    -0.206 F 
HETATM    6  C   LIG     1      18.045  36.720  26.394  1.00  0.00     0.042 A 
HETATM    7  C   LIG     1      17.617  37.825  25.650  1.00  0.00     0.006 A 
HETATM    8  C   LIG     1      17.070  37.640  24.376  1.00  0.00     0.042 A 
ENDROOT
TORSDOF 0
ENDMDL
MODEL 6
REMARK VINA RESULT:      -5.7      1.644      2.501
REMARK  0 active torsions:
REMARK  status: ('A' for Active; 'I' for Inactive)
ROOT
HETATM    1  F   LIG     1      18.288  34.298  26.658  1.00  0.00    -0.206 F 
HETATM    2  C   LIG     1      17.904  35.349  25.892  1.00  0.00     0.119 A 
HETATM    3  C   LIG     1      17.369  35.127  24.618  1.00  0.00     0.084 A 
HETATM    4  C   LIG     1      16.973  36.212  23.827  1.00  0.00     0.119 A 
HETATM    5  F   LIG     1      16.454  35.997  22.593  1.00  0.00    -0.206 F 
HETATM    6  C   LIG     1      17.113  37.517  24.310  1.00  0.00     0.042 A 
HETATM    7  C   LIG     1      17.648  37.739  25.584  1.00  0.00     0.006 A 
HETATM    8  C   LIG     1      18.044  36.654  26.374  1.00  0.00     0.042 A 
ENDROOT
TORSDOF 0
ENDMDL
MODEL 7
REMARK VINA RESULT:      -5.6      4.771      5.543
REMARK  0 active torsions:
REMARK  status: ('A' for Active; 'I' for Inactive)
ROOT
HETATM    1  F   LIG     1      17.390  39.364  22.566  1.00  0.00    -0.206 F 
HETATM    2  C   LIG     1      18.005  38.680  21.569  1.00  0.00     0.119 A 
HETATM    3  C   LIG     1      19.036  39.283  20.840  1.00  0.00     0.084 A 
HETATM    4  C   LIG     1      19.671  38.577  19.811  1.00  0.00     0.119 A 
HETATM    5  F   LIG     1      20.670  39.162  19.105  1.00  0.00    -0.206 F 
HETATM    6  C   LIG     1      19.274  37.269  19.513  1.00  0.00     0.042 A 
HETATM    7  C   LIG     1      18.244  36.667  20.243  1.00  0.00     0.006 A 
HETATM    8  C   LIG     1      17.609  37.372  21.270  1.00  0.00     0.042 A 
ENDROOT
TORSDOF 0
ENDMDL
MODEL 8
REMARK VINA RESULT:      -5.6      4.785      5.777
REMARK  0 active torsions:
REMARK  status: ('A' for Active; 'I' for Inactive)
ROOT
HETATM    1  F   LIG     1      20.581  39.224  19.059  1.00  0.00    -0.206 F 
HETATM    2  C   LIG     1      19.605  38.615  19.777  1.00  0.00     0.119 A 
HETATM    3  C   LIG     1      18.933  39.318  20.782  1.00  0.00     0.084 A 
HETATM    4  C   LIG     1      17.926  38.690  21.523  1.00  0.00     0.119 A 
HETATM    5  F   LIG     1      17.274  39.372  22.496  1.00  0.00    -0.206 F 
HETATM    6  C   LIG     1      17.592  37.357  21.258  1.00  0.00     0.042 A 
HETATM    7  C   LIG     1      18.264  36.653  20.253  1.00  0.00     0.006 A 
HETATM    8  C   LIG     1      19.271  37.282  19.513  1.00  0.00     0.042 A 
ENDROOT
TORSDOF 0
ENDMDL
MODEL 9
REMARK VINA RESULT:      -5.5      1.453      3.311
REMARK  0 active torsions:
REMARK  status: ('A' for Active; 'I' for Inactive)
ROOT
HETATM    1  F   LIG     1      16.684  34.725  22.985  1.00  0.00    -0.206 F 
HETATM    2  C   LIG     1      17.043  35.661  23.898  1.00  0.00     0.119 A 
HETATM    3  C   LIG     1      17.583  35.269  25.127  1.00  0.00     0.084 A 
HETATM    4  C   LIG     1      17.955  36.234  26.070  1.00  0.00     0.119 A 
HETATM    5  F   LIG     1      18.479  35.854  27.260  1.00  0.00    -0.206 F 
HETATM    6  C   LIG     1      17.784  37.593  25.782  1.00  0.00     0.042 A 
HETATM    7  C   LIG     1      17.244  37.986  24.552  1.00  0.00     0.006 A 
HETATM    8  C   LIG     1      16.873  37.020  23.611  1.00  0.00     0.042 A 
ENDROOT
TORSDOF 0
ENDMDL
MODEL 10
REMARK VINA RESULT:      -5.5      4.618      5.831
REMARK  0 active torsions:
REMARK  status: ('A' for Active; 'I' for Inactive)
ROOT
HETATM    1  F   LIG     1      17.434  35.604  20.541  1.00  0.00    -0.206 F 
HETATM    2  C   LIG     1      17.963  36.849  20.634  1.00  0.00     0.119 A 
HETATM    3  C   LIG     1      18.967  37.251  19.746  1.00  0.00     0.084 A 
HETATM    4  C   LIG     1      19.513  38.536  19.842  1.00  0.00     0.119 A 
HETATM    5  F   LIG     1      20.486  38.924  18.981  1.00  0.00    -0.206 F 
HETATM    6  C   LIG     1      19.055  39.418  20.826  1.00  0.00     0.042 A 
HETATM    7  C   LIG     1      18.051  39.017  21.714  1.00  0.00     0.006 A 
HETATM    8  C   LIG     1      17.505  37.732  21.618  1.00  0.00     0.042 A 
ENDROOT
TORSDOF 0
ENDMDL
MODEL 11
REMARK VINA RESULT:      -5.4      4.582      5.390
REMARK  0 active torsions:
REMARK  status: ('A' for Active; 'I' for Inactive)
ROOT
HETATM    1  F   LIG     1      20.481  38.859  19.005  1.00  0.00    -0.206 F 
HETATM    2  C   LIG     1      19.506  38.468  19.862  1.00  0.00     0.119 A 
HETATM    3  C   LIG     1      18.941  37.193  19.743  1.00  0.00     0.084 A 
HETATM    4  C   LIG     1      17.934  36.789  20.627  1.00  0.00     0.119 A 
HETATM    5  F   LIG     1      17.387  35.554  20.512  1.00  0.00    -0.206 F 
HETATM    6  C   LIG     1      17.494  37.659  21.630  1.00  0.00     0.042 A 
HETATM    7  C   LIG     1      18.060  38.933  21.749  1.00  0.00     0.006 A 
HETATM    8  C   LIG     1      19.065  39.337  20.865  1.00  0.00     0.042 A 
ENDROOT
TORSDOF 0
ENDMDL
MODEL 12
REMARK VINA RESULT:      -5.4      4.304      5.892
REMARK  0 active torsions:
REMARK  status: ('A' for Active; 'I' for Inactive)
ROOT
HETATM    1  F   LIG     1      17.322  35.560  20.587  1.00  0.00    -0.206 F 
HETATM    2  C   LIG     1      18.014  36.723  20.511  1.00  0.00     0.119 A 
HETATM    3  C   LIG     1      17.750  37.755  21.418  1.00  0.00     0.084 A 
HETATM    4  C   LIG     1      18.464  38.956  21.340  1.00  0.00     0.119 A 
HETATM    5  F   LIG     1      18.208  39.956  22.219  1.00  0.00    -0.206 F 
HETATM    6  C   LIG     1      19.442  39.125  20.353  1.00  0.00     0.042 A 
HETATM    7  C   LIG     1      19.706  38.093  19.446  1.00  0.00     0.006 A 
HETATM    8  C   LIG     1      18.992  36.893  19.525  1.00  0.00     0.042 A 
ENDROOT
TORSDOF 0
ENDMDL
MODEL 13
REMARK VINA RESULT:      -5.1      1.880      3.852
REMARK  0 active torsions:
REMARK  status: ('A' for Active; 'I' for Inactive)
ROOT
HETATM    1  F   LIG     1      17.057  34.565  24.862  1.00  0.00    -0.206 F 
HETATM    2  C   LIG     1      17.090  35.471  23.854  1.00  0.00     0.119 A 
HETATM    3  C   LIG     1      17.125  36.839  24.144  1.00  0.00     0.084 A 
HETATM    4  C   LIG     1      17.160  37.775  23.104  1.00  0.00     0.119 A 
HETATM    5  F   LIG     1      17.194  39.101  23.386  1.00  0.00    -0.206 F 
HETATM    6  C   LIG     1      17.159  37.342  21.774  1.00  0.00     0.042 A 
HETATM    7  C   LIG     1      17.124  35.974  21.483  1.00  0.00     0.006 A 
HETATM    8  C   LIG     1      17.089  35.039  22.523  1.00  0.00     0.042 A 
ENDROOT
TORSDOF 0
ENDMDL
MODEL 14
REMARK VINA RESULT:      -5.1      3.389      4.539
REMARK  0 active torsions:
REMARK  status: ('A' for Active; 'I' for Inactive)
ROOT
HETATM    1  F   LIG     1      16.084  37.681  23.958  1.00  0.00    -0.206 F 
HETATM    2  C   LIG     1      16.815  37.656  22.817  1.00  0.00     0.119 A 
HETATM    3  C   LIG     1      17.475  38.811  22.383  1.00  0.00     0.084 A 
HETATM    4  C   LIG     1      18.230  38.785  21.205  1.00  0.00     0.119 A 
HETATM    5  F   LIG     1      18.869  39.905  20.785  1.00  0.00    -0.206 F 
HETATM    6  C   LIG     1      18.325  37.604  20.461  1.00  0.00     0.042 A 
HETATM    7  C   LIG     1      17.666  36.448  20.895  1.00  0.00     0.006 A 
HETATM    8  C   LIG     1      16.911  36.475  22.073  1.00  0.00     0.042 A 
ENDROOT
TORSDOF 0
ENDMDL
MODEL 15
REMARK VINA RESULT:      -5.1      1.554      1.950
REMARK  0 active torsions:
REMARK  status: ('A' for Active; 'I' for Inactive)
ROOT
HETATM    1  F   LIG     1      17.026  39.097  22.852  1.00  0.00    -0.206 F 
HETATM    2  C   LIG     1      17.077  37.806  23.262  1.00  0.00     0.119 A 
HETATM    3  C   LIG     1      16.920  36.771  22.334  1.00  0.00     0.084 A 
HETATM    4  C   LIG     1      16.972  35.438  22.757  1.00  0.00     0.119 A 
HETATM    5  F   LIG     1      16.821  34.435  21.857  1.00  0.00    -0.206 F 
HETATM    6  C   LIG     1      17.180  35.141  24.108  1.00  0.00     0.042 A 
HETATM    7  C   LIG     1      17.337  36.176  25.037  1.00  0.00     0.006 A 
HETATM    8  C   LIG     1      17.285  37.508  24.614  1.00  0.00     0.042 A 
ENDROOT
TORSDOF 0
ENDMDL
MODEL 16
REMARK VINA RESULT:      -5.1      4.191      5.083
REMARK  0 active torsions:
REMARK  status: ('A' for Active; 'I' for Inactive)
ROOT
HETATM    1  F   LIG     1      16.745  37.683  22.992  1.00  0.00    -0.206 F 
HETATM    2  C   LIG     1      17.572  37.979  21.959  1.00  0.00     0.119 A 
HETATM    3  C   LIG     1      17.914  36.990  21.031  1.00  0.00     0.084 A 
HETATM    4  C   LIG     1      18.768  37.295  19.965  1.00  0.00     0.119 A 
HETATM    5  F   LIG     1      19.099  36.336  19.066  1.00  0.00    -0.206 F 
HETATM    6  C   LIG     1      19.279  38.590  19.828  1.00  0.00     0.042 A 
HETATM    7  C   LIG     1      18.936  39.580  20.756  1.00  0.00     0.006 A 
HETATM    8  C   LIG     1      18.083  39.274  21.821  1.00  0.00     0.042 A 
ENDROOT
TORSDOF 0
ENDMDL
MODEL 17
REMARK VINA RESULT:      -4.9      2.810      4.156
REMARK  0 active torsions:
REMARK  status: ('A' for Active; 'I' for Inactive)
ROOT
HETATM    1  F   LIG     1      16.560  34.794  23.461  1.00  0.00    -0.206 F 
HETATM    2  C   LIG     1      16.982  35.879  22.767  1.00  0.00     0.119 A 
HETATM    3  C   LIG     1      17.386  35.743  21.434  1.00  0.00     0.084 A 
HETATM    4  C   LIG     1      17.822  36.864  20.717  1.00  0.00     0.119 A 
HETATM    5  F   LIG     1      18.213  36.732  19.426  1.00  0.00    -0.206 F 
HETATM    6  C   LIG     1      17.853  38.119  21.334  1.00  0.00     0.042 A 
HETATM    7  C   LIG     1      17.449  38.255  22.666  1.00  0.00     0.006 A 
HETATM    8  C   LIG     1      17.014  37.135  23.382  1.00  0.00     0.042 A 
ENDROOT
TORSDOF 0
ENDMDL
MODEL 18
REMARK VINA RESULT:      -4.8     10.313     11.686
REMARK  0 active torsions:
REMARK  status: ('A' for Active; 'I' for Inactive)
ROOT
HETATM    1  F   LIG     1      13.776  32.204  17.653  1.00  0.00    -0.206 F 
HETATM    2  C   LIG     1      14.152  31.632  16.482  1.00  0.00     0.119 A 
HETATM    3  C   LIG     1      13.380  30.608  15.924  1.00  0.00     0.084 A 
HETATM    4  C   LIG     1      13.768  30.018  14.716  1.00  0.00     0.119 A 
HETATM    5  F   LIG     1      13.019  29.025  14.175  1.00  0.00    -0.206 F 
HETATM    6  C   LIG     1      14.928  30.453  14.066  1.00  0.00     0.042 A 
HETATM    7  C   LIG     1      15.700  31.478  14.624  1.00  0.00     0.006 A 
HETATM    8  C   LIG     1      15.312  32.067  15.832  1.00  0.00     0.042 A 
ENDROOT
TORSDOF 0
ENDMDL
MODEL 19
REMARK VINA RESULT:      -4.7     10.096     11.305
REMARK  0 active torsions:
REMARK  status: ('A' for Active; 'I' for Inactive)
ROOT
HETATM    1  F   LIG     1      16.743  32.772  15.176  1.00  0.00    -0.206 F 
HETATM    2  C   LIG     1      15.600  32.115  15.495  1.00  0.00     0.119 A 
HETATM    3  C   LIG     1      15.165  31.044  14.707  1.00  0.00     0.084 A 
HETATM    4  C   LIG     1      13.986  30.366  15.036  1.00  0.00     0.119 A 
HETATM    5  F   LIG     1      13.565  29.328  14.272  1.00  0.00    -0.206 F 
HETATM    6  C   LIG     1      13.242  30.761  16.153  1.00  0.00     0.042 A 
HETATM    7  C   LIG     1      13.676  31.832  16.942  1.00  0.00     0.006 A 
HETATM    8  C   LIG     1      14.855  32.509  16.612  1.00  0.00     0.042 A 
ENDROOT
TORSDOF 0
ENDMDL
MODEL 20
REMARK VINA RESULT:      -4.6     10.693     11.947
REMARK  0 active torsions:
REMARK  status: ('A' for Active; 'I' for Inactive)
ROOT
HETATM    1  F   LIG     1      15.672  30.098  13.006  1.00  0.00    -0.206 F 
HETATM    2  C   LIG     1      15.248  30.681  14.155  1.00  0.00     0.119 A 
HETATM    3  C   LIG     1      14.100  30.205  14.798  1.00  0.00     0.084 A 
HETATM    4  C   LIG     1      13.663  30.806  15.984  1.00  0.00     0.119 A 
HETATM    5  F   LIG     1      12.551  30.345  16.608  1.00  0.00    -0.206 F 
HETATM    6  C   LIG     1      14.373  31.884  16.525  1.00  0.00     0.042 A 
HETATM    7  C   LIG     1      15.521  32.359  15.881  1.00  0.00     0.006 A 
HETATM    8  C   LIG     1      15.958  31.758  14.696  1.00  0.00     0.042 A 
ENDROOT
TORSDOF 0
ENDMDL
