REMARK  0 active torsions:
REMARK  status: ('A' for Active; 'I' for Inactive)
ROOT
HETATM    1  F   LIG     1      -2.135  -1.711  -0.207  1.00  0.00    -0.206 F 
HETATM    2  C   LIG     1      -1.086  -0.858  -0.104  1.00  0.00     0.119 A 
HETATM    3  C   LIG     1       0.223  -1.350  -0.152  1.00  0.00     0.084 A 
HETATM    4  C   LIG     1       1.306  -0.470  -0.046  1.00  0.00     0.119 A 
HETATM    5  F   LIG     1       2.574  -0.947  -0.093  1.00  0.00    -0.206 F 
HETATM    6  C   LIG     1       1.079   0.902   0.109  1.00  0.00     0.042 A 
HETATM    7  C   LIG     1      -0.230   1.394   0.157  1.00  0.00     0.006 A 
HETATM    8  C   LIG     1      -1.312   0.514   0.051  1.00  0.00     0.042 A 
ENDROOT
TORSDOF 0
