MODEL 1
REMARK VINA RESULT:      -5.0      0.000      0.000
REMARK  2 active torsions:
REMARK  status: ('A' for Active; 'I' for Inactive)
REMARK    1  A    between atoms: C_2  and  C_5 
REMARK    2  A    between atoms: C_5  and  O_6 
ROOT
HETATM    1  F   LIG     1      16.625  34.411  26.517  1.00  0.00    -0.168 F 
HETATM    2  C   LIG     1      17.667  34.997  25.820  1.00  0.00     0.412 C 
HETATM    3  F   LIG     1      18.869  34.514  26.307  1.00  0.00    -0.168 F 
HETATM    4  F   LIG     1      17.562  34.652  24.484  1.00  0.00    -0.168 F 
ENDROOT
BRANCH   2   5
HETATM    5  C   LIG     1      17.613  36.523  25.960  1.00  0.00     0.221 C 
HETATM    6  C   LIG     1      17.211  37.193  24.640  1.00  0.00     0.048 C 
BRANCH   5   7
HETATM    7  O   LIG     1      18.870  36.995  26.369  1.00  0.00    -0.387 OA
HETATM    8  H   LIG     1      19.083  37.779  25.798  1.00  0.00     0.210 HD
ENDBRANCH   5   7
ENDBRANCH   2   5
TORSDOF 2
ENDMDL
MODEL 2
REMARK VINA RESULT:      -4.7      6.345      6.980
REMARK  2 active torsions:
REMARK  status: ('A' for Active; 'I' for Inactive)
REMARK    1  A    between atoms: C_2  and  C_5 
REMARK    2  A    between atoms: C_5  and  O_6 
ROOT
HETATM    1  F   LIG     1      20.190  36.400  19.389  1.00  0.00    -0.168 F 
HETATM    2  C   LIG     1      19.240  37.395  19.535  1.00  0.00     0.412 C 
HETATM    3  F   LIG     1      18.662  37.657  18.305  1.00  0.00    -0.168 F 
HETATM    4  F   LIG     1      18.255  36.950  20.399  1.00  0.00    -0.168 F 
ENDROOT
BRANCH   2   5
HETATM    5  C   LIG     1      19.880  38.668  20.102  1.00  0.00     0.221 C 
HETATM    6  C   LIG     1      18.828  39.602  20.710  1.00  0.00     0.048 C 
BRANCH   5   7
HETATM    7  O   LIG     1      20.571  39.333  19.076  1.00  0.00    -0.387 OA
HETATM    8  H   LIG     1      21.479  39.535  19.425  1.00  0.00     0.210 HD
ENDBRANCH   5   7
ENDBRANCH   2   5
TORSDOF 2
ENDMDL
MODEL 3
REMARK VINA RESULT:      -4.6      2.539      3.028
REMARK  2 active torsions:
REMARK  status: ('A' for Active; 'I' for Inactive)
REMARK    1  A    between atoms: C_2  and  C_5 
REMARK    2  A    between atoms: C_5  and  O_6 
ROOT
HETATM    1  F   LIG     1      18.847  36.975  26.885  1.00  0.00    -0.168 F 
HETATM    2  C   LIG     1      18.055  37.336  25.808  1.00  0.00     0.412 C 
HETATM    3  F   LIG     1      17.187  38.341  26.199  1.00  0.00    -0.168 F 
HETATM    4  F   LIG     1      18.867  37.822  24.799  1.00  0.00    -0.168 F 
ENDROOT
BRANCH   2   5
HETATM    5  C   LIG     1      17.267  36.125  25.294  1.00  0.00     0.221 C 
HETATM    6  C   LIG     1      17.832  34.812  25.848  1.00  0.00     0.048 C 
BRANCH   5   7
HETATM    7  O   LIG     1      17.312  36.107  23.891  1.00  0.00    -0.387 OA
HETATM    8  H   LIG     1      16.622  35.460  23.589  1.00  0.00     0.210 HD
ENDBRANCH   5   7
ENDBRANCH   2   5
TORSDOF 2
ENDMDL
MODEL 4
REMARK VINA RESULT:      -4.6      3.054      3.598
REMARK  2 active torsions:
REMARK  status: ('A' for Active; 'I' for Inactive)
REMARK    1  A    between atoms: C_2  and  C_5 
REMARK    2  A    between atoms: C_5  and  O_6 
ROOT
HETATM    1  F   LIG     1      18.921  38.197  24.592  1.00  0.00    -0.168 F 
HETATM    2  C   LIG     1      17.622  37.795  24.849  1.00  0.00     0.412 C 
HETATM    3  F   LIG     1      17.640  36.539  25.429  1.00  0.00    -0.168 F 
HETATM    4  F   LIG     1      17.047  38.684  25.739  1.00  0.00    -0.168 F 
ENDROOT
BRANCH   2   5
HETATM    5  C   LIG     1      16.804  37.768  23.552  1.00  0.00     0.221 C 
HETATM    6  C   LIG     1      17.325  38.794  22.539  1.00  0.00     0.048 C 
BRANCH   5   7
HETATM    7  O   LIG     1      15.458  38.034  23.849  1.00  0.00    -0.387 OA
HETATM    8  H   LIG     1      15.375  38.030  24.838  1.00  0.00     0.210 HD
ENDBRANCH   5   7
ENDBRANCH   2   5
TORSDOF 2
ENDMDL
MODEL 5
REMARK VINA RESULT:      -4.4      2.197      2.911
REMARK  2 active torsions:
REMARK  status: ('A' for Active; 'I' for Inactive)
REMARK    1  A    between atoms: C_2  and  C_5 
REMARK    2  A    between atoms: C_5  and  O_6 
ROOT
HETATM    1  F   LIG     1      15.819  37.628  24.066  1.00  0.00    -0.168 F 
HETATM    2  C   LIG     1      17.126  37.182  23.969  1.00  0.00     0.412 C 
HETATM    3  F   LIG     1      17.140  35.799  24.030  1.00  0.00    -0.168 F 
HETATM    4  F   LIG     1      17.643  37.574  22.747  1.00  0.00    -0.168 F 
ENDROOT
BRANCH   2   5
HETATM    5  C   LIG     1      17.978  37.772  25.099  1.00  0.00     0.221 C 
HETATM    6  C   LIG     1      18.396  36.694  26.107  1.00  0.00     0.048 C 
BRANCH   5   7
HETATM    7  O   LIG     1      17.247  38.776  25.753  1.00  0.00    -0.387 OA
HETATM    8  H   LIG     1      16.289  38.521  25.692  1.00  0.00     0.210 HD
ENDBRANCH   5   7
ENDBRANCH   2   5
TORSDOF 2
ENDMDL
MODEL 6
REMARK VINA RESULT:      -4.3      2.947      3.777
REMARK  2 active torsions:
REMARK  status: ('A' for Active; 'I' for Inactive)
REMARK    1  A    between atoms: C_2  and  C_5 
REMARK    2  A    between atoms: C_5  and  O_6 
ROOT
HETATM    1  F   LIG     1      15.438  36.295  21.890  1.00  0.00    -0.168 F 
HETATM    2  C   LIG     1      16.654  36.561  22.497  1.00  0.00     0.412 C 
HETATM    3  F   LIG     1      17.082  35.433  23.172  1.00  0.00    -0.168 F 
HETATM    4  F   LIG     1      17.583  36.870  21.519  1.00  0.00    -0.168 F 
ENDROOT
BRANCH   2   5
HETATM    5  C   LIG     1      16.520  37.742  23.467  1.00  0.00     0.221 C 
HETATM    6  C   LIG     1      17.135  37.416  24.833  1.00  0.00     0.048 C 
BRANCH   5   7
HETATM    7  O   LIG     1      15.162  38.062  23.620  1.00  0.00    -0.387 OA
HETATM    8  H   LIG     1      15.121  38.868  24.199  1.00  0.00     0.210 HD
ENDBRANCH   5   7
ENDBRANCH   2   5
TORSDOF 2
ENDMDL
MODEL 7
REMARK VINA RESULT:      -4.2      3.555      4.486
REMARK  2 active torsions:
REMARK  status: ('A' for Active; 'I' for Inactive)
REMARK    1  A    between atoms: C_2  and  C_5 
REMARK    2  A    between atoms: C_5  and  O_6 
ROOT
HETATM    1  F   LIG     1      19.022  38.920  22.755  1.00  0.00    -0.168 F 
HETATM    2  C   LIG     1      17.719  38.456  22.767  1.00  0.00     0.412 C 
HETATM    3  F   LIG     1      16.934  39.282  21.982  1.00  0.00    -0.168 F 
HETATM    4  F   LIG     1      17.693  37.182  22.228  1.00  0.00    -0.168 F 
ENDROOT
BRANCH   2   5
HETATM    5  C   LIG     1      17.177  38.416  24.201  1.00  0.00     0.221 C 
HETATM    6  C   LIG     1      18.027  37.506  25.096  1.00  0.00     0.048 C 
BRANCH   5   7
HETATM    7  O   LIG     1      15.850  37.958  24.182  1.00  0.00    -0.387 OA
HETATM    8  H   LIG     1      15.885  36.971  24.288  1.00  0.00     0.210 HD
ENDBRANCH   5   7
ENDBRANCH   2   5
TORSDOF 2
ENDMDL
MODEL 8
REMARK VINA RESULT:      -4.0      7.630      8.164
REMARK  2 active torsions:
REMARK  status: ('A' for Active; 'I' for Inactive)
REMARK    1  A    between atoms: C_2  and  C_5 
REMARK    2  A    between atoms: C_5  and  O_6 
ROOT
HETATM    1  F   LIG     1      16.469  31.436  19.875  1.00  0.00    -0.168 F 
HETATM    2  C   LIG     1      15.360  32.242  19.680  1.00  0.00     0.412 C 
HETATM    3  F   LIG     1      14.336  31.814  20.505  1.00  0.00    -0.168 F 
HETATM    4  F   LIG     1      15.687  33.542  20.021  1.00  0.00    -0.168 F 
ENDROOT
BRANCH   2   5
HETATM    5  C   LIG     1      14.916  32.195  18.213  1.00  0.00     0.221 C 
HETATM    6  C   LIG     1      15.110  33.550  17.524  1.00  0.00     0.048 C 
BRANCH   5   7
HETATM    7  O   LIG     1      13.564  31.820  18.152  1.00  0.00    -0.387 OA
HETATM    8  H   LIG     1      13.482  30.961  18.643  1.00  0.00     0.210 HD
ENDBRANCH   5   7
ENDBRANCH   2   5
TORSDOF 2
ENDMDL
MODEL 9
REMARK VINA RESULT:      -3.9      5.111      5.728
REMARK  2 active torsions:
REMARK  status: ('A' for Active; 'I' for Inactive)
REMARK    1  A    between atoms: C_2  and  C_5 
REMARK    2  A    between atoms: C_5  and  O_6 
ROOT
HETATM    1  F   LIG     1      17.642  35.139  21.739  1.00  0.00    -0.168 F 
HETATM    2  C   LIG     1      17.217  36.106  20.844  1.00  0.00     0.412 C 
HETATM    3  F   LIG     1      16.299  35.547  19.972  1.00  0.00    -0.168 F 
HETATM    4  F   LIG     1      16.595  37.122  21.547  1.00  0.00    -0.168 F 
ENDROOT
BRANCH   2   5
HETATM    5  C   LIG     1      18.409  36.676  20.066  1.00  0.00     0.221 C 
HETATM    6  C   LIG     1      18.684  38.134  20.451  1.00  0.00     0.048 C 
BRANCH   5   7
HETATM    7  O   LIG     1      18.147  36.588  18.690  1.00  0.00    -0.387 OA
HETATM    8  H   LIG     1      18.978  36.863  18.221  1.00  0.00     0.210 HD
ENDBRANCH   5   7
ENDBRANCH   2   5
TORSDOF 2
ENDMDL
MODEL 10
REMARK VINA RESULT:      -3.9      3.791      4.449
REMARK  2 active torsions:
REMARK  status: ('A' for Active; 'I' for Inactive)
REMARK    1  A    between atoms: C_2  and  C_5 
REMARK    2  A    between atoms: C_5  and  O_6 
ROOT
HETATM    1  F   LIG     1      16.130  35.677  20.422  1.00  0.00    -0.168 F 
HETATM    2  C   LIG     1      17.196  35.989  21.249  1.00  0.00     0.412 C 
HETATM    3  F   LIG     1      17.467  34.908  22.069  1.00  0.00    -0.168 F 
HETATM    4  F   LIG     1      18.309  36.241  20.468  1.00  0.00    -0.168 F 
ENDROOT
BRANCH   2   5
HETATM    5  C   LIG     1      16.873  37.227  22.094  1.00  0.00     0.221 C 
HETATM    6  C   LIG     1      17.762  38.415  21.711  1.00  0.00     0.048 C 
BRANCH   5   7
HETATM    7  O   LIG     1      17.050  36.919  23.452  1.00  0.00    -0.387 OA
HETATM    8  H   LIG     1      16.730  37.704  23.969  1.00  0.00     0.210 HD
ENDBRANCH   5   7
ENDBRANCH   2   5
TORSDOF 2
ENDMDL
MODEL 11
REMARK VINA RESULT:      -3.8     10.001     10.657
REMARK  2 active torsions:
REMARK  status: ('A' for Active; 'I' for Inactive)
REMARK    1  A    between atoms: C_2  and  C_5 
REMARK    2  A    between atoms: C_5  and  O_6 
ROOT
HETATM    1  F   LIG     1      15.403  32.340  15.544  1.00  0.00    -0.168 F 
HETATM    2  C   LIG     1      14.731  32.514  16.742  1.00  0.00     0.412 C 
HETATM    3  F   LIG     1      15.633  32.429  17.787  1.00  0.00    -0.168 F 
HETATM    4  F   LIG     1      14.158  33.773  16.754  1.00  0.00    -0.168 F 
ENDROOT
BRANCH   2   5
HETATM    5  C   LIG     1      13.636  31.452  16.899  1.00  0.00     0.221 C 
HETATM    6  C   LIG     1      13.492  30.602  15.631  1.00  0.00     0.048 C 
BRANCH   5   7
HETATM    7  O   LIG     1      12.416  32.085  17.188  1.00  0.00    -0.387 OA
HETATM    8  H   LIG     1      12.340  32.124  18.177  1.00  0.00     0.210 HD
ENDBRANCH   5   7
ENDBRANCH   2   5
TORSDOF 2
ENDMDL
MODEL 12
REMARK VINA RESULT:      -3.8      9.460     10.088
REMARK  2 active torsions:
REMARK  status: ('A' for Active; 'I' for Inactive)
REMARK    1  A    between atoms: C_2  and  C_5 
REMARK    2  A    between atoms: C_5  and  O_6 
ROOT
HETATM    1  F   LIG     1      12.581  32.280  16.807  1.00  0.00    -0.168 F 
HETATM    2  C   LIG     1      13.838  31.700  16.810  1.00  0.00     0.412 C 
HETATM    3  F   LIG     1      13.811  30.559  17.592  1.00  0.00    -0.168 F 
HETATM    4  F   LIG     1      14.167  31.340  15.515  1.00  0.00    -0.168 F 
ENDROOT
BRANCH   2   5
HETATM    5  C   LIG     1      14.881  32.687  17.348  1.00  0.00     0.221 C 
HETATM    6  C   LIG     1      15.170  32.443  18.833  1.00  0.00     0.048 C 
BRANCH   5   7
HETATM    7  O   LIG     1      14.413  33.999  17.164  1.00  0.00    -0.387 OA
HETATM    8  H   LIG     1      13.471  34.014  17.476  1.00  0.00     0.210 HD
ENDBRANCH   5   7
ENDBRANCH   2   5
TORSDOF 2
ENDMDL
MODEL 13
REMARK VINA RESULT:      -3.8      4.183      4.840
REMARK  2 active torsions:
REMARK  status: ('A' for Active; 'I' for Inactive)
REMARK    1  A    between atoms: C_2  and  C_5 
REMARK    2  A    between atoms: C_5  and  O_6 
ROOT
HETATM    1  F   LIG     1      16.059  37.733  24.164  1.00  0.00    -0.168 F 
HETATM    2  C   LIG     1      15.970  37.897  22.793  1.00  0.00     0.412 C 
HETATM    3  F   LIG     1      14.889  37.178  22.317  1.00  0.00    -0.168 F 
HETATM    4  F   LIG     1      15.765  39.237  22.516  1.00  0.00    -0.168 F 
ENDROOT
BRANCH   2   5
HETATM    5  C   LIG     1      17.261  37.425  22.112  1.00  0.00     0.221 C 
HETATM    6  C   LIG     1      17.991  38.587  21.427  1.00  0.00     0.048 C 
BRANCH   5   7
HETATM    7  O   LIG     1      16.950  36.436  21.167  1.00  0.00    -0.387 OA
HETATM    8  H   LIG     1      16.042  36.642  20.822  1.00  0.00     0.210 HD
ENDBRANCH   5   7
ENDBRANCH   2   5
TORSDOF 2
ENDMDL
MODEL 14
REMARK VINA RESULT:      -3.7      9.539     10.248
REMARK  2 active torsions:
REMARK  status: ('A' for Active; 'I' for Inactive)
REMARK    1  A    between atoms: C_2  and  C_5 
REMARK    2  A    between atoms: C_5  and  O_6 
ROOT
HETATM    1  F   LIG     1      14.156  30.683  16.036  1.00  0.00    -0.168 F 
HETATM    2  C   LIG     1      13.911  31.643  17.003  1.00  0.00     0.412 C 
HETATM    3  F   LIG     1      12.582  32.025  16.937  1.00  0.00    -0.168 F 
HETATM    4  F   LIG     1      14.151  31.094  18.249  1.00  0.00    -0.168 F 
ENDROOT
BRANCH   2   5
HETATM    5  C   LIG     1      14.823  32.858  16.794  1.00  0.00     0.221 C 
HETATM    6  C   LIG     1      15.814  32.623  15.648  1.00  0.00     0.048 C 
BRANCH   5   7
HETATM    7  O   LIG     1      15.523  33.119  17.982  1.00  0.00    -0.387 OA
HETATM    8  H   LIG     1      15.480  34.100  18.132  1.00  0.00     0.210 HD
ENDBRANCH   5   7
ENDBRANCH   2   5
TORSDOF 2
ENDMDL
MODEL 15
REMARK VINA RESULT:      -3.7      9.562     10.167
REMARK  2 active torsions:
REMARK  status: ('A' for Active; 'I' for Inactive)
REMARK    1  A    between atoms: C_2  and  C_5 
REMARK    2  A    between atoms: C_5  and  O_6 
ROOT
HETATM    1  F   LIG     1      12.566  32.107  16.953  1.00  0.00    -0.168 F 
HETATM    2  C   LIG     1      13.883  31.682  16.985  1.00  0.00     0.412 C 
HETATM    3  F   LIG     1      14.142  31.094  18.210  1.00  0.00    -0.168 F 
HETATM    4  F   LIG     1      14.071  30.737  15.993  1.00  0.00    -0.168 F 
ENDROOT
BRANCH   2   5
HETATM    5  C   LIG     1      14.832  32.864  16.752  1.00  0.00     0.221 C 
HETATM    6  C   LIG     1      15.816  32.577  15.613  1.00  0.00     0.048 C 
BRANCH   5   7
HETATM    7  O   LIG     1      15.539  33.129  17.936  1.00  0.00    -0.387 OA
HETATM    8  H   LIG     1      15.287  32.421  18.586  1.00  0.00     0.210 HD
ENDBRANCH   5   7
ENDBRANCH   2   5
TORSDOF 2
ENDMDL
MODEL 16
REMARK VINA RESULT:      -3.7      3.186      3.717
REMARK  2 active torsions:
REMARK  status: ('A' for Active; 'I' for Inactive)
REMARK    1  A    between atoms: C_2  and  C_5 
REMARK    2  A    between atoms: C_5  and  O_6 
ROOT
HETATM    1  F   LIG     1      17.030  34.816  23.691  1.00  0.00    -0.168 F 
HETATM    2  C   LIG     1      16.804  35.484  22.500  1.00  0.00     0.412 C 
HETATM    3  F   LIG     1      17.722  35.055  21.557  1.00  0.00    -0.168 F 
HETATM    4  F   LIG     1      15.533  35.177  22.050  1.00  0.00    -0.168 F 
ENDROOT
BRANCH   2   5
HETATM    5  C   LIG     1      16.923  36.999  22.705  1.00  0.00     0.221 C 
HETATM    6  C   LIG     1      15.544  37.658  22.822  1.00  0.00     0.048 C 
BRANCH   5   7
HETATM    7  O   LIG     1      17.627  37.557  21.627  1.00  0.00    -0.387 OA
HETATM    8  H   LIG     1      16.964  38.048  21.074  1.00  0.00     0.210 HD
ENDBRANCH   5   7
ENDBRANCH   2   5
TORSDOF 2
ENDMDL
MODEL 17
REMARK VINA RESULT:      -3.6     11.703     12.329
REMARK  2 active torsions:
REMARK  status: ('A' for Active; 'I' for Inactive)
REMARK    1  A    between atoms: C_2  and  C_5 
REMARK    2  A    between atoms: C_5  and  O_6 
ROOT
HETATM    1  F   LIG     1      14.041  30.712  15.004  1.00  0.00    -0.168 F 
HETATM    2  C   LIG     1      15.250  30.720  14.331  1.00  0.00     0.412 C 
HETATM    3  F   LIG     1      15.914  29.531  14.573  1.00  0.00    -0.168 F 
HETATM    4  F   LIG     1      15.006  30.820  12.973  1.00  0.00    -0.168 F 
ENDROOT
BRANCH   2   5
HETATM    5  C   LIG     1      16.107  31.908  14.785  1.00  0.00     0.221 C 
HETATM    6  C   LIG     1      15.538  32.557  16.052  1.00  0.00     0.048 C 
BRANCH   5   7
HETATM    7  O   LIG     1      16.169  32.856  13.752  1.00  0.00    -0.387 OA
HETATM    8  H   LIG     1      15.322  32.777  13.238  1.00  0.00     0.210 HD
ENDBRANCH   5   7
ENDBRANCH   2   5
TORSDOF 2
ENDMDL
MODEL 18
REMARK VINA RESULT:      -3.5     13.582     14.181
REMARK  2 active torsions:
REMARK  status: ('A' for Active; 'I' for Inactive)
REMARK    1  A    between atoms: C_2  and  C_5 
REMARK    2  A    between atoms: C_5  and  O_6 
ROOT
HETATM    1  F   LIG     1      15.711  28.220  12.304  1.00  0.00    -0.168 F 
HETATM    2  C   LIG     1      15.278  28.161  13.617  1.00  0.00     0.412 C 
HETATM    3  F   LIG     1      13.999  27.635  13.651  1.00  0.00    -0.168 F 
HETATM    4  F   LIG     1      16.119  27.323  14.327  1.00  0.00    -0.168 F 
ENDROOT
BRANCH   2   5
HETATM    5  C   LIG     1      15.294  29.558  14.249  1.00  0.00     0.221 C 
HETATM    6  C   LIG     1      13.892  29.986  14.698  1.00  0.00     0.048 C 
BRANCH   5   7
HETATM    7  O   LIG     1      15.797  30.481  13.318  1.00  0.00    -0.387 OA
HETATM    8  H   LIG     1      16.481  30.003  12.780  1.00  0.00     0.210 HD
ENDBRANCH   5   7
ENDBRANCH   2   5
TORSDOF 2
ENDMDL
MODEL 19
REMARK VINA RESULT:      -3.5     11.327     11.949
REMARK  2 active torsions:
REMARK  status: ('A' for Active; 'I' for Inactive)
REMARK    1  A    between atoms: C_2  and  C_5 
REMARK    2  A    between atoms: C_5  and  O_6 
ROOT
HETATM    1  F   LIG     1      16.576  33.830  15.361  1.00  0.00    -0.168 F 
HETATM    2  C   LIG     1      16.438  32.465  15.173  1.00  0.00     0.412 C 
HETATM    3  F   LIG     1      17.636  31.841  15.473  1.00  0.00    -0.168 F 
HETATM    4  F   LIG     1      15.466  31.991  16.036  1.00  0.00    -0.168 F 
ENDROOT
BRANCH   2   5
HETATM    5  C   LIG     1      16.030  32.163  13.726  1.00  0.00     0.221 C 
HETATM    6  C   LIG     1      15.422  30.762  13.596  1.00  0.00     0.048 C 
BRANCH   5   7
HETATM    7  O   LIG     1      17.157  32.271  12.896  1.00  0.00    -0.387 OA
HETATM    8  H   LIG     1      17.369  31.354  12.579  1.00  0.00     0.210 HD
ENDBRANCH   5   7
ENDBRANCH   2   5
TORSDOF 2
ENDMDL
MODEL 20
REMARK VINA RESULT:      -3.4     11.449     12.060
REMARK  2 active torsions:
REMARK  status: ('A' for Active; 'I' for Inactive)
REMARK    1  A    between atoms: C_2  and  C_5 
REMARK    2  A    between atoms: C_5  and  O_6 
ROOT
HETATM    1  F   LIG     1      18.437  32.721  15.156  1.00  0.00    -0.168 F 
HETATM    2  C   LIG     1      17.506  33.537  14.536  1.00  0.00     0.412 C 
HETATM    3  F   LIG     1      16.264  32.930  14.584  1.00  0.00    -0.168 F 
HETATM    4  F   LIG     1      17.437  34.737  15.222  1.00  0.00    -0.168 F 
ENDROOT
BRANCH   2   5
HETATM    5  C   LIG     1      17.912  33.802  13.081  1.00  0.00     0.221 C 
HETATM    6  C   LIG     1      19.436  33.831  12.921  1.00  0.00     0.048 C 
BRANCH   5   7
HETATM    7  O   LIG     1      17.367  35.027  12.665  1.00  0.00    -0.387 OA
HETATM    8  H   LIG     1      16.532  35.162  13.186  1.00  0.00     0.210 HD
ENDBRANCH   5   7
ENDBRANCH   2   5
TORSDOF 2
ENDMDL
