REMARK  2 active torsions:
REMARK  status: ('A' for Active; 'I' for Inactive)
REMARK    1  A    between atoms: C_2  and  C_5 
REMARK    2  A    between atoms: C_5  and  O_6 
ROOT
HETATM    1  F   LIG     1       1.535  -0.287  -1.385  1.00  0.00    -0.168 F 
HETATM    2  C   LIG     1       1.353   0.194  -0.100  1.00  0.00     0.412 C 
HETATM    3  F   LIG     1       1.907  -0.697   0.802  1.00  0.00    -0.168 F 
HETATM    4  F   LIG     1       2.007   1.407   0.020  1.00  0.00    -0.168 F 
ENDROOT
BRANCH   2   5
HETATM    5  C   LIG     1      -0.140   0.386   0.193  1.00  0.00     0.221 C 
HETATM    6  C   LIG     1      -0.907  -0.937   0.085  1.00  0.00     0.048 C 
BRANCH   5   7
HETATM    7  O   LIG     1      -0.672   1.319  -0.711  1.00  0.00    -0.387 OA
HETATM    8  H   LIG     1      -1.527   1.641  -0.322  1.00  0.00     0.210 HD
ENDBRANCH   5   7
ENDBRANCH   2   5
TORSDOF 2
