MODEL 1
REMARK VINA RESULT:      -3.7      0.000      0.000
REMARK  22 active torsions:
REMARK  status: ('A' for Active; 'I' for Inactive)
REMARK    1  A    between atoms: N_1  and  C_2 
REMARK    2  A    between atoms: C_2  and  C_3 
REMARK    3  A    between atoms: C_3  and  C_4 
REMARK    4  A    between atoms: C_4  and  C_5 
REMARK    5  A    between atoms: C_4  and  O_40 
REMARK       I    between atoms: C_5  and  N_6 
REMARK    6  A    between atoms: N_6  and  C_7 
REMARK    7  A    between atoms: C_9  and  N_38 
REMARK    8  A    between atoms: C_10  and  O_26 
REMARK    9  A    between atoms: C_11  and  O_25 
REMARK   10  A    between atoms: C_12  and  O_13 
REMARK   11  A    between atoms: O_13  and  C_14 
REMARK   12  A    between atoms: C_16  and  C_23 
REMARK   13  A    between atoms: C_17  and  O_22 
REMARK   14  A    between atoms: C_18  and  N_21 
REMARK   15  A    between atoms: C_19  and  O_20 
REMARK   16  A    between atoms: C_23  and  O_24 
REMARK   17  A    between atoms: O_26  and  C_27 
REMARK   18  A    between atoms: C_29  and  C_36 
REMARK   19  A    between atoms: C_30  and  O_35 
REMARK   20  A    between atoms: C_31  and  O_34 
REMARK   21  A    between atoms: C_32  and  O_33 
REMARK   22  A    between atoms: C_36  and  N_37 
ROOT
HETATM    1  C   LIG     1      15.490  34.722  21.914  1.00  0.00     0.118 C 
HETATM    2  C   LIG     1      14.500  33.593  21.575  1.00  0.00     0.066 C 
HETATM    3  C   LIG     1      15.173  32.497  20.711  1.00  0.00     0.251 C 
HETATM    4  C   LIG     1      15.567  33.041  19.315  1.00  0.00     0.189 C 
HETATM    5  C   LIG     1      15.987  34.549  19.373  1.00  0.00     0.180 C 
HETATM    6  C   LIG     1      16.512  34.999  20.759  1.00  0.00     0.178 C 
ENDROOT
BRANCH   4   7
HETATM    7  O   LIG     1      14.455  32.911  18.439  1.00  0.00    -0.348 OA
BRANCH   7   8
HETATM    8  C   LIG     1      14.723  32.129  17.280  1.00  0.00     0.292 C 
HETATM    9  C   LIG     1      13.450  31.283  17.003  1.00  0.00     0.204 C 
HETATM   10  C   LIG     1      13.175  31.153  15.492  1.00  0.00     0.183 C 
HETATM   11  C   LIG     1      14.490  30.960  14.736  1.00  0.00     0.180 C 
HETATM   12  C   LIG     1      15.420  32.185  15.012  1.00  0.00     0.183 C 
HETATM   13  O   LIG     1      15.044  32.952  16.160  1.00  0.00    -0.349 OA
BRANCH   9  14
HETATM   14  O   LIG     1      13.595  30.003  17.581  1.00  0.00    -0.388 OA
HETATM   15  H   LIG     1      14.334  29.536  17.088  1.00  0.00     0.210 HD
ENDBRANCH   9  14
BRANCH  10  16
HETATM   16  O   LIG     1      12.286  30.098  15.236  1.00  0.00    -0.390 OA
HETATM   17  H   LIG     1      12.798  29.253  15.418  1.00  0.00     0.210 HD
ENDBRANCH  10  16
BRANCH  11  18
HETATM   18  O   LIG     1      15.107  29.766  15.133  1.00  0.00    -0.390 OA
HETATM   19  H   LIG     1      14.883  29.629  16.104  1.00  0.00     0.210 HD
ENDBRANCH  11  18
BRANCH  12  20
HETATM   20  C   LIG     1      16.912  31.844  15.042  1.00  0.00     0.301 C 
BRANCH  20  21
HETATM   21  N   LIG     1      17.686  33.068  15.312  1.00  0.00     0.080 N 
HETATM   22  H   LIG     1      17.051  33.809  15.677  1.00  0.00     0.312 HD
HETATM   23  H   LIG     1      18.104  33.420  14.415  1.00  0.00     0.312 HD
ENDBRANCH  20  21
ENDBRANCH  12  20
ENDBRANCH   7   8
ENDBRANCH   4   7
BRANCH   3  24
HETATM   24  N   LIG     1      14.322  31.313  20.598  1.00  0.00     0.085 N 
HETATM   25  H   LIG     1      13.945  31.085  21.547  1.00  0.00     0.313 HD
HETATM   26  H   LIG     1      13.498  31.542  19.990  1.00  0.00     0.313 HD
ENDBRANCH   3  24
BRANCH   5  27
HETATM   27  O   LIG     1      14.914  35.385  19.012  1.00  0.00    -0.390 OA
HETATM   28  H   LIG     1      14.086  34.855  19.117  1.00  0.00     0.210 HD
ENDBRANCH   5  27
BRANCH   6  29
HETATM   29  O   LIG     1      16.782  36.392  20.650  1.00  0.00    -0.349 OA
BRANCH  29  30
HETATM   30  C   LIG     1      18.122  36.696  20.276  1.00  0.00     0.291 C 
HETATM   31  C   LIG     1      18.169  37.443  18.901  1.00  0.00     0.208 C 
HETATM   32  C   LIG     1      19.106  38.673  18.946  1.00  0.00     0.282 C 
HETATM   33  C   LIG     1      18.694  39.603  20.122  1.00  0.00     0.184 C 
HETATM   34  C   LIG     1      18.183  38.783  21.347  1.00  0.00     0.179 C 
HETATM   35  O   LIG     1      18.708  37.460  21.325  1.00  0.00    -0.349 OA
BRANCH  31  36
HETATM   36  O   LIG     1      18.579  36.582  17.867  1.00  0.00    -0.388 OA
HETATM   37  H   LIG     1      18.096  36.857  17.037  1.00  0.00     0.210 HD
ENDBRANCH  31  36
BRANCH  32  38
HETATM   38  N   LIG     1      20.533  38.306  19.045  1.00  0.00     0.088 N 
HETATM   39  H   LIG     1      20.957  38.208  18.089  1.00  0.00     0.313 HD
HETATM   40  H   LIG     1      20.651  37.395  19.554  1.00  0.00     0.313 HD
ENDBRANCH  32  38
BRANCH  33  41
HETATM   41  O   LIG     1      19.758  40.471  20.461  1.00  0.00    -0.391 OA
HETATM   42  H   LIG     1      20.495  40.264  19.824  1.00  0.00     0.210 HD
ENDBRANCH  33  41
BRANCH  34  43
HETATM   43  C   LIG     1      18.506  39.434  22.729  1.00  0.00     0.198 C 
BRANCH  43  44
HETATM   44  O   LIG     1      19.859  39.283  23.095  1.00  0.00    -0.398 OA
HETATM   45  H   LIG     1      19.907  38.821  23.966  1.00  0.00     0.209 HD
ENDBRANCH  43  44
ENDBRANCH  34  43
ENDBRANCH  29  30
ENDBRANCH   6  29
BRANCH   1  46
HETATM   46  N   LIG     1      16.225  34.354  23.138  1.00  0.00    -0.352 N 
HETATM   47  C   LIG     1      16.783  35.345  24.017  1.00  0.00     0.246 C 
HETATM   48  O   LIG     1      17.189  36.447  23.547  1.00  0.00    -0.271 OA
HETATM   49  H   LIG     1      16.135  33.384  23.502  1.00  0.00     0.163 HD
BRANCH  47  50
HETATM   50  C   LIG     1      16.839  35.115  25.507  1.00  0.00     0.211 C 
BRANCH  50  51
HETATM   51  C   LIG     1      18.295  35.001  26.002  1.00  0.00     0.071 C 
BRANCH  51  52
HETATM   52  C   LIG     1      18.722  36.223  26.813  1.00  0.00     0.269 C 
BRANCH  52  53
HETATM   53  N   LIG     1      18.687  37.413  25.958  1.00  0.00     0.078 N 
HETATM   54  H   LIG     1      17.688  37.720  25.881  1.00  0.00     0.312 HD
HETATM   55  H   LIG     1      19.198  38.190  26.465  1.00  0.00     0.312 HD
ENDBRANCH  52  53
ENDBRANCH  51  52
ENDBRANCH  50  51
BRANCH  50  56
HETATM   56  O   LIG     1      16.049  33.995  25.817  1.00  0.00    -0.386 OA
HETATM   57  H   LIG     1      16.584  33.166  25.685  1.00  0.00     0.210 HD
ENDBRANCH  50  56
ENDBRANCH  47  50
ENDBRANCH   1  46
TORSDOF 22
ENDMDL
MODEL 2
REMARK VINA RESULT:      -3.6      1.330      2.027
REMARK  22 active torsions:
REMARK  status: ('A' for Active; 'I' for Inactive)
REMARK    1  A    between atoms: N_1  and  C_2 
REMARK    2  A    between atoms: C_2  and  C_3 
REMARK    3  A    between atoms: C_3  and  C_4 
REMARK    4  A    between atoms: C_4  and  C_5 
REMARK    5  A    between atoms: C_4  and  O_40 
REMARK       I    between atoms: C_5  and  N_6 
REMARK    6  A    between atoms: N_6  and  C_7 
REMARK    7  A    between atoms: C_9  and  N_38 
REMARK    8  A    between atoms: C_10  and  O_26 
REMARK    9  A    between atoms: C_11  and  O_25 
REMARK   10  A    between atoms: C_12  and  O_13 
REMARK   11  A    between atoms: O_13  and  C_14 
REMARK   12  A    between atoms: C_16  and  C_23 
REMARK   13  A    between atoms: C_17  and  O_22 
REMARK   14  A    between atoms: C_18  and  N_21 
REMARK   15  A    between atoms: C_19  and  O_20 
REMARK   16  A    between atoms: C_23  and  O_24 
REMARK   17  A    between atoms: O_26  and  C_27 
REMARK   18  A    between atoms: C_29  and  C_36 
REMARK   19  A    between atoms: C_30  and  O_35 
REMARK   20  A    between atoms: C_31  and  O_34 
REMARK   21  A    between atoms: C_32  and  O_33 
REMARK   22  A    between atoms: C_36  and  N_37 
ROOT
HETATM    1  C   LIG     1      15.440  34.714  21.704  1.00  0.00     0.118 C 
HETATM    2  C   LIG     1      14.452  33.574  21.393  1.00  0.00     0.066 C 
HETATM    3  C   LIG     1      15.110  32.487  20.508  1.00  0.00     0.251 C 
HETATM    4  C   LIG     1      15.456  33.037  19.102  1.00  0.00     0.189 C 
HETATM    5  C   LIG     1      15.862  34.550  19.150  1.00  0.00     0.180 C 
HETATM    6  C   LIG     1      16.423  35.003  20.519  1.00  0.00     0.178 C 
ENDROOT
BRANCH   4   7
HETATM    7  O   LIG     1      14.319  32.897  18.259  1.00  0.00    -0.348 OA
BRANCH   7   8
HETATM    8  C   LIG     1      14.629  32.454  16.942  1.00  0.00     0.292 C 
HETATM    9  C   LIG     1      16.003  33.076  16.569  1.00  0.00     0.204 C 
HETATM   10  C   LIG     1      16.864  32.094  15.751  1.00  0.00     0.183 C 
HETATM   11  C   LIG     1      15.988  31.337  14.752  1.00  0.00     0.180 C 
HETATM   12  C   LIG     1      14.879  30.562  15.533  1.00  0.00     0.183 C 
HETATM   13  O   LIG     1      14.674  31.031  16.869  1.00  0.00    -0.349 OA
BRANCH   9  14
HETATM   14  O   LIG     1      15.803  34.268  15.840  1.00  0.00    -0.388 OA
HETATM   15  H   LIG     1      16.040  35.031  16.446  1.00  0.00     0.210 HD
ENDBRANCH   9  14
BRANCH  10  16
HETATM   16  O   LIG     1      17.905  32.769  15.097  1.00  0.00    -0.390 OA
HETATM   17  H   LIG     1      17.693  32.727  14.116  1.00  0.00     0.210 HD
ENDBRANCH  10  16
BRANCH  11  18
HETATM   18  O   LIG     1      15.419  32.229  13.832  1.00  0.00    -0.390 OA
HETATM   19  H   LIG     1      16.047  33.011  13.755  1.00  0.00     0.210 HD
ENDBRANCH  11  18
BRANCH  12  20
HETATM   20  C   LIG     1      13.551  30.441  14.782  1.00  0.00     0.301 C 
BRANCH  20  21
HETATM   21  N   LIG     1      13.535  29.180  14.019  1.00  0.00     0.080 N 
HETATM   22  H   LIG     1      14.246  28.527  14.410  1.00  0.00     0.312 HD
HETATM   23  H   LIG     1      13.796  29.375  13.020  1.00  0.00     0.312 HD
ENDBRANCH  20  21
ENDBRANCH  12  20
ENDBRANCH   7   8
ENDBRANCH   4   7
BRANCH   3  24
HETATM   24  N   LIG     1      14.269  31.294  20.418  1.00  0.00     0.085 N 
HETATM   25  H   LIG     1      14.818  30.475  20.770  1.00  0.00     0.313 HD
HETATM   26  H   LIG     1      13.447  31.408  21.061  1.00  0.00     0.313 HD
ENDBRANCH   3  24
BRANCH   5  27
HETATM   27  O   LIG     1      14.769  35.374  18.822  1.00  0.00    -0.390 OA
HETATM   28  H   LIG     1      14.158  34.836  18.263  1.00  0.00     0.210 HD
ENDBRANCH   5  27
BRANCH   6  29
HETATM   29  O   LIG     1      16.675  36.399  20.405  1.00  0.00    -0.349 OA
BRANCH  29  30
HETATM   30  C   LIG     1      18.043  36.725  20.175  1.00  0.00     0.291 C 
HETATM   31  C   LIG     1      18.218  37.508  18.832  1.00  0.00     0.208 C 
HETATM   32  C   LIG     1      19.131  38.745  19.002  1.00  0.00     0.282 C 
HETATM   33  C   LIG     1      18.593  39.640  20.154  1.00  0.00     0.184 C 
HETATM   34  C   LIG     1      17.971  38.784  21.300  1.00  0.00     0.179 C 
HETATM   35  O   LIG     1      18.511  37.467  21.298  1.00  0.00    -0.349 OA
BRANCH  31  36
HETATM   36  O   LIG     1      18.741  36.679  17.822  1.00  0.00    -0.388 OA
HETATM   37  H   LIG     1      17.970  36.321  17.298  1.00  0.00     0.210 HD
ENDBRANCH  31  36
BRANCH  32  38
HETATM   38  N   LIG     1      20.546  38.389  19.235  1.00  0.00     0.088 N 
HETATM   39  H   LIG     1      21.180  38.984  18.645  1.00  0.00     0.313 HD
HETATM   40  H   LIG     1      20.722  37.382  18.997  1.00  0.00     0.313 HD
ENDBRANCH  32  38
BRANCH  33  41
HETATM   41  O   LIG     1      19.607  40.509  20.621  1.00  0.00    -0.391 OA
HETATM   42  H   LIG     1      19.250  41.432  20.509  1.00  0.00     0.210 HD
ENDBRANCH  33  41
BRANCH  34  43
HETATM   43  C   LIG     1      18.146  39.401  22.723  1.00  0.00     0.198 C 
BRANCH  43  44
HETATM   44  O   LIG     1      17.002  39.234  23.530  1.00  0.00    -0.398 OA
HETATM   45  H   LIG     1      16.260  38.901  22.971  1.00  0.00     0.209 HD
ENDBRANCH  43  44
ENDBRANCH  34  43
ENDBRANCH  29  30
ENDBRANCH   6  29
BRANCH   1  46
HETATM   46  N   LIG     1      16.216  34.351  22.905  1.00  0.00    -0.352 N 
HETATM   47  C   LIG     1      16.722  35.346  23.812  1.00  0.00     0.246 C 
HETATM   48  O   LIG     1      17.049  36.487  23.376  1.00  0.00    -0.271 OA
HETATM   49  H   LIG     1      16.193  33.366  23.235  1.00  0.00     0.163 HD
BRANCH  47  50
HETATM   50  C   LIG     1      16.816  35.068  25.291  1.00  0.00     0.211 C 
BRANCH  50  51
HETATM   51  C   LIG     1      18.281  35.074  25.772  1.00  0.00     0.071 C 
BRANCH  51  52
HETATM   52  C   LIG     1      18.594  36.292  26.640  1.00  0.00     0.269 C 
BRANCH  52  53
HETATM   53  N   LIG     1      18.557  37.503  25.816  1.00  0.00     0.078 N 
HETATM   54  H   LIG     1      19.242  37.374  25.033  1.00  0.00     0.312 HD
HETATM   55  H   LIG     1      17.600  37.558  25.366  1.00  0.00     0.312 HD
ENDBRANCH  52  53
ENDBRANCH  51  52
ENDBRANCH  50  51
BRANCH  50  56
HETATM   56  O   LIG     1      16.138  33.867  25.566  1.00  0.00    -0.386 OA
HETATM   57  H   LIG     1      15.592  33.977  26.390  1.00  0.00     0.210 HD
ENDBRANCH  50  56
ENDBRANCH  47  50
ENDBRANCH   1  46
TORSDOF 22
ENDMDL
MODEL 3
REMARK VINA RESULT:      -2.8      3.886      6.965
REMARK  22 active torsions:
REMARK  status: ('A' for Active; 'I' for Inactive)
REMARK    1  A    between atoms: N_1  and  C_2 
REMARK    2  A    between atoms: C_2  and  C_3 
REMARK    3  A    between atoms: C_3  and  C_4 
REMARK    4  A    between atoms: C_4  and  C_5 
REMARK    5  A    between atoms: C_4  and  O_40 
REMARK       I    between atoms: C_5  and  N_6 
REMARK    6  A    between atoms: N_6  and  C_7 
REMARK    7  A    between atoms: C_9  and  N_38 
REMARK    8  A    between atoms: C_10  and  O_26 
REMARK    9  A    between atoms: C_11  and  O_25 
REMARK   10  A    between atoms: C_12  and  O_13 
REMARK   11  A    between atoms: O_13  and  C_14 
REMARK   12  A    between atoms: C_16  and  C_23 
REMARK   13  A    between atoms: C_17  and  O_22 
REMARK   14  A    between atoms: C_18  and  N_21 
REMARK   15  A    between atoms: C_19  and  O_20 
REMARK   16  A    between atoms: C_23  and  O_24 
REMARK   17  A    between atoms: O_26  and  C_27 
REMARK   18  A    between atoms: C_29  and  C_36 
REMARK   19  A    between atoms: C_30  and  O_35 
REMARK   20  A    between atoms: C_31  and  O_34 
REMARK   21  A    between atoms: C_32  and  O_33 
REMARK   22  A    between atoms: C_36  and  N_37 
ROOT
HETATM    1  C   LIG     1      15.793  33.732  16.155  1.00  0.00     0.118 C 
HETATM    2  C   LIG     1      14.435  33.008  16.208  1.00  0.00     0.066 C 
HETATM    3  C   LIG     1      14.617  31.470  16.176  1.00  0.00     0.251 C 
HETATM    4  C   LIG     1      15.206  30.999  14.822  1.00  0.00     0.189 C 
HETATM    5  C   LIG     1      16.197  32.053  14.219  1.00  0.00     0.180 C 
HETATM    6  C   LIG     1      16.848  32.976  15.277  1.00  0.00     0.178 C 
ENDROOT
BRANCH   4   7
HETATM    7  O   LIG     1      14.142  30.795  13.902  1.00  0.00    -0.348 OA
BRANCH   7   8
HETATM    8  C   LIG     1      14.032  29.454  13.437  1.00  0.00     0.292 C 
HETATM    9  C   LIG     1      15.465  28.855  13.442  1.00  0.00     0.204 C 
HETATM   10  C   LIG     1      15.459  27.378  13.880  1.00  0.00     0.183 C 
HETATM   11  C   LIG     1      14.253  26.658  13.274  1.00  0.00     0.180 C 
HETATM   12  C   LIG     1      12.945  27.368  13.751  1.00  0.00     0.183 C 
HETATM   13  O   LIG     1      13.155  28.689  14.261  1.00  0.00    -0.349 OA
BRANCH   9  14
HETATM   14  O   LIG     1      16.035  28.978  12.156  1.00  0.00    -0.388 OA
HETATM   15  H   LIG     1      17.031  28.916  12.265  1.00  0.00     0.210 HD
ENDBRANCH   9  14
BRANCH  10  16
HETATM   16  O   LIG     1      16.658  26.746  13.516  1.00  0.00    -0.390 OA
HETATM   17  H   LIG     1      17.252  27.467  13.145  1.00  0.00     0.210 HD
ENDBRANCH  10  16
BRANCH  11  18
HETATM   18  O   LIG     1      14.339  26.659  11.876  1.00  0.00    -0.390 OA
HETATM   19  H   LIG     1      14.675  25.751  11.602  1.00  0.00     0.210 HD
ENDBRANCH  11  18
BRANCH  12  20
HETATM   20  C   LIG     1      11.811  27.346  12.725  1.00  0.00     0.301 C 
BRANCH  20  21
HETATM   21  N   LIG     1      10.888  28.463  12.995  1.00  0.00     0.080 N 
HETATM   22  H   LIG     1      11.166  28.940  13.878  1.00  0.00     0.312 HD
HETATM   23  H   LIG     1       9.916  28.085  13.130  1.00  0.00     0.312 HD
ENDBRANCH  20  21
ENDBRANCH  12  20
ENDBRANCH   7   8
ENDBRANCH   4   7
BRANCH   3  24
HETATM   24  N   LIG     1      13.363  30.780  16.476  1.00  0.00     0.085 N 
HETATM   25  H   LIG     1      12.741  31.438  17.002  1.00  0.00     0.313 HD
HETATM   26  H   LIG     1      12.874  30.555  15.575  1.00  0.00     0.313 HD
ENDBRANCH   3  24
BRANCH   5  27
HETATM   27  O   LIG     1      15.553  32.859  13.262  1.00  0.00    -0.390 OA
HETATM   28  H   LIG     1      15.103  33.589  13.753  1.00  0.00     0.210 HD
ENDBRANCH   5  27
BRANCH   6  29
HETATM   29  O   LIG     1      17.656  33.901  14.557  1.00  0.00    -0.349 OA
BRANCH  29  30
HETATM   30  C   LIG     1      17.809  33.584  13.176  1.00  0.00     0.291 C 
HETATM   31  C   LIG     1      17.657  34.861  12.284  1.00  0.00     0.208 C 
HETATM   32  C   LIG     1      18.774  34.955  11.218  1.00  0.00     0.282 C 
HETATM   33  C   LIG     1      20.164  34.864  11.907  1.00  0.00     0.184 C 
HETATM   34  C   LIG     1      20.134  33.901  13.134  1.00  0.00     0.179 C 
HETATM   35  O   LIG     1      19.076  32.956  13.008  1.00  0.00    -0.349 OA
BRANCH  31  36
HETATM   36  O   LIG     1      16.402  34.893  11.648  1.00  0.00    -0.388 OA
HETATM   37  H   LIG     1      15.726  34.550  12.298  1.00  0.00     0.210 HD
ENDBRANCH  31  36
BRANCH  32  38
HETATM   38  N   LIG     1      18.648  33.931  10.160  1.00  0.00     0.088 N 
HETATM   39  H   LIG     1      18.858  34.346   9.218  1.00  0.00     0.313 HD
HETATM   40  H   LIG     1      17.676  33.535  10.138  1.00  0.00     0.313 HD
ENDBRANCH  32  38
BRANCH  33  41
HETATM   41  O   LIG     1      21.160  34.507  10.967  1.00  0.00    -0.391 OA
HETATM   42  H   LIG     1      20.762  33.785  10.408  1.00  0.00     0.210 HD
ENDBRANCH  33  41
BRANCH  34  43
HETATM   43  C   LIG     1      21.472  33.134  13.375  1.00  0.00     0.198 C 
BRANCH  43  44
HETATM   44  O   LIG     1      22.585  33.997  13.443  1.00  0.00    -0.398 OA
HETATM   45  H   LIG     1      22.395  34.716  14.092  1.00  0.00     0.209 HD
ENDBRANCH  43  44
ENDBRANCH  34  43
ENDBRANCH  29  30
ENDBRANCH   6  29
BRANCH   1  46
HETATM   46  N   LIG     1      16.309  33.867  17.530  1.00  0.00    -0.352 N 
HETATM   47  C   LIG     1      15.523  34.449  18.583  1.00  0.00     0.246 C 
HETATM   48  O   LIG     1      14.680  35.352  18.315  1.00  0.00    -0.271 OA
HETATM   49  H   LIG     1      17.151  33.321  17.803  1.00  0.00     0.163 HD
BRANCH  47  50
HETATM   50  C   LIG     1      15.647  33.956  20.004  1.00  0.00     0.211 C 
BRANCH  50  51
HETATM   51  C   LIG     1      16.562  34.875  20.839  1.00  0.00     0.071 C 
BRANCH  51  52
HETATM   52  C   LIG     1      15.764  35.894  21.650  1.00  0.00     0.269 C 
BRANCH  52  53
HETATM   53  N   LIG     1      14.335  35.737  21.363  1.00  0.00     0.078 N 
HETATM   54  H   LIG     1      14.242  35.025  20.599  1.00  0.00     0.312 HD
HETATM   55  H   LIG     1      13.879  35.313  22.220  1.00  0.00     0.312 HD
ENDBRANCH  52  53
ENDBRANCH  51  52
ENDBRANCH  50  51
BRANCH  50  56
HETATM   56  O   LIG     1      16.067  32.615  19.978  1.00  0.00    -0.386 OA
HETATM   57  H   LIG     1      16.239  32.305  20.908  1.00  0.00     0.210 HD
ENDBRANCH  50  56
ENDBRANCH  47  50
ENDBRANCH   1  46
TORSDOF 22
ENDMDL
MODEL 4
REMARK VINA RESULT:      -2.4      1.496      2.184
REMARK  22 active torsions:
REMARK  status: ('A' for Active; 'I' for Inactive)
REMARK    1  A    between atoms: N_1  and  C_2 
REMARK    2  A    between atoms: C_2  and  C_3 
REMARK    3  A    between atoms: C_3  and  C_4 
REMARK    4  A    between atoms: C_4  and  C_5 
REMARK    5  A    between atoms: C_4  and  O_40 
REMARK       I    between atoms: C_5  and  N_6 
REMARK    6  A    between atoms: N_6  and  C_7 
REMARK    7  A    between atoms: C_9  and  N_38 
REMARK    8  A    between atoms: C_10  and  O_26 
REMARK    9  A    between atoms: C_11  and  O_25 
REMARK   10  A    between atoms: C_12  and  O_13 
REMARK   11  A    between atoms: O_13  and  C_14 
REMARK   12  A    between atoms: C_16  and  C_23 
REMARK   13  A    between atoms: C_17  and  O_22 
REMARK   14  A    between atoms: C_18  and  N_21 
REMARK   15  A    between atoms: C_19  and  O_20 
REMARK   16  A    between atoms: C_23  and  O_24 
REMARK   17  A    between atoms: O_26  and  C_27 
REMARK   18  A    between atoms: C_29  and  C_36 
REMARK   19  A    between atoms: C_30  and  O_35 
REMARK   20  A    between atoms: C_31  and  O_34 
REMARK   21  A    between atoms: C_32  and  O_33 
REMARK   22  A    between atoms: C_36  and  N_37 
ROOT
HETATM    1  C   LIG     1      15.836  35.850  20.818  1.00  0.00     0.118 C 
HETATM    2  C   LIG     1      14.635  34.910  21.032  1.00  0.00     0.066 C 
HETATM    3  C   LIG     1      15.052  33.425  20.888  1.00  0.00     0.251 C 
HETATM    4  C   LIG     1      15.491  33.100  19.439  1.00  0.00     0.189 C 
HETATM    5  C   LIG     1      16.196  34.320  18.754  1.00  0.00     0.180 C 
HETATM    6  C   LIG     1      16.848  35.306  19.753  1.00  0.00     0.178 C 
ENDROOT
BRANCH   4   7
HETATM    7  O   LIG     1      14.344  32.750  18.676  1.00  0.00    -0.348 OA
BRANCH   7   8
HETATM    8  C   LIG     1      14.642  32.049  17.474  1.00  0.00     0.292 C 
HETATM    9  C   LIG     1      13.393  31.192  17.129  1.00  0.00     0.204 C 
HETATM   10  C   LIG     1      13.137  31.152  15.609  1.00  0.00     0.183 C 
HETATM   11  C   LIG     1      14.465  31.038  14.859  1.00  0.00     0.180 C 
HETATM   12  C   LIG     1      15.362  32.264  15.223  1.00  0.00     0.183 C 
HETATM   13  O   LIG     1      14.955  32.948  16.412  1.00  0.00    -0.349 OA
BRANCH   9  14
HETATM   14  O   LIG     1      13.564  29.882  17.626  1.00  0.00    -0.388 OA
HETATM   15  H   LIG     1      13.901  29.962  18.568  1.00  0.00     0.210 HD
ENDBRANCH   9  14
BRANCH  10  16
HETATM   16  O   LIG     1      12.278  30.095  15.277  1.00  0.00    -0.390 OA
HETATM   17  H   LIG     1      11.767  29.877  16.115  1.00  0.00     0.210 HD
ENDBRANCH  10  16
BRANCH  11  18
HETATM   18  O   LIG     1      15.106  29.836  15.186  1.00  0.00    -0.390 OA
HETATM   19  H   LIG     1      15.674  30.018  15.996  1.00  0.00     0.210 HD
ENDBRANCH  11  18
BRANCH  12  20
HETATM   20  C   LIG     1      16.861  31.957  15.248  1.00  0.00     0.301 C 
BRANCH  20  21
HETATM   21  N   LIG     1      17.618  33.222  15.234  1.00  0.00     0.080 N 
HETATM   22  H   LIG     1      17.605  33.625  14.274  1.00  0.00     0.312 HD
HETATM   23  H   LIG     1      18.619  33.030  15.485  1.00  0.00     0.312 HD
ENDBRANCH  20  21
ENDBRANCH  12  20
ENDBRANCH   7   8
ENDBRANCH   4   7
BRANCH   3  24
HETATM   24  N   LIG     1      13.986  32.529  21.333  1.00  0.00     0.085 N 
HETATM   25  H   LIG     1      13.071  32.912  20.999  1.00  0.00     0.313 HD
HETATM   26  H   LIG     1      14.111  31.595  20.871  1.00  0.00     0.313 HD
ENDBRANCH   3  24
BRANCH   5  27
HETATM   27  O   LIG     1      15.291  35.036  17.948  1.00  0.00    -0.390 OA
HETATM   28  H   LIG     1      15.351  34.658  17.037  1.00  0.00     0.210 HD
ENDBRANCH   5  27
BRANCH   6  29
HETATM   29  O   LIG     1      17.377  36.373  18.972  1.00  0.00    -0.349 OA
BRANCH  29  30
HETATM   30  C   LIG     1      17.730  37.527  19.730  1.00  0.00     0.291 C 
HETATM   31  C   LIG     1      19.067  37.301  20.511  1.00  0.00     0.208 C 
HETATM   32  C   LIG     1      20.031  38.502  20.362  1.00  0.00     0.282 C 
HETATM   33  C   LIG     1      20.259  38.807  18.856  1.00  0.00     0.184 C 
HETATM   34  C   LIG     1      18.970  38.545  18.017  1.00  0.00     0.179 C 
HETATM   35  O   LIG     1      17.808  38.632  18.835  1.00  0.00    -0.349 OA
BRANCH  31  36
HETATM   36  O   LIG     1      18.826  37.064  21.877  1.00  0.00    -0.388 OA
HETATM   37  H   LIG     1      19.084  36.119  22.069  1.00  0.00     0.210 HD
ENDBRANCH  31  36
BRANCH  32  38
HETATM   38  N   LIG     1      19.561  39.709  21.074  1.00  0.00     0.088 N 
HETATM   39  H   LIG     1      19.282  39.472  22.059  1.00  0.00     0.313 HD
HETATM   40  H   LIG     1      18.732  40.130  20.588  1.00  0.00     0.313 HD
ENDBRANCH  32  38
BRANCH  33  41
HETATM   41  O   LIG     1      20.753  40.122  18.687  1.00  0.00    -0.391 OA
HETATM   42  H   LIG     1      21.630  40.147  19.157  1.00  0.00     0.210 HD
ENDBRANCH  33  41
BRANCH  34  43
HETATM   43  C   LIG     1      18.801  39.499  16.793  1.00  0.00     0.198 C 
BRANCH  43  44
HETATM   44  O   LIG     1      18.268  40.754  17.155  1.00  0.00    -0.398 OA
HETATM   45  H   LIG     1      18.929  41.457  16.944  1.00  0.00     0.209 HD
ENDBRANCH  43  44
ENDBRANCH  34  43
ENDBRANCH  29  30
ENDBRANCH   6  29
BRANCH   1  46
HETATM   46  N   LIG     1      16.532  36.028  22.106  1.00  0.00    -0.352 N 
HETATM   47  C   LIG     1      16.268  37.151  22.963  1.00  0.00     0.246 C 
HETATM   48  O   LIG     1      15.934  38.263  22.461  1.00  0.00    -0.271 OA
HETATM   49  H   LIG     1      17.037  35.217  22.517  1.00  0.00     0.163 HD
BRANCH  47  50
HETATM   50  C   LIG     1      16.328  37.011  24.464  1.00  0.00     0.211 C 
BRANCH  50  51
HETATM   51  C   LIG     1      17.171  38.135  25.100  1.00  0.00     0.071 C 
BRANCH  51  52
HETATM   52  C   LIG     1      18.624  37.713  25.310  1.00  0.00     0.269 C 
BRANCH  52  53
HETATM   53  N   LIG     1      18.734  36.946  26.554  1.00  0.00     0.078 N 
HETATM   54  H   LIG     1      19.659  36.452  26.541  1.00  0.00     0.312 HD
HETATM   55  H   LIG     1      18.778  37.636  27.357  1.00  0.00     0.312 HD
ENDBRANCH  52  53
ENDBRANCH  51  52
ENDBRANCH  50  51
BRANCH  50  56
HETATM   56  O   LIG     1      16.787  35.719  24.775  1.00  0.00    -0.386 OA
HETATM   57  H   LIG     1      17.253  35.334  23.984  1.00  0.00     0.210 HD
ENDBRANCH  50  56
ENDBRANCH  47  50
ENDBRANCH   1  46
TORSDOF 22
ENDMDL
MODEL 5
REMARK VINA RESULT:      -1.9      2.515      8.854
REMARK  22 active torsions:
REMARK  status: ('A' for Active; 'I' for Inactive)
REMARK    1  A    between atoms: N_1  and  C_2 
REMARK    2  A    between atoms: C_2  and  C_3 
REMARK    3  A    between atoms: C_3  and  C_4 
REMARK    4  A    between atoms: C_4  and  C_5 
REMARK    5  A    between atoms: C_4  and  O_40 
REMARK       I    between atoms: C_5  and  N_6 
REMARK    6  A    between atoms: N_6  and  C_7 
REMARK    7  A    between atoms: C_9  and  N_38 
REMARK    8  A    between atoms: C_10  and  O_26 
REMARK    9  A    between atoms: C_11  and  O_25 
REMARK   10  A    between atoms: C_12  and  O_13 
REMARK   11  A    between atoms: O_13  and  C_14 
REMARK   12  A    between atoms: C_16  and  C_23 
REMARK   13  A    between atoms: C_17  and  O_22 
REMARK   14  A    between atoms: C_18  and  N_21 
REMARK   15  A    between atoms: C_19  and  O_20 
REMARK   16  A    between atoms: C_23  and  O_24 
REMARK   17  A    between atoms: O_26  and  C_27 
REMARK   18  A    between atoms: C_29  and  C_36 
REMARK   19  A    between atoms: C_30  and  O_35 
REMARK   20  A    between atoms: C_31  and  O_34 
REMARK   21  A    between atoms: C_32  and  O_33 
REMARK   22  A    between atoms: C_36  and  N_37 
ROOT
HETATM    1  C   LIG     1      15.469  33.312  18.230  1.00  0.00     0.118 C 
HETATM    2  C   LIG     1      15.140  33.080  19.716  1.00  0.00     0.066 C 
HETATM    3  C   LIG     1      14.378  34.288  20.317  1.00  0.00     0.251 C 
HETATM    4  C   LIG     1      15.268  35.555  20.354  1.00  0.00     0.189 C 
HETATM    5  C   LIG     1      16.260  35.608  19.142  1.00  0.00     0.180 C 
HETATM    6  C   LIG     1      15.777  34.813  17.904  1.00  0.00     0.178 C 
ENDROOT
BRANCH   4   7
HETATM    7  O   LIG     1      16.021  35.555  21.559  1.00  0.00    -0.348 OA
BRANCH   7   8
HETATM    8  C   LIG     1      16.502  36.840  21.939  1.00  0.00     0.292 C 
HETATM    9  C   LIG     1      16.157  37.025  23.442  1.00  0.00     0.204 C 
HETATM   10  C   LIG     1      17.279  37.768  24.193  1.00  0.00     0.183 C 
HETATM   11  C   LIG     1      17.839  38.890  23.318  1.00  0.00     0.180 C 
HETATM   12  C   LIG     1      18.391  38.275  21.992  1.00  0.00     0.183 C 
HETATM   13  O   LIG     1      17.906  36.957  21.718  1.00  0.00    -0.349 OA
BRANCH   9  14
HETATM   14  O   LIG     1      14.940  37.731  23.567  1.00  0.00    -0.388 OA
HETATM   15  H   LIG     1      14.496  37.721  22.668  1.00  0.00     0.210 HD
ENDBRANCH   9  14
BRANCH  10  16
HETATM   16  O   LIG     1      16.813  38.268  25.417  1.00  0.00    -0.390 OA
HETATM   17  H   LIG     1      15.820  38.386  25.311  1.00  0.00     0.210 HD
ENDBRANCH  10  16
BRANCH  11  18
HETATM   18  O   LIG     1      16.843  39.839  23.050  1.00  0.00    -0.390 OA
HETATM   19  H   LIG     1      16.263  39.895  23.870  1.00  0.00     0.210 HD
ENDBRANCH  11  18
BRANCH  12  20
HETATM   20  C   LIG     1      18.242  39.183  20.770  1.00  0.00     0.301 C 
BRANCH  20  21
HETATM   21  N   LIG     1      19.578  39.563  20.279  1.00  0.00     0.080 N 
HETATM   22  H   LIG     1      19.589  39.533  19.238  1.00  0.00     0.312 HD
HETATM   23  H   LIG     1      20.286  38.868  20.625  1.00  0.00     0.312 HD
ENDBRANCH  20  21
ENDBRANCH  12  20
ENDBRANCH   7   8
ENDBRANCH   4   7
BRANCH   3  24
HETATM   24  N   LIG     1      13.847  33.974  21.642  1.00  0.00     0.085 N 
HETATM   25  H   LIG     1      13.723  34.870  22.169  1.00  0.00     0.313 HD
HETATM   26  H   LIG     1      12.893  33.550  21.536  1.00  0.00     0.313 HD
ENDBRANCH   3  24
BRANCH   5  27
HETATM   27  O   LIG     1      17.531  35.128  19.511  1.00  0.00    -0.390 OA
HETATM   28  H   LIG     1      17.398  34.514  20.273  1.00  0.00     0.210 HD
ENDBRANCH   5  27
BRANCH   6  29
HETATM   29  O   LIG     1      16.816  34.914  16.936  1.00  0.00    -0.349 OA
BRANCH  29  30
HETATM   30  C   LIG     1      16.355  34.908  15.588  1.00  0.00     0.291 C 
HETATM   31  C   LIG     1      17.332  35.696  14.654  1.00  0.00     0.208 C 
HETATM   32  C   LIG     1      17.642  34.915  13.355  1.00  0.00     0.282 C 
HETATM   33  C   LIG     1      18.163  33.495  13.709  1.00  0.00     0.184 C 
HETATM   34  C   LIG     1      17.464  32.929  14.984  1.00  0.00     0.179 C 
HETATM   35  O   LIG     1      16.199  33.551  15.184  1.00  0.00    -0.349 OA
BRANCH  31  36
HETATM   36  O   LIG     1      16.813  36.962  14.324  1.00  0.00    -0.388 OA
HETATM   37  H   LIG     1      15.912  37.037  14.748  1.00  0.00     0.210 HD
ENDBRANCH  31  36
BRANCH  32  38
HETATM   38  N   LIG     1      16.483  34.834  12.442  1.00  0.00     0.088 N 
HETATM   39  H   LIG     1      15.640  35.291  12.872  1.00  0.00     0.313 HD
HETATM   40  H   LIG     1      16.244  33.833  12.229  1.00  0.00     0.313 HD
ENDBRANCH  32  38
BRANCH  33  41
HETATM   41  O   LIG     1      18.035  32.630  12.597  1.00  0.00    -0.391 OA
HETATM   42  H   LIG     1      18.961  32.350  12.359  1.00  0.00     0.210 HD
ENDBRANCH  33  41
BRANCH  34  43
HETATM   43  C   LIG     1      17.273  31.380  14.972  1.00  0.00     0.198 C 
BRANCH  43  44
HETATM   44  O   LIG     1      16.315  30.961  14.025  1.00  0.00    -0.398 OA
HETATM   45  H   LIG     1      16.482  30.015  13.797  1.00  0.00     0.209 HD
ENDBRANCH  43  44
ENDBRANCH  34  43
ENDBRANCH  29  30
ENDBRANCH   6  29
BRANCH   1  46
HETATM   46  N   LIG     1      14.323  32.862  17.417  1.00  0.00    -0.352 N 
HETATM   47  C   LIG     1      14.243  31.528  16.888  1.00  0.00     0.246 C 
HETATM   48  O   LIG     1      15.302  30.908  16.579  1.00  0.00    -0.271 OA
HETATM   49  H   LIG     1      13.452  33.429  17.426  1.00  0.00     0.163 HD
BRANCH  47  50
HETATM   50  C   LIG     1      12.914  30.828  16.750  1.00  0.00     0.211 C 
BRANCH  50  51
HETATM   51  C   LIG     1      12.601  30.505  15.275  1.00  0.00     0.071 C 
BRANCH  51  52
HETATM   52  C   LIG     1      13.353  29.268  14.787  1.00  0.00     0.269 C 
BRANCH  52  53
HETATM   53  N   LIG     1      12.519  28.534  13.832  1.00  0.00     0.078 N 
HETATM   54  H   LIG     1      12.309  29.179  13.032  1.00  0.00     0.312 HD
HETATM   55  H   LIG     1      13.103  27.746  13.431  1.00  0.00     0.312 HD
ENDBRANCH  52  53
ENDBRANCH  51  52
ENDBRANCH  50  51
BRANCH  50  56
HETATM   56  O   LIG     1      11.928  31.610  17.377  1.00  0.00    -0.386 OA
HETATM   57  H   LIG     1      11.400  32.092  16.685  1.00  0.00     0.210 HD
ENDBRANCH  50  56
ENDBRANCH  47  50
ENDBRANCH   1  46
TORSDOF 22
ENDMDL
MODEL 6
REMARK VINA RESULT:      -1.9      1.934      2.816
REMARK  22 active torsions:
REMARK  status: ('A' for Active; 'I' for Inactive)
REMARK    1  A    between atoms: N_1  and  C_2 
REMARK    2  A    between atoms: C_2  and  C_3 
REMARK    3  A    between atoms: C_3  and  C_4 
REMARK    4  A    between atoms: C_4  and  C_5 
REMARK    5  A    between atoms: C_4  and  O_40 
REMARK       I    between atoms: C_5  and  N_6 
REMARK    6  A    between atoms: N_6  and  C_7 
REMARK    7  A    between atoms: C_9  and  N_38 
REMARK    8  A    between atoms: C_10  and  O_26 
REMARK    9  A    between atoms: C_11  and  O_25 
REMARK   10  A    between atoms: C_12  and  O_13 
REMARK   11  A    between atoms: O_13  and  C_14 
REMARK   12  A    between atoms: C_16  and  C_23 
REMARK   13  A    between atoms: C_17  and  O_22 
REMARK   14  A    between atoms: C_18  and  N_21 
REMARK   15  A    between atoms: C_19  and  O_20 
REMARK   16  A    between atoms: C_23  and  O_24 
REMARK   17  A    between atoms: O_26  and  C_27 
REMARK   18  A    between atoms: C_29  and  C_36 
REMARK   19  A    between atoms: C_30  and  O_35 
REMARK   20  A    between atoms: C_31  and  O_34 
REMARK   21  A    between atoms: C_32  and  O_33 
REMARK   22  A    between atoms: C_36  and  N_37 
ROOT
HETATM    1  C   LIG     1      15.774  35.407  20.658  1.00  0.00     0.118 C 
HETATM    2  C   LIG     1      14.677  34.331  20.750  1.00  0.00     0.066 C 
HETATM    3  C   LIG     1      15.169  32.978  20.178  1.00  0.00     0.251 C 
HETATM    4  C   LIG     1      15.433  33.072  18.655  1.00  0.00     0.189 C 
HETATM    5  C   LIG     1      15.959  34.489  18.239  1.00  0.00     0.180 C 
HETATM    6  C   LIG     1      16.671  35.251  19.383  1.00  0.00     0.178 C 
ENDROOT
BRANCH   4   7
HETATM    7  O   LIG     1      14.221  32.814  17.959  1.00  0.00    -0.348 OA
BRANCH   7   8
HETATM    8  C   LIG     1      14.404  32.177  16.699  1.00  0.00     0.292 C 
HETATM    9  C   LIG     1      15.836  32.537  16.215  1.00  0.00     0.204 C 
HETATM   10  C   LIG     1      16.507  31.347  15.502  1.00  0.00     0.183 C 
HETATM   11  C   LIG     1      15.486  30.618  14.628  1.00  0.00     0.180 C 
HETATM   12  C   LIG     1      14.312  30.116  15.528  1.00  0.00     0.183 C 
HETATM   13  O   LIG     1      14.238  30.765  16.801  1.00  0.00    -0.349 OA
BRANCH   9  14
HETATM   14  O   LIG     1      15.779  33.651  15.350  1.00  0.00    -0.388 OA
HETATM   15  H   LIG     1      15.288  34.380  15.834  1.00  0.00     0.210 HD
ENDBRANCH   9  14
BRANCH  10  16
HETATM   16  O   LIG     1      17.606  31.777  14.743  1.00  0.00    -0.390 OA
HETATM   17  H   LIG     1      17.853  32.684  15.098  1.00  0.00     0.210 HD
ENDBRANCH  10  16
BRANCH  11  18
HETATM   18  O   LIG     1      15.013  31.471  13.621  1.00  0.00    -0.390 OA
HETATM   19  H   LIG     1      15.463  32.360  13.754  1.00  0.00     0.210 HD
ENDBRANCH  11  18
BRANCH  12  20
HETATM   20  C   LIG     1      12.949  30.108  14.833  1.00  0.00     0.301 C 
BRANCH  20  21
HETATM   21  N   LIG     1      12.836  28.901  13.994  1.00  0.00     0.080 N 
HETATM   22  H   LIG     1      11.973  28.959  13.414  1.00  0.00     0.312 HD
HETATM   23  H   LIG     1      12.747  28.056  14.613  1.00  0.00     0.312 HD
ENDBRANCH  20  21
ENDBRANCH  12  20
ENDBRANCH   7   8
ENDBRANCH   4   7
BRANCH   3  24
HETATM   24  N   LIG     1      14.232  31.898  20.488  1.00  0.00     0.085 N 
HETATM   25  H   LIG     1      14.783  31.054  20.769  1.00  0.00     0.313 HD
HETATM   26  H   LIG     1      13.655  32.176  21.320  1.00  0.00     0.313 HD
ENDBRANCH   3  24
BRANCH   5  27
HETATM   27  O   LIG     1      14.911  35.292  17.754  1.00  0.00    -0.390 OA
HETATM   28  H   LIG     1      15.283  36.195  17.605  1.00  0.00     0.210 HD
ENDBRANCH   5  27
BRANCH   6  29
HETATM   29  O   LIG     1      17.020  36.526  18.856  1.00  0.00    -0.349 OA
BRANCH  29  30
HETATM   30  C   LIG     1      17.850  37.302  19.716  1.00  0.00     0.291 C 
HETATM   31  C   LIG     1      19.318  36.762  19.723  1.00  0.00     0.208 C 
HETATM   32  C   LIG     1      20.352  37.902  19.572  1.00  0.00     0.282 C 
HETATM   33  C   LIG     1      20.026  38.740  18.304  1.00  0.00     0.184 C 
HETATM   34  C   LIG     1      18.487  38.849  18.070  1.00  0.00     0.179 C 
HETATM   35  O   LIG     1      17.776  38.659  19.288  1.00  0.00    -0.349 OA
BRANCH  31  36
HETATM   36  O   LIG     1      19.590  36.039  20.900  1.00  0.00    -0.388 OA
HETATM   37  H   LIG     1      18.854  35.376  21.022  1.00  0.00     0.210 HD
ENDBRANCH  31  36
BRANCH  32  38
HETATM   38  N   LIG     1      20.431  38.770  20.765  1.00  0.00     0.088 N 
HETATM   39  H   LIG     1      19.496  39.203  20.971  1.00  0.00     0.313 HD
HETATM   40  H   LIG     1      21.129  39.541  20.621  1.00  0.00     0.313 HD
ENDBRANCH  32  38
BRANCH  33  41
HETATM   41  O   LIG     1      20.650  40.008  18.376  1.00  0.00    -0.391 OA
HETATM   42  H   LIG     1      21.606  39.856  18.143  1.00  0.00     0.210 HD
ENDBRANCH  33  41
BRANCH  34  43
HETATM   43  C   LIG     1      18.035  40.196  17.423  1.00  0.00     0.198 C 
BRANCH  43  44
HETATM   44  O   LIG     1      18.894  40.614  16.386  1.00  0.00    -0.398 OA
HETATM   45  H   LIG     1      18.745  40.042  15.595  1.00  0.00     0.209 HD
ENDBRANCH  43  44
ENDBRANCH  34  43
ENDBRANCH  29  30
ENDBRANCH   6  29
BRANCH   1  46
HETATM   46  N   LIG     1      16.620  35.323  21.863  1.00  0.00    -0.352 N 
HETATM   47  C   LIG     1      16.657  36.375  22.842  1.00  0.00     0.246 C 
HETATM   48  O   LIG     1      16.481  37.575  22.483  1.00  0.00    -0.271 OA
HETATM   49  H   LIG     1      17.009  34.398  22.137  1.00  0.00     0.163 HD
BRANCH  47  50
HETATM   50  C   LIG     1      16.845  36.065  24.306  1.00  0.00     0.211 C 
BRANCH  50  51
HETATM   51  C   LIG     1      17.598  37.201  25.028  1.00  0.00     0.071 C 
BRANCH  51  52
HETATM   52  C   LIG     1      18.559  36.667  26.089  1.00  0.00     0.269 C 
BRANCH  52  53
HETATM   53  N   LIG     1      17.794  36.032  27.165  1.00  0.00     0.078 N 
HETATM   54  H   LIG     1      17.481  35.092  26.820  1.00  0.00     0.312 HD
HETATM   55  H   LIG     1      18.459  35.845  27.968  1.00  0.00     0.312 HD
ENDBRANCH  52  53
ENDBRANCH  51  52
ENDBRANCH  50  51
BRANCH  50  56
HETATM   56  O   LIG     1      17.472  34.812  24.422  1.00  0.00    -0.386 OA
HETATM   57  H   LIG     1      17.586  34.587  25.384  1.00  0.00     0.210 HD
ENDBRANCH  50  56
ENDBRANCH  47  50
ENDBRANCH   1  46
TORSDOF 22
ENDMDL
MODEL 7
REMARK VINA RESULT:      -1.5      2.673      8.878
REMARK  22 active torsions:
REMARK  status: ('A' for Active; 'I' for Inactive)
REMARK    1  A    between atoms: N_1  and  C_2 
REMARK    2  A    between atoms: C_2  and  C_3 
REMARK    3  A    between atoms: C_3  and  C_4 
REMARK    4  A    between atoms: C_4  and  C_5 
REMARK    5  A    between atoms: C_4  and  O_40 
REMARK       I    between atoms: C_5  and  N_6 
REMARK    6  A    between atoms: N_6  and  C_7 
REMARK    7  A    between atoms: C_9  and  N_38 
REMARK    8  A    between atoms: C_10  and  O_26 
REMARK    9  A    between atoms: C_11  and  O_25 
REMARK   10  A    between atoms: C_12  and  O_13 
REMARK   11  A    between atoms: O_13  and  C_14 
REMARK   12  A    between atoms: C_16  and  C_23 
REMARK   13  A    between atoms: C_17  and  O_22 
REMARK   14  A    between atoms: C_18  and  N_21 
REMARK   15  A    between atoms: C_19  and  O_20 
REMARK   16  A    between atoms: C_23  and  O_24 
REMARK   17  A    between atoms: O_26  and  C_27 
REMARK   18  A    between atoms: C_29  and  C_36 
REMARK   19  A    between atoms: C_30  and  O_35 
REMARK   20  A    between atoms: C_31  and  O_34 
REMARK   21  A    between atoms: C_32  and  O_33 
REMARK   22  A    between atoms: C_36  and  N_37 
ROOT
HETATM    1  C   LIG     1      15.352  32.747  17.164  1.00  0.00     0.118 C 
HETATM    2  C   LIG     1      15.807  32.463  18.608  1.00  0.00     0.066 C 
HETATM    3  C   LIG     1      15.138  33.437  19.609  1.00  0.00     0.251 C 
HETATM    4  C   LIG     1      15.609  34.895  19.379  1.00  0.00     0.189 C 
HETATM    5  C   LIG     1      15.891  35.186  17.865  1.00  0.00     0.180 C 
HETATM    6  C   LIG     1      15.103  34.270  16.896  1.00  0.00     0.178 C 
ENDROOT
BRANCH   4   7
HETATM    7  O   LIG     1      16.805  35.115  20.115  1.00  0.00    -0.348 OA
BRANCH   7   8
HETATM    8  C   LIG     1      16.904  36.418  20.678  1.00  0.00     0.292 C 
HETATM    9  C   LIG     1      16.213  36.363  22.068  1.00  0.00     0.204 C 
HETATM   10  C   LIG     1      16.960  37.221  23.106  1.00  0.00     0.183 C 
HETATM   11  C   LIG     1      17.439  38.522  22.461  1.00  0.00     0.180 C 
HETATM   12  C   LIG     1      18.383  38.179  21.264  1.00  0.00     0.183 C 
HETATM   13  O   LIG     1      18.264  36.830  20.799  1.00  0.00    -0.349 OA
BRANCH   9  14
HETATM   14  O   LIG     1      14.875  36.799  21.951  1.00  0.00    -0.388 OA
HETATM   15  H   LIG     1      14.370  36.084  21.459  1.00  0.00     0.210 HD
ENDBRANCH   9  14
BRANCH  10  16
HETATM   16  O   LIG     1      16.145  37.481  24.218  1.00  0.00    -0.390 OA
HETATM   17  H   LIG     1      15.226  37.156  23.972  1.00  0.00     0.210 HD
ENDBRANCH  10  16
BRANCH  11  18
HETATM   18  O   LIG     1      16.344  39.283  22.029  1.00  0.00    -0.390 OA
HETATM   19  H   LIG     1      16.172  39.031  21.071  1.00  0.00     0.210 HD
ENDBRANCH  11  18
BRANCH  12  20
HETATM   20  C   LIG     1      18.308  39.171  20.102  1.00  0.00     0.301 C 
BRANCH  20  21
HETATM   21  N   LIG     1      19.663  39.401  19.569  1.00  0.00     0.080 N 
HETATM   22  H   LIG     1      20.177  38.497  19.521  1.00  0.00     0.312 HD
HETATM   23  H   LIG     1      20.190  40.033  20.222  1.00  0.00     0.312 HD
ENDBRANCH  20  21
ENDBRANCH  12  20
ENDBRANCH   7   8
ENDBRANCH   4   7
BRANCH   3  24
HETATM   24  N   LIG     1      15.366  33.018  20.991  1.00  0.00     0.085 N 
HETATM   25  H   LIG     1      16.308  32.567  21.048  1.00  0.00     0.313 HD
HETATM   26  H   LIG     1      15.399  33.870  21.604  1.00  0.00     0.313 HD
ENDBRANCH   3  24
BRANCH   5  27
HETATM   27  O   LIG     1      17.262  35.064  17.576  1.00  0.00    -0.390 OA
HETATM   28  H   LIG     1      17.388  35.353  16.639  1.00  0.00     0.210 HD
ENDBRANCH   5  27
BRANCH   6  29
HETATM   29  O   LIG     1      15.525  34.624  15.583  1.00  0.00    -0.349 OA
BRANCH  29  30
HETATM   30  C   LIG     1      16.911  34.403  15.339  1.00  0.00     0.291 C 
HETATM   31  C   LIG     1      17.187  32.908  14.966  1.00  0.00     0.208 C 
HETATM   32  C   LIG     1      18.114  32.784  13.734  1.00  0.00     0.282 C 
HETATM   33  C   LIG     1      17.524  33.599  12.550  1.00  0.00     0.184 C 
HETATM   34  C   LIG     1      16.812  34.896  13.046  1.00  0.00     0.179 C 
HETATM   35  O   LIG     1      17.323  35.300  14.313  1.00  0.00    -0.349 OA
BRANCH  31  36
HETATM   36  O   LIG     1      17.754  32.209  16.048  1.00  0.00    -0.388 OA
HETATM   37  H   LIG     1      17.280  32.502  16.877  1.00  0.00     0.210 HD
ENDBRANCH  31  36
BRANCH  32  38
HETATM   38  N   LIG     1      19.503  33.201  14.015  1.00  0.00     0.088 N 
HETATM   39  H   LIG     1      19.936  33.640  13.164  1.00  0.00     0.313 HD
HETATM   40  H   LIG     1      20.091  32.377  14.297  1.00  0.00     0.313 HD
ENDBRANCH  32  38
BRANCH  33  41
HETATM   41  O   LIG     1      18.525  33.869  11.588  1.00  0.00    -0.391 OA
HETATM   42  H   LIG     1      18.082  33.783  10.700  1.00  0.00     0.210 HD
ENDBRANCH  33  41
BRANCH  34  43
HETATM   43  C   LIG     1      16.912  36.097  12.054  1.00  0.00     0.198 C 
BRANCH  43  44
HETATM   44  O   LIG     1      16.221  35.860  10.847  1.00  0.00    -0.398 OA
HETATM   45  H   LIG     1      15.250  35.886  11.023  1.00  0.00     0.209 HD
ENDBRANCH  43  44
ENDBRANCH  34  43
ENDBRANCH  29  30
ENDBRANCH   6  29
BRANCH   1  46
HETATM   46  N   LIG     1      14.109  31.997  16.905  1.00  0.00    -0.352 N 
HETATM   47  C   LIG     1      13.973  31.117  15.776  1.00  0.00     0.246 C 
HETATM   48  O   LIG     1      14.594  31.368  14.704  1.00  0.00    -0.271 OA
HETATM   49  H   LIG     1      13.409  31.910  17.669  1.00  0.00     0.163 HD
BRANCH  47  50
HETATM   50  C   LIG     1      13.143  29.861  15.869  1.00  0.00     0.211 C 
BRANCH  50  51
HETATM   51  C   LIG     1      12.693  29.381  14.474  1.00  0.00     0.071 C 
BRANCH  51  52
HETATM   52  C   LIG     1      13.402  28.096  14.054  1.00  0.00     0.269 C 
BRANCH  52  53
HETATM   53  N   LIG     1      14.728  28.421  13.521  1.00  0.00     0.078 N 
HETATM   54  H   LIG     1      14.760  28.090  12.527  1.00  0.00     0.312 HD
HETATM   55  H   LIG     1      14.812  29.476  13.486  1.00  0.00     0.312 HD
ENDBRANCH  52  53
ENDBRANCH  51  52
ENDBRANCH  50  51
BRANCH  50  56
HETATM   56  O   LIG     1      12.077  30.093  16.756  1.00  0.00    -0.386 OA
HETATM   57  H   LIG     1      11.991  31.071  16.921  1.00  0.00     0.210 HD
ENDBRANCH  50  56
ENDBRANCH  47  50
ENDBRANCH   1  46
TORSDOF 22
ENDMDL
MODEL 8
REMARK VINA RESULT:      -1.4      2.029      5.190
REMARK  22 active torsions:
REMARK  status: ('A' for Active; 'I' for Inactive)
REMARK    1  A    between atoms: N_1  and  C_2 
REMARK    2  A    between atoms: C_2  and  C_3 
REMARK    3  A    between atoms: C_3  and  C_4 
REMARK    4  A    between atoms: C_4  and  C_5 
REMARK    5  A    between atoms: C_4  and  O_40 
REMARK       I    between atoms: C_5  and  N_6 
REMARK    6  A    between atoms: N_6  and  C_7 
REMARK    7  A    between atoms: C_9  and  N_38 
REMARK    8  A    between atoms: C_10  and  O_26 
REMARK    9  A    between atoms: C_11  and  O_25 
REMARK   10  A    between atoms: C_12  and  O_13 
REMARK   11  A    between atoms: O_13  and  C_14 
REMARK   12  A    between atoms: C_16  and  C_23 
REMARK   13  A    between atoms: C_17  and  O_22 
REMARK   14  A    between atoms: C_18  and  N_21 
REMARK   15  A    between atoms: C_19  and  O_20 
REMARK   16  A    between atoms: C_23  and  O_24 
REMARK   17  A    between atoms: O_26  and  C_27 
REMARK   18  A    between atoms: C_29  and  C_36 
REMARK   19  A    between atoms: C_30  and  O_35 
REMARK   20  A    between atoms: C_31  and  O_34 
REMARK   21  A    between atoms: C_32  and  O_33 
REMARK   22  A    between atoms: C_36  and  N_37 
ROOT
HETATM    1  C   LIG     1      17.503  36.684  20.336  1.00  0.00     0.118 C 
HETATM    2  C   LIG     1      17.936  35.760  19.182  1.00  0.00     0.066 C 
HETATM    3  C   LIG     1      16.737  35.407  18.267  1.00  0.00     0.251 C 
HETATM    4  C   LIG     1      15.686  34.551  19.018  1.00  0.00     0.189 C 
HETATM    5  C   LIG     1      15.600  34.932  20.536  1.00  0.00     0.180 C 
HETATM    6  C   LIG     1      16.052  36.381  20.843  1.00  0.00     0.178 C 
ENDROOT
BRANCH   4   7
HETATM    7  O   LIG     1      16.046  33.180  18.912  1.00  0.00    -0.348 OA
BRANCH   7   8
HETATM    8  C   LIG     1      15.518  32.533  17.760  1.00  0.00     0.292 C 
HETATM    9  C   LIG     1      14.074  32.084  18.117  1.00  0.00     0.204 C 
HETATM   10  C   LIG     1      13.119  32.248  16.919  1.00  0.00     0.183 C 
HETATM   11  C   LIG     1      13.827  31.841  15.626  1.00  0.00     0.180 C 
HETATM   12  C   LIG     1      15.092  32.738  15.435  1.00  0.00     0.183 C 
HETATM   13  O   LIG     1      15.519  33.401  16.629  1.00  0.00    -0.349 OA
BRANCH   9  14
HETATM   14  O   LIG     1      14.086  30.739  18.546  1.00  0.00    -0.388 OA
HETATM   15  H   LIG     1      13.160  30.518  18.862  1.00  0.00     0.210 HD
ENDBRANCH   9  14
BRANCH  10  16
HETATM   16  O   LIG     1      11.948  31.500  17.109  1.00  0.00    -0.390 OA
HETATM   17  H   LIG     1      12.019  31.099  18.028  1.00  0.00     0.210 HD
ENDBRANCH  10  16
BRANCH  11  18
HETATM   18  O   LIG     1      14.179  30.485  15.671  1.00  0.00    -0.390 OA
HETATM   19  H   LIG     1      13.358  29.961  15.420  1.00  0.00     0.210 HD
ENDBRANCH  11  18
BRANCH  12  20
HETATM   20  C   LIG     1      16.263  32.032  14.747  1.00  0.00     0.301 C 
BRANCH  20  21
HETATM   21  N   LIG     1      15.988  31.925  13.304  1.00  0.00     0.080 N 
HETATM   22  H   LIG     1      16.360  31.022  12.943  1.00  0.00     0.312 HD
HETATM   23  H   LIG     1      16.486  32.700  12.797  1.00  0.00     0.312 HD
ENDBRANCH  20  21
ENDBRANCH  12  20
ENDBRANCH   7   8
ENDBRANCH   4   7
BRANCH   3  24
HETATM   24  N   LIG     1      17.182  34.744  17.042  1.00  0.00     0.085 N 
HETATM   25  H   LIG     1      17.114  35.428  16.252  1.00  0.00     0.313 HD
HETATM   26  H   LIG     1      18.196  34.493  17.139  1.00  0.00     0.313 HD
ENDBRANCH   3  24
BRANCH   5  27
HETATM   27  O   LIG     1      16.367  34.051  21.320  1.00  0.00    -0.390 OA
HETATM   28  H   LIG     1      16.071  33.134  21.098  1.00  0.00     0.210 HD
ENDBRANCH   5  27
BRANCH   6  29
HETATM   29  O   LIG     1      15.972  36.531  22.256  1.00  0.00    -0.349 OA
BRANCH  29  30
HETATM   30  C   LIG     1      17.181  36.981  22.861  1.00  0.00     0.291 C 
HETATM   31  C   LIG     1      16.961  38.325  23.632  1.00  0.00     0.208 C 
HETATM   32  C   LIG     1      17.604  38.293  25.039  1.00  0.00     0.282 C 
HETATM   33  C   LIG     1      17.083  37.057  25.824  1.00  0.00     0.184 C 
HETATM   34  C   LIG     1      16.856  35.834  24.883  1.00  0.00     0.179 C 
HETATM   35  O   LIG     1      17.658  35.943  23.711  1.00  0.00    -0.349 OA
BRANCH  31  36
HETATM   36  O   LIG     1      17.476  39.417  22.909  1.00  0.00    -0.388 OA
HETATM   37  H   LIG     1      17.435  39.183  21.940  1.00  0.00     0.210 HD
ENDBRANCH  31  36
BRANCH  32  38
HETATM   38  N   LIG     1      19.080  38.302  24.998  1.00  0.00     0.088 N 
HETATM   39  H   LIG     1      19.423  38.697  24.086  1.00  0.00     0.313 HD
HETATM   40  H   LIG     1      19.463  37.331  25.102  1.00  0.00     0.313 HD
ENDBRANCH  32  38
BRANCH  33  41
HETATM   41  O   LIG     1      17.951  36.754  26.900  1.00  0.00    -0.391 OA
HETATM   42  H   LIG     1      17.747  37.420  27.612  1.00  0.00     0.210 HD
ENDBRANCH  33  41
BRANCH  34  43
HETATM   43  C   LIG     1      17.128  34.452  25.556  1.00  0.00     0.198 C 
BRANCH  43  44
HETATM   44  O   LIG     1      16.438  34.301  26.777  1.00  0.00    -0.398 OA
HETATM   45  H   LIG     1      15.484  34.510  26.636  1.00  0.00     0.209 HD
ENDBRANCH  43  44
ENDBRANCH  34  43
ENDBRANCH  29  30
ENDBRANCH   6  29
BRANCH   1  46
HETATM   46  N   LIG     1      17.575  38.082  19.874  1.00  0.00    -0.352 N 
HETATM   47  C   LIG     1      18.805  38.828  19.896  1.00  0.00     0.246 C 
HETATM   48  O   LIG     1      19.669  38.590  20.787  1.00  0.00    -0.271 OA
HETATM   49  H   LIG     1      16.794  38.460  19.301  1.00  0.00     0.163 HD
BRANCH  47  50
HETATM   50  C   LIG     1      19.107  39.855  18.833  1.00  0.00     0.211 C 
BRANCH  50  51
HETATM   51  C   LIG     1      18.047  39.832  17.713  1.00  0.00     0.071 C 
BRANCH  51  52
HETATM   52  C   LIG     1      18.667  40.053  16.334  1.00  0.00     0.269 C 
BRANCH  52  53
HETATM   53  N   LIG     1      19.020  41.467  16.179  1.00  0.00     0.078 N 
HETATM   54  H   LIG     1      19.868  41.648  16.769  1.00  0.00     0.312 HD
HETATM   55  H   LIG     1      19.321  41.616  15.174  1.00  0.00     0.312 HD
ENDBRANCH  52  53
ENDBRANCH  51  52
ENDBRANCH  50  51
BRANCH  50  56
HETATM   56  O   LIG     1      20.419  39.649  18.372  1.00  0.00    -0.386 OA
HETATM   57  H   LIG     1      20.463  39.858  17.400  1.00  0.00     0.210 HD
ENDBRANCH  50  56
ENDBRANCH  47  50
ENDBRANCH   1  46
TORSDOF 22
ENDMDL
MODEL 9
REMARK VINA RESULT:      -1.0      1.999      5.351
REMARK  22 active torsions:
REMARK  status: ('A' for Active; 'I' for Inactive)
REMARK    1  A    between atoms: N_1  and  C_2 
REMARK    2  A    between atoms: C_2  and  C_3 
REMARK    3  A    between atoms: C_3  and  C_4 
REMARK    4  A    between atoms: C_4  and  C_5 
REMARK    5  A    between atoms: C_4  and  O_40 
REMARK       I    between atoms: C_5  and  N_6 
REMARK    6  A    between atoms: N_6  and  C_7 
REMARK    7  A    between atoms: C_9  and  N_38 
REMARK    8  A    between atoms: C_10  and  O_26 
REMARK    9  A    between atoms: C_11  and  O_25 
REMARK   10  A    between atoms: C_12  and  O_13 
REMARK   11  A    between atoms: O_13  and  C_14 
REMARK   12  A    between atoms: C_16  and  C_23 
REMARK   13  A    between atoms: C_17  and  O_22 
REMARK   14  A    between atoms: C_18  and  N_21 
REMARK   15  A    between atoms: C_19  and  O_20 
REMARK   16  A    between atoms: C_23  and  O_24 
REMARK   17  A    between atoms: O_26  and  C_27 
REMARK   18  A    between atoms: C_29  and  C_36 
REMARK   19  A    between atoms: C_30  and  O_35 
REMARK   20  A    between atoms: C_31  and  O_34 
REMARK   21  A    between atoms: C_32  and  O_33 
REMARK   22  A    between atoms: C_36  and  N_37 
ROOT
HETATM    1  C   LIG     1      17.507  36.368  19.882  1.00  0.00     0.118 C 
HETATM    2  C   LIG     1      17.842  35.583  18.601  1.00  0.00     0.066 C 
HETATM    3  C   LIG     1      16.579  35.364  17.731  1.00  0.00     0.251 C 
HETATM    4  C   LIG     1      15.556  34.443  18.442  1.00  0.00     0.189 C 
HETATM    5  C   LIG     1      15.576  34.640  19.997  1.00  0.00     0.180 C 
HETATM    6  C   LIG     1      16.084  36.032  20.444  1.00  0.00     0.178 C 
ENDROOT
BRANCH   4   7
HETATM    7  O   LIG     1      15.873  33.089  18.150  1.00  0.00    -0.348 OA
BRANCH   7   8
HETATM    8  C   LIG     1      14.967  32.467  17.246  1.00  0.00     0.292 C 
HETATM    9  C   LIG     1      15.814  31.919  16.064  1.00  0.00     0.204 C 
HETATM   10  C   LIG     1      15.280  30.562  15.566  1.00  0.00     0.183 C 
HETATM   11  C   LIG     1      13.750  30.571  15.567  1.00  0.00     0.180 C 
HETATM   12  C   LIG     1      13.244  30.851  17.018  1.00  0.00     0.183 C 
HETATM   13  O   LIG     1      14.235  31.419  17.879  1.00  0.00    -0.349 OA
BRANCH   9  14
HETATM   14  O   LIG     1      15.818  32.855  15.008  1.00  0.00    -0.388 OA
HETATM   15  H   LIG     1      15.186  32.516  14.306  1.00  0.00     0.210 HD
ENDBRANCH   9  14
BRANCH  10  16
HETATM   16  O   LIG     1      15.781  30.267  14.290  1.00  0.00    -0.390 OA
HETATM   17  H   LIG     1      15.065  29.739  13.824  1.00  0.00     0.210 HD
ENDBRANCH  10  16
BRANCH  11  18
HETATM   18  O   LIG     1      13.270  31.539  14.675  1.00  0.00    -0.390 OA
HETATM   19  H   LIG     1      13.977  31.666  13.971  1.00  0.00     0.210 HD
ENDBRANCH  11  18
BRANCH  12  20
HETATM   20  C   LIG     1      11.937  31.645  17.083  1.00  0.00     0.301 C 
BRANCH  20  21
HETATM   21  N   LIG     1      12.219  33.070  16.837  1.00  0.00     0.080 N 
HETATM   22  H   LIG     1      12.287  33.575  17.745  1.00  0.00     0.312 HD
HETATM   23  H   LIG     1      11.424  33.493  16.296  1.00  0.00     0.312 HD
ENDBRANCH  20  21
ENDBRANCH  12  20
ENDBRANCH   7   8
ENDBRANCH   4   7
BRANCH   3  24
HETATM   24  N   LIG     1      16.928  34.846  16.409  1.00  0.00     0.085 N 
HETATM   25  H   LIG     1      16.692  33.826  16.380  1.00  0.00     0.313 HD
HETATM   26  H   LIG     1      16.328  35.317  15.688  1.00  0.00     0.313 HD
ENDBRANCH   3  24
BRANCH   5  27
HETATM   27  O   LIG     1      16.368  33.657  20.618  1.00  0.00    -0.390 OA
HETATM   28  H   LIG     1      15.864  32.807  20.573  1.00  0.00     0.210 HD
ENDBRANCH   5  27
BRANCH   6  29
HETATM   29  O   LIG     1      16.098  36.013  21.867  1.00  0.00    -0.349 OA
BRANCH  29  30
HETATM   30  C   LIG     1      17.200  36.705  22.446  1.00  0.00     0.291 C 
HETATM   31  C   LIG     1      16.758  38.091  23.022  1.00  0.00     0.208 C 
HETATM   32  C   LIG     1      17.325  38.331  24.441  1.00  0.00     0.282 C 
HETATM   33  C   LIG     1      16.939  37.145  25.368  1.00  0.00     0.184 C 
HETATM   34  C   LIG     1      16.932  35.791  24.592  1.00  0.00     0.179 C 
HETATM   35  O   LIG     1      17.771  35.863  23.443  1.00  0.00    -0.349 OA
BRANCH  31  36
HETATM   36  O   LIG     1      17.154  39.144  22.177  1.00  0.00    -0.388 OA
HETATM   37  H   LIG     1      18.066  38.928  21.834  1.00  0.00     0.210 HD
ENDBRANCH  31  36
BRANCH  32  38
HETATM   38  N   LIG     1      18.786  38.547  24.449  1.00  0.00     0.088 N 
HETATM   39  H   LIG     1      19.234  38.020  25.240  1.00  0.00     0.313 HD
HETATM   40  H   LIG     1      19.013  39.566  24.560  1.00  0.00     0.313 HD
ENDBRANCH  32  38
BRANCH  33  41
HETATM   41  O   LIG     1      17.783  37.110  26.503  1.00  0.00    -0.391 OA
HETATM   42  H   LIG     1      18.549  36.522  26.257  1.00  0.00     0.210 HD
ENDBRANCH  33  41
BRANCH  34  43
HETATM   43  C   LIG     1      17.356  34.561  25.453  1.00  0.00     0.198 C 
BRANCH  43  44
HETATM   44  O   LIG     1      16.559  34.407  26.606  1.00  0.00    -0.398 OA
HETATM   45  H   LIG     1      16.812  33.569  27.063  1.00  0.00     0.209 HD
ENDBRANCH  43  44
ENDBRANCH  34  43
ENDBRANCH  29  30
ENDBRANCH   6  29
BRANCH   1  46
HETATM   46  N   LIG     1      17.586  37.811  19.586  1.00  0.00    -0.352 N 
HETATM   47  C   LIG     1      18.830  38.531  19.641  1.00  0.00     0.246 C 
HETATM   48  O   LIG     1      19.727  38.176  20.458  1.00  0.00    -0.271 OA
HETATM   49  H   LIG     1      16.789  38.265  19.098  1.00  0.00     0.163 HD
BRANCH  47  50
HETATM   50  C   LIG     1      19.105  39.673  18.695  1.00  0.00     0.211 C 
BRANCH  50  51
HETATM   51  C   LIG     1      18.115  39.674  17.513  1.00  0.00     0.071 C 
BRANCH  51  52
HETATM   52  C   LIG     1      18.790  40.072  16.201  1.00  0.00     0.269 C 
BRANCH  52  53
HETATM   53  N   LIG     1      18.988  41.524  16.174  1.00  0.00     0.078 N 
HETATM   54  H   LIG     1      18.397  41.910  15.399  1.00  0.00     0.312 HD
HETATM   55  H   LIG     1      18.593  41.920  17.074  1.00  0.00     0.312 HD
ENDBRANCH  52  53
ENDBRANCH  51  52
ENDBRANCH  50  51
BRANCH  50  56
HETATM   56  O   LIG     1      20.453  39.613  18.301  1.00  0.00    -0.386 OA
HETATM   57  H   LIG     1      20.650  38.709  17.934  1.00  0.00     0.210 HD
ENDBRANCH  50  56
ENDBRANCH  47  50
ENDBRANCH   1  46
TORSDOF 22
ENDMDL
MODEL 10
REMARK VINA RESULT:      -0.8      2.127      7.849
REMARK  22 active torsions:
REMARK  status: ('A' for Active; 'I' for Inactive)
REMARK    1  A    between atoms: N_1  and  C_2 
REMARK    2  A    between atoms: C_2  and  C_3 
REMARK    3  A    between atoms: C_3  and  C_4 
REMARK    4  A    between atoms: C_4  and  C_5 
REMARK    5  A    between atoms: C_4  and  O_40 
REMARK       I    between atoms: C_5  and  N_6 
REMARK    6  A    between atoms: N_6  and  C_7 
REMARK    7  A    between atoms: C_9  and  N_38 
REMARK    8  A    between atoms: C_10  and  O_26 
REMARK    9  A    between atoms: C_11  and  O_25 
REMARK   10  A    between atoms: C_12  and  O_13 
REMARK   11  A    between atoms: O_13  and  C_14 
REMARK   12  A    between atoms: C_16  and  C_23 
REMARK   13  A    between atoms: C_17  and  O_22 
REMARK   14  A    between atoms: C_18  and  N_21 
REMARK   15  A    between atoms: C_19  and  O_20 
REMARK   16  A    between atoms: C_23  and  O_24 
REMARK   17  A    between atoms: O_26  and  C_27 
REMARK   18  A    between atoms: C_29  and  C_36 
REMARK   19  A    between atoms: C_30  and  O_35 
REMARK   20  A    between atoms: C_31  and  O_34 
REMARK   21  A    between atoms: C_32  and  O_33 
REMARK   22  A    between atoms: C_36  and  N_37 
ROOT
HETATM    1  C   LIG     1      16.162  34.142  18.970  1.00  0.00     0.118 C 
HETATM    2  C   LIG     1      15.696  33.249  20.134  1.00  0.00     0.066 C 
HETATM    3  C   LIG     1      14.750  34.020  21.088  1.00  0.00     0.251 C 
HETATM    4  C   LIG     1      15.492  35.171  21.811  1.00  0.00     0.189 C 
HETATM    5  C   LIG     1      16.602  35.809  20.907  1.00  0.00     0.180 C 
HETATM    6  C   LIG     1      16.346  35.640  19.390  1.00  0.00     0.178 C 
ENDROOT
BRANCH   4   7
HETATM    7  O   LIG     1      16.103  34.659  22.989  1.00  0.00    -0.348 OA
BRANCH   7   8
HETATM    8  C   LIG     1      16.513  35.664  23.909  1.00  0.00     0.292 C 
HETATM    9  C   LIG     1      17.274  34.943  25.055  1.00  0.00     0.204 C 
HETATM   10  C   LIG     1      18.477  35.772  25.545  1.00  0.00     0.183 C 
HETATM   11  C   LIG     1      18.106  37.255  25.590  1.00  0.00     0.180 C 
HETATM   12  C   LIG     1      17.679  37.716  24.160  1.00  0.00     0.183 C 
HETATM   13  O   LIG     1      17.342  36.639  23.279  1.00  0.00    -0.349 OA
BRANCH   9  14
HETATM   14  O   LIG     1      16.391  34.690  26.127  1.00  0.00    -0.388 OA
HETATM   15  H   LIG     1      15.871  33.863  25.897  1.00  0.00     0.210 HD
ENDBRANCH   9  14
BRANCH  10  16
HETATM   16  O   LIG     1      18.913  35.323  26.801  1.00  0.00    -0.390 OA
HETATM   17  H   LIG     1      18.320  35.770  27.478  1.00  0.00     0.210 HD
ENDBRANCH  10  16
BRANCH  11  18
HETATM   18  O   LIG     1      17.072  37.469  26.512  1.00  0.00    -0.390 OA
HETATM   19  H   LIG     1      16.579  38.293  26.213  1.00  0.00     0.210 HD
ENDBRANCH  11  18
BRANCH  12  20
HETATM   20  C   LIG     1      16.597  38.798  24.147  1.00  0.00     0.301 C 
BRANCH  20  21
HETATM   21  N   LIG     1      16.077  38.951  22.777  1.00  0.00     0.080 N 
HETATM   22  H   LIG     1      16.788  39.430  22.185  1.00  0.00     0.312 HD
HETATM   23  H   LIG     1      15.219  39.557  22.797  1.00  0.00     0.312 HD
ENDBRANCH  20  21
ENDBRANCH  12  20
ENDBRANCH   7   8
ENDBRANCH   4   7
BRANCH   3  24
HETATM   24  N   LIG     1      14.110  33.118  22.045  1.00  0.00     0.085 N 
HETATM   25  H   LIG     1      14.849  32.513  22.474  1.00  0.00     0.313 HD
HETATM   26  H   LIG     1      13.693  33.686  22.823  1.00  0.00     0.313 HD
ENDBRANCH   3  24
BRANCH   5  27
HETATM   27  O   LIG     1      17.867  35.271  21.208  1.00  0.00    -0.390 OA
HETATM   28  H   LIG     1      17.724  34.334  21.490  1.00  0.00     0.210 HD
ENDBRANCH   5  27
BRANCH   6  29
HETATM   29  O   LIG     1      17.469  36.213  18.730  1.00  0.00    -0.349 OA
BRANCH  29  30
HETATM   30  C   LIG     1      18.327  36.961  19.587  1.00  0.00     0.291 C 
HETATM   31  C   LIG     1      19.830  36.626  19.314  1.00  0.00     0.208 C 
HETATM   32  C   LIG     1      20.696  37.904  19.214  1.00  0.00     0.282 C 
HETATM   33  C   LIG     1      20.092  38.864  18.152  1.00  0.00     0.184 C 
HETATM   34  C   LIG     1      18.533  38.799  18.142  1.00  0.00     0.179 C 
HETATM   35  O   LIG     1      18.038  38.343  19.397  1.00  0.00    -0.349 OA
BRANCH  31  36
HETATM   36  O   LIG     1      20.355  35.785  20.313  1.00  0.00    -0.388 OA
HETATM   37  H   LIG     1      21.350  35.823  20.247  1.00  0.00     0.210 HD
ENDBRANCH  31  36
BRANCH  32  38
HETATM   38  N   LIG     1      20.856  38.594  20.511  1.00  0.00     0.088 N 
HETATM   39  H   LIG     1      21.605  39.329  20.449  1.00  0.00     0.313 HD
HETATM   40  H   LIG     1      21.123  37.914  21.266  1.00  0.00     0.313 HD
ENDBRANCH  32  38
BRANCH  33  41
HETATM   41  O   LIG     1      20.574  40.180  18.344  1.00  0.00    -0.391 OA
HETATM   42  H   LIG     1      20.971  40.457  17.473  1.00  0.00     0.210 HD
ENDBRANCH  33  41
BRANCH  34  43
HETATM   43  C   LIG     1      17.841  40.152  17.785  1.00  0.00     0.198 C 
BRANCH  43  44
HETATM   44  O   LIG     1      18.491  40.833  16.735  1.00  0.00    -0.398 OA
HETATM   45  H   LIG     1      19.206  41.399  17.113  1.00  0.00     0.209 HD
ENDBRANCH  43  44
ENDBRANCH  34  43
ENDBRANCH  29  30
ENDBRANCH   6  29
BRANCH   1  46
HETATM   46  N   LIG     1      15.168  34.059  17.884  1.00  0.00    -0.352 N 
HETATM   47  C   LIG     1      15.434  33.348  16.662  1.00  0.00     0.246 C 
HETATM   48  O   LIG     1      16.614  33.286  16.214  1.00  0.00    -0.271 OA
HETATM   49  H   LIG     1      14.179  34.304  18.092  1.00  0.00     0.163 HD
BRANCH  47  50
HETATM   50  C   LIG     1      14.330  32.623  15.933  1.00  0.00     0.211 C 
BRANCH  50  51
HETATM   51  C   LIG     1      13.458  31.804  16.905  1.00  0.00     0.071 C 
BRANCH  51  52
HETATM   52  C   LIG     1      12.380  31.005  16.174  1.00  0.00     0.269 C 
BRANCH  52  53
HETATM   53  N   LIG     1      12.999  29.877  15.473  1.00  0.00     0.078 N 
HETATM   54  H   LIG     1      12.227  29.264  15.116  1.00  0.00     0.312 HD
HETATM   55  H   LIG     1      13.493  30.260  14.617  1.00  0.00     0.312 HD
ENDBRANCH  52  53
ENDBRANCH  51  52
ENDBRANCH  50  51
BRANCH  50  56
HETATM   56  O   LIG     1      14.904  31.853  14.905  1.00  0.00    -0.386 OA
HETATM   57  H   LIG     1      14.207  31.633  14.229  1.00  0.00     0.210 HD
ENDBRANCH  50  56
ENDBRANCH  47  50
ENDBRANCH   1  46
TORSDOF 22
ENDMDL
