REMARK  22 active torsions:
REMARK  status: ('A' for Active; 'I' for Inactive)
REMARK    1  A    between atoms: N_1  and  C_2 
REMARK    2  A    between atoms: C_2  and  C_3 
REMARK    3  A    between atoms: C_3  and  C_4 
REMARK    4  A    between atoms: C_4  and  C_5 
REMARK    5  A    between atoms: C_4  and  O_40 
REMARK       I    between atoms: C_5  and  N_6 
REMARK    6  A    between atoms: N_6  and  C_7 
REMARK    7  A    between atoms: C_9  and  N_38 
REMARK    8  A    between atoms: C_10  and  O_26 
REMARK    9  A    between atoms: C_11  and  O_25 
REMARK   10  A    between atoms: C_12  and  O_13 
REMARK   11  A    between atoms: O_13  and  C_14 
REMARK   12  A    between atoms: C_16  and  C_23 
REMARK   13  A    between atoms: C_17  and  O_22 
REMARK   14  A    between atoms: C_18  and  N_21 
REMARK   15  A    between atoms: C_19  and  O_20 
REMARK   16  A    between atoms: C_23  and  O_24 
REMARK   17  A    between atoms: O_26  and  C_27 
REMARK   18  A    between atoms: C_29  and  C_36 
REMARK   19  A    between atoms: C_30  and  O_35 
REMARK   20  A    between atoms: C_31  and  O_34 
REMARK   21  A    between atoms: C_32  and  O_33 
REMARK   22  A    between atoms: C_36  and  N_37 
ROOT
HETATM    1  C   LIG     1      -1.098   0.851   1.300  1.00  0.00     0.118 C 
HETATM    2  C   LIG     1      -0.010   1.696   1.988  1.00  0.00     0.066 C 
HETATM    3  C   LIG     1       1.126   2.060   1.000  1.00  0.00     0.251 C 
HETATM    4  C   LIG     1       1.904   0.800   0.545  1.00  0.00     0.189 C 
HETATM    5  C   LIG     1       0.974  -0.458   0.450  1.00  0.00     0.180 C 
HETATM    6  C   LIG     1      -0.517  -0.116   0.213  1.00  0.00     0.178 C 
ENDROOT
BRANCH   4   7
HETATM    7  O   LIG     1       2.938   0.532   1.483  1.00  0.00    -0.348 OA
BRANCH   7   8
HETATM    8  C   LIG     1       4.177   0.165   0.886  1.00  0.00     0.292 C 
HETATM    9  C   LIG     1       5.063  -0.430   2.015  1.00  0.00     0.204 C 
HETATM   10  C   LIG     1       5.902  -1.619   1.508  1.00  0.00     0.183 C 
HETATM   11  C   LIG     1       6.423  -1.328   0.100  1.00  0.00     0.180 C 
HETATM   12  C   LIG     1       5.208  -1.080  -0.851  1.00  0.00     0.183 C 
HETATM   13  O   LIG     1       3.988  -0.778  -0.167  1.00  0.00    -0.349 OA
BRANCH   9  14
HETATM   14  O   LIG     1       5.909   0.574   2.534  1.00  0.00    -0.388 OA
HETATM   15  H   LIG     1       5.337   1.195   3.076  1.00  0.00     0.210 HD
ENDBRANCH   9  14
BRANCH  10  16
HETATM   16  O   LIG     1       6.958  -1.895   2.389  1.00  0.00    -0.390 OA
HETATM   17  H   LIG     1       6.562  -2.434   3.139  1.00  0.00     0.210 HD
ENDBRANCH  10  16
BRANCH  11  18
HETATM   18  O   LIG     1       7.277  -0.217   0.118  1.00  0.00    -0.390 OA
HETATM   19  H   LIG     1       8.157  -0.530   0.492  1.00  0.00     0.210 HD
ENDBRANCH  11  18
BRANCH  12  20
HETATM   20  C   LIG     1       5.481  -0.067  -1.965  1.00  0.00     0.301 C 
BRANCH  20  21
HETATM   21  N   LIG     1       6.576  -0.563  -2.817  1.00  0.00     0.080 N 
HETATM   22  H   LIG     1       7.388   0.086  -2.755  1.00  0.00     0.312 HD
HETATM   23  H   LIG     1       6.257  -0.579  -3.818  1.00  0.00     0.312 HD
ENDBRANCH  20  21
ENDBRANCH  12  20
ENDBRANCH   7   8
ENDBRANCH   4   7
BRANCH   3  24
HETATM   24  N   LIG     1       2.026   3.061   1.571  1.00  0.00     0.085 N 
HETATM   25  H   LIG     1       1.487   3.947   1.714  1.00  0.00     0.313 HD
HETATM   26  H   LIG     1       2.337   2.738   2.520  1.00  0.00     0.313 HD
ENDBRANCH   3  24
BRANCH   5  27
HETATM   27  O   LIG     1       1.071  -1.244   1.613  1.00  0.00    -0.390 OA
HETATM   28  H   LIG     1       1.908  -1.765   1.542  1.00  0.00     0.210 HD
ENDBRANCH   5  27
BRANCH   6  29
HETATM   29  O   LIG     1      -1.216  -1.356   0.219  1.00  0.00    -0.349 OA
BRANCH  29  30
HETATM   30  C   LIG     1      -2.429  -1.342  -0.528  1.00  0.00     0.291 C 
HETATM   31  C   LIG     1      -2.187  -1.795  -2.006  1.00  0.00     0.208 C 
HETATM   32  C   LIG     1      -3.242  -2.826  -2.472  1.00  0.00     0.282 C 
HETATM   33  C   LIG     1      -3.284  -4.019  -1.477  1.00  0.00     0.184 C 
HETATM   34  C   LIG     1      -3.033  -3.550  -0.010  1.00  0.00     0.179 C 
HETATM   35  O   LIG     1      -3.368  -2.175   0.145  1.00  0.00    -0.349 OA
BRANCH  31  36
HETATM   36  O   LIG     1      -2.191  -0.695  -2.884  1.00  0.00    -0.388 OA
HETATM   37  H   LIG     1      -1.340  -0.193  -2.741  1.00  0.00     0.210 HD
ENDBRANCH  31  36
BRANCH  32  38
HETATM   38  N   LIG     1      -4.587  -2.238  -2.640  1.00  0.00     0.088 N 
HETATM   39  H   LIG     1      -4.554  -1.422  -3.301  1.00  0.00     0.313 HD
HETATM   40  H   LIG     1      -4.966  -1.903  -1.720  1.00  0.00     0.313 HD
ENDBRANCH  32  38
BRANCH  33  41
HETATM   41  O   LIG     1      -4.497  -4.734  -1.613  1.00  0.00    -0.391 OA
HETATM   42  H   LIG     1      -4.462  -5.165  -2.510  1.00  0.00     0.210 HD
ENDBRANCH  33  41
BRANCH  34  43
HETATM   43  C   LIG     1      -3.799  -4.383   1.065  1.00  0.00     0.198 C 
BRANCH  43  44
HETATM   44  O   LIG     1      -5.103  -3.899   1.297  1.00  0.00    -0.398 OA
HETATM   45  H   LIG     1      -5.557  -3.770   0.430  1.00  0.00     0.209 HD
ENDBRANCH  43  44
ENDBRANCH  34  43
ENDBRANCH  29  30
ENDBRANCH   6  29
BRANCH   1  46
HETATM   46  N   LIG     1      -2.075   1.760   0.672  1.00  0.00    -0.352 N 
HETATM   47  C   LIG     1      -3.369   2.002   1.250  1.00  0.00     0.246 C 
HETATM   48  O   LIG     1      -3.944   1.090   1.911  1.00  0.00    -0.271 OA
HETATM   49  H   LIG     1      -1.744   2.420  -0.060  1.00  0.00     0.163 HD
BRANCH  47  50
HETATM   50  C   LIG     1      -4.031   3.352   1.129  1.00  0.00     0.211 C 
BRANCH  50  51
HETATM   51  C   LIG     1      -4.304   3.713  -0.345  1.00  0.00     0.071 C 
BRANCH  51  52
HETATM   52  C   LIG     1      -5.295   4.868  -0.478  1.00  0.00     0.269 C 
BRANCH  52  53
HETATM   53  N   LIG     1      -5.438   5.229  -1.891  1.00  0.00     0.078 N 
HETATM   54  H   LIG     1      -6.112   6.030  -1.947  1.00  0.00     0.312 HD
HETATM   55  H   LIG     1      -4.505   5.603  -2.225  1.00  0.00     0.312 HD
ENDBRANCH  52  53
ENDBRANCH  51  52
ENDBRANCH  50  51
BRANCH  50  56
HETATM   56  O   LIG     1      -3.242   4.300   1.804  1.00  0.00    -0.386 OA
HETATM   57  H   LIG     1      -2.761   4.863   1.139  1.00  0.00     0.210 HD
ENDBRANCH  50  56
ENDBRANCH  47  50
ENDBRANCH   1  46
TORSDOF 22
