REMARK  2 active torsions:
REMARK  status: ('A' for Active; 'I' for Inactive)
REMARK    1  A    between atoms: C_2  and  N_3 
REMARK       I    between atoms: N_3  and  C_4 
REMARK       I    between atoms: C_4  and  N_5 
REMARK    2  A    between atoms: N_5  and  C_6 
ROOT
HETATM    1  C   LIG     1      -3.047   0.171   1.720  1.00  0.00     0.046 C 
HETATM    2  C   LIG     1      -3.077   0.156   0.189  1.00  0.00     0.163 C 
HETATM    3  C   LIG     1      -3.374  -1.194  -0.319  1.00  0.00    -0.092 C 
HETATM    4  C   LIG     1      -3.618  -2.298  -0.737  1.00  0.00     0.014 C 
ENDROOT
BRANCH   2   5
HETATM    5  N   LIG     1      -1.807   0.662  -0.373  1.00  0.00    -0.323 N 
HETATM    6  C   LIG     1      -1.799   1.958  -1.064  1.00  0.00     0.156 C 
HETATM    7  C   LIG     1      -0.564  -0.067  -0.216  1.00  0.00     0.323 C 
HETATM    8  N   LIG     1       0.659   0.421  -0.799  1.00  0.00    -0.309 N 
HETATM    9  O   LIG     1      -0.552  -1.162   0.410  1.00  0.00    -0.247 OA
HETATM   10  H   LIG     1       0.602   1.027  -1.647  1.00  0.00     0.170 HD
BRANCH   8  11
HETATM   11  C   LIG     1       1.967   0.011  -0.363  1.00  0.00     0.036 A 
HETATM   12  C   LIG     1       3.026  -0.010  -1.285  1.00  0.00     0.031 A 
HETATM   13  C   LIG     1       4.311  -0.384  -0.880  1.00  0.00     0.026 A 
HETATM   14  C   LIG     1       4.553  -0.727   0.454  1.00  0.00     0.034 A 
HETATM   15  C   LIG     1       3.510  -0.688   1.384  1.00  0.00     0.026 A 
HETATM   16 CL   LIG     1       6.166  -1.194   0.962  1.00  0.00    -0.084 Cl
HETATM   17  C   LIG     1       2.224  -0.315   0.982  1.00  0.00     0.031 A 
ENDBRANCH   8  11
ENDBRANCH   2   5
TORSDOF 2
