MODEL 1
REMARK VINA RESULT:      -7.3      0.000      0.000
REMARK  2 active torsions:
REMARK  status: ('A' for Active; 'I' for Inactive)
REMARK    1  A    between atoms: C_2  and  N_3 
REMARK       I    between atoms: N_3  and  C_4 
REMARK       I    between atoms: C_4  and  N_5 
REMARK    2  A    between atoms: N_5  and  C_6 
ROOT
HETATM    1  C   LIG     1      17.019  38.231  23.067  1.00  0.00     0.046 C 
HETATM    2  C   LIG     1      16.483  36.813  22.852  1.00  0.00     0.163 C 
HETATM    3  C   LIG     1      17.014  35.889  23.869  1.00  0.00    -0.092 C 
HETATM    4  C   LIG     1      17.447  35.131  24.701  1.00  0.00     0.014 C 
ENDROOT
BRANCH   2   5
HETATM    5  N   LIG     1      16.790  36.329  21.490  1.00  0.00    -0.323 N 
HETATM    6  C   LIG     1      18.113  36.605  20.916  1.00  0.00     0.156 C 
HETATM    7  C   LIG     1      15.834  35.549  20.729  1.00  0.00     0.323 C 
HETATM    8  N   LIG     1      16.134  35.114  19.389  1.00  0.00    -0.309 N 
HETATM    9  O   LIG     1      14.709  35.272  21.227  1.00  0.00    -0.247 OA
HETATM   10  H   LIG     1      16.806  35.674  18.820  1.00  0.00     0.170 HD
BRANCH   8  11
HETATM   11  C   LIG     1      15.456  34.026  18.736  1.00  0.00     0.036 A 
HETATM   12  C   LIG     1      15.026  34.180  17.408  1.00  0.00     0.031 A 
HETATM   13  C   LIG     1      14.385  33.129  16.744  1.00  0.00     0.026 A 
HETATM   14  C   LIG     1      14.180  31.910  17.397  1.00  0.00     0.034 A 
HETATM   15  C   LIG     1      14.624  31.740  18.712  1.00  0.00     0.026 A 
HETATM   16 CL   LIG     1      13.377  30.591  16.564  1.00  0.00    -0.084 Cl
HETATM   17  C   LIG     1      15.265  32.788  19.378  1.00  0.00     0.031 A 
ENDBRANCH   8  11
ENDBRANCH   2   5
TORSDOF 2
ENDMDL
MODEL 2
REMARK VINA RESULT:      -6.9      6.338      8.611
REMARK  2 active torsions:
REMARK  status: ('A' for Active; 'I' for Inactive)
REMARK    1  A    between atoms: C_2  and  N_3 
REMARK       I    between atoms: N_3  and  C_4 
REMARK       I    between atoms: C_4  and  N_5 
REMARK    2  A    between atoms: N_5  and  C_6 
ROOT
HETATM    1  C   LIG     1      20.965  34.825  10.089  1.00  0.00     0.046 C 
HETATM    2  C   LIG     1      20.399  34.715  11.507  1.00  0.00     0.163 C 
HETATM    3  C   LIG     1      21.480  34.581  12.498  1.00  0.00    -0.092 C 
HETATM    4  C   LIG     1      22.364  34.473  13.310  1.00  0.00     0.014 C 
ENDROOT
BRANCH   2   5
HETATM    5  N   LIG     1      19.446  33.590  11.614  1.00  0.00    -0.323 N 
HETATM    6  C   LIG     1      19.658  32.394  10.787  1.00  0.00     0.156 C 
HETATM    7  C   LIG     1      18.337  33.620  12.547  1.00  0.00     0.323 C 
HETATM    8  N   LIG     1      17.397  32.532  12.615  1.00  0.00    -0.309 N 
HETATM    9  O   LIG     1      18.168  34.625  13.290  1.00  0.00    -0.247 OA
HETATM   10  H   LIG     1      17.246  31.947  11.764  1.00  0.00     0.170 HD
BRANCH   8  11
HETATM   11  C   LIG     1      16.547  32.285  13.749  1.00  0.00     0.036 A 
HETATM   12  C   LIG     1      15.585  31.263  13.681  1.00  0.00     0.031 A 
HETATM   13  C   LIG     1      14.762  30.990  14.777  1.00  0.00     0.026 A 
HETATM   14  C   LIG     1      14.902  31.726  15.959  1.00  0.00     0.034 A 
HETATM   15  C   LIG     1      15.871  32.730  16.044  1.00  0.00     0.026 A 
HETATM   16 CL   LIG     1      13.871  31.381  17.335  1.00  0.00    -0.084 Cl
HETATM   17  C   LIG     1      16.695  33.006  14.949  1.00  0.00     0.031 A 
ENDBRANCH   8  11
ENDBRANCH   2   5
TORSDOF 2
ENDMDL
MODEL 3
REMARK VINA RESULT:      -6.5      1.742      2.494
REMARK  2 active torsions:
REMARK  status: ('A' for Active; 'I' for Inactive)
REMARK    1  A    between atoms: C_2  and  N_3 
REMARK       I    between atoms: N_3  and  C_4 
REMARK       I    between atoms: C_4  and  N_5 
REMARK    2  A    between atoms: N_5  and  C_6 
ROOT
HETATM    1  C   LIG     1      17.886  38.717  23.646  1.00  0.00     0.046 C 
HETATM    2  C   LIG     1      18.021  37.894  22.362  1.00  0.00     0.163 C 
HETATM    3  C   LIG     1      18.354  38.757  21.216  1.00  0.00    -0.092 C 
HETATM    4  C   LIG     1      18.627  39.461  20.276  1.00  0.00     0.014 C 
ENDROOT
BRANCH   2   5
HETATM    5  N   LIG     1      16.793  37.117  22.096  1.00  0.00    -0.323 N 
HETATM    6  C   LIG     1      15.526  37.559  22.693  1.00  0.00     0.156 C 
HETATM    7  C   LIG     1      16.801  35.959  21.223  1.00  0.00     0.323 C 
HETATM    8  N   LIG     1      15.603  35.191  21.001  1.00  0.00    -0.309 N 
HETATM    9  O   LIG     1      17.876  35.594  20.674  1.00  0.00    -0.247 OA
HETATM   10  H   LIG     1      14.868  35.185  21.743  1.00  0.00     0.170 HD
BRANCH   8  11
HETATM   11  C   LIG     1      15.416  34.317  19.874  1.00  0.00     0.036 A 
HETATM   12  C   LIG     1      15.348  34.864  18.582  1.00  0.00     0.031 A 
HETATM   13  C   LIG     1      15.188  34.033  17.469  1.00  0.00     0.026 A 
HETATM   14  C   LIG     1      15.109  32.647  17.635  1.00  0.00     0.034 A 
HETATM   15  C   LIG     1      15.198  32.092  18.915  1.00  0.00     0.026 A 
HETATM   16 CL   LIG     1      14.911  31.605  16.237  1.00  0.00    -0.084 Cl
HETATM   17  C   LIG     1      15.357  32.920  20.030  1.00  0.00     0.031 A 
ENDBRANCH   8  11
ENDBRANCH   2   5
TORSDOF 2
ENDMDL
MODEL 4
REMARK VINA RESULT:      -5.7      1.144      2.056
REMARK  2 active torsions:
REMARK  status: ('A' for Active; 'I' for Inactive)
REMARK    1  A    between atoms: C_2  and  N_3 
REMARK       I    between atoms: N_3  and  C_4 
REMARK       I    between atoms: C_4  and  N_5 
REMARK    2  A    between atoms: N_5  and  C_6 
ROOT
HETATM    1  C   LIG     1      18.309  37.598  20.925  1.00  0.00     0.046 C 
HETATM    2  C   LIG     1      17.048  37.279  21.732  1.00  0.00     0.163 C 
HETATM    3  C   LIG     1      17.169  37.771  23.115  1.00  0.00    -0.092 C 
HETATM    4  C   LIG     1      17.265  38.174  24.247  1.00  0.00     0.014 C 
ENDROOT
BRANCH   2   5
HETATM    5  N   LIG     1      16.757  35.829  21.713  1.00  0.00    -0.323 N 
HETATM    6  C   LIG     1      16.747  35.088  22.981  1.00  0.00     0.156 C 
HETATM    7  C   LIG     1      16.435  35.136  20.482  1.00  0.00     0.323 C 
HETATM    8  N   LIG     1      16.188  33.717  20.474  1.00  0.00    -0.309 N 
HETATM    9  O   LIG     1      16.402  35.772  19.393  1.00  0.00    -0.247 OA
HETATM   10  H   LIG     1      16.629  33.129  21.214  1.00  0.00     0.170 HD
BRANCH   8  11
HETATM   11  C   LIG     1      15.478  33.040  19.423  1.00  0.00     0.036 A 
HETATM   12  C   LIG     1      14.895  31.788  19.680  1.00  0.00     0.031 A 
HETATM   13  C   LIG     1      14.181  31.120  18.680  1.00  0.00     0.026 A 
HETATM   14  C   LIG     1      14.030  31.703  17.418  1.00  0.00     0.034 A 
HETATM   15  C   LIG     1      14.588  32.958  17.159  1.00  0.00     0.026 A 
HETATM   16 CL   LIG     1      13.132  30.865  16.165  1.00  0.00    -0.084 Cl
HETATM   17  C   LIG     1      15.303  33.629  18.156  1.00  0.00     0.031 A 
ENDBRANCH   8  11
ENDBRANCH   2   5
TORSDOF 2
ENDMDL
MODEL 5
REMARK VINA RESULT:      -5.0      1.663      2.329
REMARK  2 active torsions:
REMARK  status: ('A' for Active; 'I' for Inactive)
REMARK    1  A    between atoms: C_2  and  N_3 
REMARK       I    between atoms: N_3  and  C_4 
REMARK       I    between atoms: C_4  and  N_5 
REMARK    2  A    between atoms: N_5  and  C_6 
ROOT
HETATM    1  C   LIG     1      18.179  38.391  21.540  1.00  0.00     0.046 C 
HETATM    2  C   LIG     1      17.212  38.250  22.718  1.00  0.00     0.163 C 
HETATM    3  C   LIG     1      17.932  37.896  23.952  1.00  0.00    -0.092 C 
HETATM    4  C   LIG     1      18.520  37.607  24.964  1.00  0.00     0.014 C 
ENDROOT
BRANCH   2   5
HETATM    5  N   LIG     1      16.155  37.259  22.423  1.00  0.00    -0.323 N 
HETATM    6  C   LIG     1      14.834  37.417  23.045  1.00  0.00     0.156 C 
HETATM    7  C   LIG     1      16.378  36.164  21.499  1.00  0.00     0.323 C 
HETATM    8  N   LIG     1      15.351  35.187  21.248  1.00  0.00    -0.309 N 
HETATM    9  O   LIG     1      17.496  36.041  20.928  1.00  0.00    -0.247 OA
HETATM   10  H   LIG     1      14.642  35.004  21.991  1.00  0.00     0.170 HD
BRANCH   8  11
HETATM   11  C   LIG     1      15.323  34.344  20.083  1.00  0.00     0.036 A 
HETATM   12  C   LIG     1      15.238  32.951  20.241  1.00  0.00     0.031 A 
HETATM   13  C   LIG     1      15.188  32.112  19.124  1.00  0.00     0.026 A 
HETATM   14  C   LIG     1      15.207  32.658  17.837  1.00  0.00     0.034 A 
HETATM   15  C   LIG     1      15.269  34.044  17.668  1.00  0.00     0.026 A 
HETATM   16 CL   LIG     1      15.142  31.605  16.435  1.00  0.00    -0.084 Cl
HETATM   17  C   LIG     1      15.321  34.886  18.784  1.00  0.00     0.031 A 
ENDBRANCH   8  11
ENDBRANCH   2   5
TORSDOF 2
ENDMDL
MODEL 6
REMARK VINA RESULT:      -5.0      3.145      6.739
REMARK  2 active torsions:
REMARK  status: ('A' for Active; 'I' for Inactive)
REMARK    1  A    between atoms: C_2  and  N_3 
REMARK       I    between atoms: N_3  and  C_4 
REMARK       I    between atoms: C_4  and  N_5 
REMARK    2  A    between atoms: N_5  and  C_6 
ROOT
HETATM    1  C   LIG     1      15.576  31.387  16.153  1.00  0.00     0.046 C 
HETATM    2  C   LIG     1      14.723  31.949  17.294  1.00  0.00     0.163 C 
HETATM    3  C   LIG     1      13.287  31.824  16.989  1.00  0.00    -0.092 C 
HETATM    4  C   LIG     1      12.112  31.722  16.742  1.00  0.00     0.014 C 
ENDROOT
BRANCH   2   5
HETATM    5  N   LIG     1      15.079  33.354  17.582  1.00  0.00    -0.323 N 
HETATM    6  C   LIG     1      14.834  34.377  16.556  1.00  0.00     0.156 C 
HETATM    7  C   LIG     1      15.618  33.752  18.867  1.00  0.00     0.323 C 
HETATM    8  N   LIG     1      15.993  35.119  19.122  1.00  0.00    -0.309 N 
HETATM    9  O   LIG     1      15.795  32.888  19.769  1.00  0.00    -0.247 OA
HETATM   10  H   LIG     1      16.276  35.718  18.315  1.00  0.00     0.170 HD
BRANCH   8  11
HETATM   11  C   LIG     1      16.135  35.673  20.442  1.00  0.00     0.036 A 
HETATM   12  C   LIG     1      17.413  36.013  20.914  1.00  0.00     0.031 A 
HETATM   13  C   LIG     1      17.573  36.573  22.185  1.00  0.00     0.026 A 
HETATM   14  C   LIG     1      16.456  36.811  22.991  1.00  0.00     0.034 A 
HETATM   15  C   LIG     1      15.177  36.496  22.522  1.00  0.00     0.026 A 
HETATM   16 CL   LIG     1      16.657  37.516  24.585  1.00  0.00    -0.084 Cl
HETATM   17  C   LIG     1      15.014  35.936  21.251  1.00  0.00     0.031 A 
ENDBRANCH   8  11
ENDBRANCH   2   5
TORSDOF 2
ENDMDL
MODEL 7
REMARK VINA RESULT:      -4.9      3.795      7.462
REMARK  2 active torsions:
REMARK  status: ('A' for Active; 'I' for Inactive)
REMARK    1  A    between atoms: C_2  and  N_3 
REMARK       I    between atoms: N_3  and  C_4 
REMARK       I    between atoms: C_4  and  N_5 
REMARK    2  A    between atoms: N_5  and  C_6 
ROOT
HETATM    1  C   LIG     1      15.758  29.395  14.485  1.00  0.00     0.046 C 
HETATM    2  C   LIG     1      14.969  30.664  14.153  1.00  0.00     0.163 C 
HETATM    3  C   LIG     1      15.843  31.687  13.553  1.00  0.00    -0.092 C 
HETATM    4  C   LIG     1      16.556  32.524  13.061  1.00  0.00     0.014 C 
ENDROOT
BRANCH   2   5
HETATM    5  N   LIG     1      14.286  31.195  15.352  1.00  0.00    -0.323 N 
HETATM    6  C   LIG     1      12.926  30.733  15.661  1.00  0.00     0.156 C 
HETATM    7  C   LIG     1      14.944  32.120  16.253  1.00  0.00     0.323 C 
HETATM    8  N   LIG     1      14.253  32.655  17.398  1.00  0.00    -0.309 N 
HETATM    9  O   LIG     1      16.126  32.493  16.019  1.00  0.00    -0.247 OA
HETATM   10  H   LIG     1      13.213  32.729  17.365  1.00  0.00     0.170 HD
BRANCH   8  11
HETATM   11  C   LIG     1      14.924  33.224  18.537  1.00  0.00     0.036 A 
HETATM   12  C   LIG     1      15.228  34.595  18.544  1.00  0.00     0.031 A 
HETATM   13  C   LIG     1      15.859  35.175  19.648  1.00  0.00     0.026 A 
HETATM   14  C   LIG     1      16.180  34.393  20.762  1.00  0.00     0.034 A 
HETATM   15  C   LIG     1      15.862  33.032  20.774  1.00  0.00     0.026 A 
HETATM   16 CL   LIG     1      16.970  35.122  22.149  1.00  0.00    -0.084 Cl
HETATM   17  C   LIG     1      15.231  32.449  19.671  1.00  0.00     0.031 A 
ENDBRANCH   8  11
ENDBRANCH   2   5
TORSDOF 2
ENDMDL
MODEL 8
REMARK VINA RESULT:      -4.7     14.863     16.206
REMARK  2 active torsions:
REMARK  status: ('A' for Active; 'I' for Inactive)
REMARK    1  A    between atoms: C_2  and  N_3 
REMARK       I    between atoms: N_3  and  C_4 
REMARK       I    between atoms: C_4  and  N_5 
REMARK    2  A    between atoms: N_5  and  C_6 
ROOT
HETATM    1  C   LIG     1      23.050  19.191  19.694  1.00  0.00     0.046 C 
HETATM    2  C   LIG     1      23.898  20.321  20.285  1.00  0.00     0.163 C 
HETATM    3  C   LIG     1      23.323  20.804  21.551  1.00  0.00    -0.092 C 
HETATM    4  C   LIG     1      22.855  21.201  22.589  1.00  0.00     0.014 C 
ENDROOT
BRANCH   2   5
HETATM    5  N   LIG     1      24.052  21.431  19.320  1.00  0.00    -0.323 N 
HETATM    6  C   LIG     1      22.902  21.823  18.495  1.00  0.00     0.156 C 
HETATM    7  C   LIG     1      25.294  22.169  19.205  1.00  0.00     0.323 C 
HETATM    8  N   LIG     1      25.441  23.224  18.236  1.00  0.00    -0.309 N 
HETATM    9  O   LIG     1      26.276  21.866  19.937  1.00  0.00    -0.247 OA
HETATM   10  H   LIG     1      24.860  23.192  17.370  1.00  0.00     0.170 HD
BRANCH   8  11
HETATM   11  C   LIG     1      26.443  24.253  18.326  1.00  0.00     0.036 A 
HETATM   12  C   LIG     1      27.569  24.193  17.489  1.00  0.00     0.031 A 
HETATM   13  C   LIG     1      28.545  25.193  17.543  1.00  0.00     0.026 A 
HETATM   14  C   LIG     1      28.399  26.269  18.424  1.00  0.00     0.034 A 
HETATM   15  C   LIG     1      27.271  26.348  19.245  1.00  0.00     0.026 A 
HETATM   16 CL   LIG     1      29.623  27.523  18.489  1.00  0.00    -0.084 Cl
HETATM   17  C   LIG     1      26.293  25.350  19.195  1.00  0.00     0.031 A 
ENDBRANCH   8  11
ENDBRANCH   2   5
TORSDOF 2
ENDMDL
MODEL 9
REMARK VINA RESULT:      -4.5      7.622     11.749
REMARK  2 active torsions:
REMARK  status: ('A' for Active; 'I' for Inactive)
REMARK    1  A    between atoms: C_2  and  N_3 
REMARK       I    between atoms: N_3  and  C_4 
REMARK       I    between atoms: C_4  and  N_5 
REMARK    2  A    between atoms: N_5  and  C_6 
ROOT
HETATM    1  C   LIG     1      11.069  25.345  12.598  1.00  0.00     0.046 C 
HETATM    2  C   LIG     1      11.988  25.677  11.420  1.00  0.00     0.163 C 
HETATM    3  C   LIG     1      12.307  24.467  10.643  1.00  0.00    -0.092 C 
HETATM    4  C   LIG     1      12.568  23.478  10.005  1.00  0.00     0.014 C 
ENDROOT
BRANCH   2   5
HETATM    5  N   LIG     1      13.223  26.346  11.880  1.00  0.00    -0.323 N 
HETATM    6  C   LIG     1      14.488  26.063  11.190  1.00  0.00     0.156 C 
HETATM    7  C   LIG     1      13.205  27.310  12.963  1.00  0.00     0.323 C 
HETATM    8  N   LIG     1      14.421  27.929  13.423  1.00  0.00    -0.309 N 
HETATM    9  O   LIG     1      12.117  27.591  13.536  1.00  0.00    -0.247 OA
HETATM   10  H   LIG     1      15.322  27.415  13.299  1.00  0.00     0.170 HD
BRANCH   8  11
HETATM   11  C   LIG     1      14.455  29.156  14.172  1.00  0.00     0.036 A 
HETATM   12  C   LIG     1      13.386  29.473  15.026  1.00  0.00     0.031 A 
HETATM   13  C   LIG     1      13.406  30.650  15.780  1.00  0.00     0.026 A 
HETATM   14  C   LIG     1      14.502  31.515  15.699  1.00  0.00     0.034 A 
HETATM   15  C   LIG     1      15.581  31.198  14.869  1.00  0.00     0.026 A 
HETATM   16 CL   LIG     1      14.528  32.991  16.648  1.00  0.00    -0.084 Cl
HETATM   17  C   LIG     1      15.564  30.022  14.113  1.00  0.00     0.031 A 
ENDBRANCH   8  11
ENDBRANCH   2   5
TORSDOF 2
ENDMDL
MODEL 10
REMARK VINA RESULT:      -4.5     14.788     15.693
REMARK  2 active torsions:
REMARK  status: ('A' for Active; 'I' for Inactive)
REMARK    1  A    between atoms: C_2  and  N_3 
REMARK       I    between atoms: N_3  and  C_4 
REMARK       I    between atoms: C_4  and  N_5 
REMARK    2  A    between atoms: N_5  and  C_6 
ROOT
HETATM    1  C   LIG     1      23.570  20.946  23.464  1.00  0.00     0.046 C 
HETATM    2  C   LIG     1      24.767  21.862  23.195  1.00  0.00     0.163 C 
HETATM    3  C   LIG     1      25.039  22.729  24.354  1.00  0.00    -0.092 C 
HETATM    4  C   LIG     1      25.264  23.438  25.302  1.00  0.00     0.014 C 
ENDROOT
BRANCH   2   5
HETATM    5  N   LIG     1      24.556  22.668  21.973  1.00  0.00    -0.323 N 
HETATM    6  C   LIG     1      23.207  23.165  21.671  1.00  0.00     0.156 C 
HETATM    7  C   LIG     1      25.655  23.017  21.096  1.00  0.00     0.323 C 
HETATM    8  N   LIG     1      25.429  23.773  19.891  1.00  0.00    -0.309 N 
HETATM    9  O   LIG     1      26.824  22.629  21.367  1.00  0.00    -0.247 OA
HETATM   10  H   LIG     1      24.493  23.714  19.432  1.00  0.00     0.170 HD
BRANCH   8  11
HETATM   11  C   LIG     1      26.461  24.502  19.203  1.00  0.00     0.036 A 
HETATM   12  C   LIG     1      26.900  25.730  19.722  1.00  0.00     0.031 A 
HETATM   13  C   LIG     1      27.917  26.446  19.083  1.00  0.00     0.026 A 
HETATM   14  C   LIG     1      28.515  25.934  17.928  1.00  0.00     0.034 A 
HETATM   15  C   LIG     1      28.100  24.701  17.416  1.00  0.00     0.026 A 
HETATM   16 CL   LIG     1      29.793  26.831  17.128  1.00  0.00    -0.084 Cl
HETATM   17  C   LIG     1      27.083  23.983  18.052  1.00  0.00     0.031 A 
ENDBRANCH   8  11
ENDBRANCH   2   5
TORSDOF 2
ENDMDL
MODEL 11
REMARK VINA RESULT:      -4.5      6.276      7.784
REMARK  2 active torsions:
REMARK  status: ('A' for Active; 'I' for Inactive)
REMARK    1  A    between atoms: C_2  and  N_3 
REMARK       I    between atoms: N_3  and  C_4 
REMARK       I    between atoms: C_4  and  N_5 
REMARK    2  A    between atoms: N_5  and  C_6 
ROOT
HETATM    1  C   LIG     1      17.557  34.859  11.790  1.00  0.00     0.046 C 
HETATM    2  C   LIG     1      18.330  34.697  13.102  1.00  0.00     0.163 C 
HETATM    3  C   LIG     1      19.599  33.984  12.882  1.00  0.00    -0.092 C 
HETATM    4  C   LIG     1      20.639  33.400  12.703  1.00  0.00     0.014 C 
ENDROOT
BRANCH   2   5
HETATM    5  N   LIG     1      17.510  34.010  14.122  1.00  0.00    -0.323 N 
HETATM    6  C   LIG     1      17.192  34.711  15.373  1.00  0.00     0.156 C 
HETATM    7  C   LIG     1      16.974  32.682  13.896  1.00  0.00     0.323 C 
HETATM    8  N   LIG     1      16.206  32.010  14.912  1.00  0.00    -0.309 N 
HETATM    9  O   LIG     1      17.208  32.086  12.809  1.00  0.00    -0.247 OA
HETATM   10  H   LIG     1      16.375  32.258  15.912  1.00  0.00     0.170 HD
BRANCH   8  11
HETATM   11  C   LIG     1      15.313  30.916  14.641  1.00  0.00     0.036 A 
HETATM   12  C   LIG     1      15.780  29.810  13.911  1.00  0.00     0.031 A 
HETATM   13  C   LIG     1      14.937  28.724  13.654  1.00  0.00     0.026 A 
HETATM   14  C   LIG     1      13.624  28.727  14.136  1.00  0.00     0.034 A 
HETATM   15  C   LIG     1      13.157  29.814  14.882  1.00  0.00     0.026 A 
HETATM   16 CL   LIG     1      12.568  27.364  13.814  1.00  0.00    -0.084 Cl
HETATM   17  C   LIG     1      13.997  30.901  15.140  1.00  0.00     0.031 A 
ENDBRANCH   8  11
ENDBRANCH   2   5
TORSDOF 2
ENDMDL
MODEL 12
REMARK VINA RESULT:      -4.4      2.162      3.246
REMARK  2 active torsions:
REMARK  status: ('A' for Active; 'I' for Inactive)
REMARK    1  A    between atoms: C_2  and  N_3 
REMARK       I    between atoms: N_3  and  C_4 
REMARK       I    between atoms: C_4  and  N_5 
REMARK    2  A    between atoms: N_5  and  C_6 
ROOT
HETATM    1  C   LIG     1      18.301  39.554  18.883  1.00  0.00     0.046 C 
HETATM    2  C   LIG     1      18.897  38.917  20.143  1.00  0.00     0.163 C 
HETATM    3  C   LIG     1      20.195  38.287  19.851  1.00  0.00    -0.092 C 
HETATM    4  C   LIG     1      21.259  37.772  19.615  1.00  0.00     0.014 C 
ENDROOT
BRANCH   2   5
HETATM    5  N   LIG     1      17.960  37.941  20.739  1.00  0.00    -0.323 N 
HETATM    6  C   LIG     1      17.290  38.276  22.002  1.00  0.00     0.156 C 
HETATM    7  C   LIG     1      17.654  36.686  20.083  1.00  0.00     0.323 C 
HETATM    8  N   LIG     1      16.767  35.729  20.693  1.00  0.00    -0.309 N 
HETATM    9  O   LIG     1      18.194  36.405  18.978  1.00  0.00    -0.247 OA
HETATM   10  H   LIG     1      16.678  35.722  21.733  1.00  0.00     0.170 HD
BRANCH   8  11
HETATM   11  C   LIG     1      16.096  34.688  19.962  1.00  0.00     0.036 A 
HETATM   12  C   LIG     1      15.689  34.926  18.639  1.00  0.00     0.031 A 
HETATM   13  C   LIG     1      15.055  33.922  17.901  1.00  0.00     0.026 A 
HETATM   14  C   LIG     1      14.833  32.665  18.474  1.00  0.00     0.034 A 
HETATM   15  C   LIG     1      15.254  32.411  19.783  1.00  0.00     0.026 A 
HETATM   16 CL   LIG     1      14.039  31.405  17.547  1.00  0.00    -0.084 Cl
HETATM   17  C   LIG     1      15.888  33.414  20.523  1.00  0.00     0.031 A 
ENDBRANCH   8  11
ENDBRANCH   2   5
TORSDOF 2
ENDMDL
MODEL 13
REMARK VINA RESULT:      -4.4     15.151     17.060
REMARK  2 active torsions:
REMARK  status: ('A' for Active; 'I' for Inactive)
REMARK    1  A    between atoms: C_2  and  N_3 
REMARK       I    between atoms: N_3  and  C_4 
REMARK       I    between atoms: C_4  and  N_5 
REMARK    2  A    between atoms: N_5  and  C_6 
ROOT
HETATM    1  C   LIG     1      21.723  18.185  18.649  1.00  0.00     0.046 C 
HETATM    2  C   LIG     1      22.404  19.280  17.822  1.00  0.00     0.163 C 
HETATM    3  C   LIG     1      22.604  18.841  16.431  1.00  0.00    -0.092 C 
HETATM    4  C   LIG     1      22.768  18.484  15.291  1.00  0.00     0.014 C 
ENDROOT
BRANCH   2   5
HETATM    5  N   LIG     1      23.686  19.689  18.434  1.00  0.00    -0.323 N 
HETATM    6  C   LIG     1      24.652  18.654  18.826  1.00  0.00     0.156 C 
HETATM    7  C   LIG     1      24.030  21.086  18.612  1.00  0.00     0.323 C 
HETATM    8  N   LIG     1      25.267  21.469  19.242  1.00  0.00    -0.309 N 
HETATM    9  O   LIG     1      23.224  21.984  18.242  1.00  0.00    -0.247 OA
HETATM   10  H   LIG     1      25.705  20.812  19.924  1.00  0.00     0.170 HD
BRANCH   8  11
HETATM   11  C   LIG     1      25.867  22.767  19.090  1.00  0.00     0.036 A 
HETATM   12  C   LIG     1      25.595  23.768  20.037  1.00  0.00     0.031 A 
HETATM   13  C   LIG     1      26.184  25.031  19.923  1.00  0.00     0.026 A 
HETATM   14  C   LIG     1      27.063  25.302  18.869  1.00  0.00     0.034 A 
HETATM   15  C   LIG     1      27.358  24.305  17.934  1.00  0.00     0.026 A 
HETATM   16 CL   LIG     1      27.804  26.886  18.728  1.00  0.00    -0.084 Cl
HETATM   17  C   LIG     1      26.770  23.041  18.045  1.00  0.00     0.031 A 
ENDBRANCH   8  11
ENDBRANCH   2   5
TORSDOF 2
ENDMDL
MODEL 14
REMARK VINA RESULT:      -4.3      4.664      7.000
REMARK  2 active torsions:
REMARK  status: ('A' for Active; 'I' for Inactive)
REMARK    1  A    between atoms: C_2  and  N_3 
REMARK       I    between atoms: N_3  and  C_4 
REMARK       I    between atoms: C_4  and  N_5 
REMARK    2  A    between atoms: N_5  and  C_6 
ROOT
HETATM    1  C   LIG     1      20.495  38.985  19.326  1.00  0.00     0.046 C 
HETATM    2  C   LIG     1      19.402  38.409  18.422  1.00  0.00     0.163 C 
HETATM    3  C   LIG     1      18.624  39.485  17.785  1.00  0.00    -0.092 C 
HETATM    4  C   LIG     1      17.987  40.365  17.262  1.00  0.00     0.014 C 
ENDROOT
BRANCH   2   5
HETATM    5  N   LIG     1      18.518  37.494  19.173  1.00  0.00    -0.323 N 
HETATM    6  C   LIG     1      17.916  36.350  18.474  1.00  0.00     0.156 C 
HETATM    7  C   LIG     1      18.270  37.671  20.590  1.00  0.00     0.323 C 
HETATM    8  N   LIG     1      17.378  36.792  21.301  1.00  0.00    -0.309 N 
HETATM    9  O   LIG     1      18.813  38.627  21.208  1.00  0.00    -0.247 OA
HETATM   10  H   LIG     1      16.613  36.319  20.770  1.00  0.00     0.170 HD
BRANCH   8  11
HETATM   11  C   LIG     1      17.392  36.630  22.730  1.00  0.00     0.036 A 
HETATM   12  C   LIG     1      17.291  35.341  23.279  1.00  0.00     0.031 A 
HETATM   13  C   LIG     1      17.325  35.157  24.664  1.00  0.00     0.026 A 
HETATM   14  C   LIG     1      17.474  36.257  25.514  1.00  0.00     0.034 A 
HETATM   15  C   LIG     1      17.597  37.542  24.976  1.00  0.00     0.026 A 
HETATM   16 CL   LIG     1      17.518  36.025  27.253  1.00  0.00    -0.084 Cl
HETATM   17  C   LIG     1      17.563  37.730  23.592  1.00  0.00     0.031 A 
ENDBRANCH   8  11
ENDBRANCH   2   5
TORSDOF 2
ENDMDL
