MODEL 1
REMARK VINA RESULT:      -7.5      0.000      0.000
REMARK  1 active torsions:
REMARK  status: ('A' for Active; 'I' for Inactive)
REMARK    1  A    between atoms: C_4  and  C_5 
ROOT
HETATM    1 CL   LIG     1      14.544  32.776  20.715  1.00  0.00    -0.084 Cl
HETATM    2  C   LIG     1      15.590  34.174  20.879  1.00  0.00     0.035 A 
HETATM    3  C   LIG     1      15.924  34.652  22.150  1.00  0.00     0.038 A 
HETATM    4  C   LIG     1      16.760  35.772  22.291  1.00  0.00    -0.001 A 
HETATM    5  C   LIG     1      17.264  36.410  21.138  1.00  0.00     0.045 A 
HETATM    6 CL   LIG     1      18.289  37.838  21.246  1.00  0.00    -0.083 Cl
HETATM    7  C   LIG     1      16.924  35.924  19.870  1.00  0.00     0.026 A 
HETATM    8  C   LIG     1      16.091  34.810  19.740  1.00  0.00     0.025 A 
ENDROOT
BRANCH   4   9
HETATM    9  C   LIG     1      17.111  36.248  23.647  1.00  0.00    -0.003 A 
HETATM   10  C   LIG     1      17.691  35.355  24.562  1.00  0.00     0.014 A 
HETATM   11  C   LIG     1      18.016  35.777  25.854  1.00  0.00     0.001 A 
HETATM   12  C   LIG     1      17.762  37.094  26.242  1.00  0.00     0.002 A 
HETATM   13  C   LIG     1      17.184  37.991  25.342  1.00  0.00     0.024 A 
HETATM   14  C   LIG     1      16.854  37.578  24.046  1.00  0.00     0.045 A 
HETATM   15 CL   LIG     1      16.160  38.756  22.935  1.00  0.00    -0.083 Cl
ENDBRANCH   4   9
TORSDOF 1
ENDMDL
MODEL 2
REMARK VINA RESULT:      -7.1      2.669      5.105
REMARK  1 active torsions:
REMARK  status: ('A' for Active; 'I' for Inactive)
REMARK    1  A    between atoms: C_4  and  C_5 
ROOT
HETATM    1 CL   LIG     1      20.854  38.564  19.389  1.00  0.00    -0.084 Cl
HETATM    2  C   LIG     1      19.392  38.351  20.334  1.00  0.00     0.035 A 
HETATM    3  C   LIG     1      18.627  37.190  20.187  1.00  0.00     0.038 A 
HETATM    4  C   LIG     1      17.454  37.011  20.938  1.00  0.00    -0.001 A 
HETATM    5  C   LIG     1      17.054  38.014  21.848  1.00  0.00     0.045 A 
HETATM    6 CL   LIG     1      15.577  37.867  22.794  1.00  0.00    -0.083 Cl
HETATM    7  C   LIG     1      17.827  39.173  21.989  1.00  0.00     0.026 A 
HETATM    8  C   LIG     1      18.992  39.341  21.235  1.00  0.00     0.025 A 
ENDROOT
BRANCH   4   9
HETATM    9  C   LIG     1      16.670  35.768  20.775  1.00  0.00    -0.003 A 
HETATM   10  C   LIG     1      16.114  35.465  19.521  1.00  0.00     0.014 A 
HETATM   11  C   LIG     1      15.356  34.304  19.346  1.00  0.00     0.001 A 
HETATM   12  C   LIG     1      15.146  33.438  20.420  1.00  0.00     0.002 A 
HETATM   13  C   LIG     1      15.693  33.729  21.672  1.00  0.00     0.024 A 
HETATM   14  C   LIG     1      16.453  34.890  21.858  1.00  0.00     0.045 A 
HETATM   15 CL   LIG     1      17.151  35.196  23.447  1.00  0.00    -0.083 Cl
ENDBRANCH   4   9
TORSDOF 1
ENDMDL
MODEL 3
REMARK VINA RESULT:      -6.8      2.597      3.404
REMARK  1 active torsions:
REMARK  status: ('A' for Active; 'I' for Inactive)
REMARK    1  A    between atoms: C_4  and  C_5 
ROOT
HETATM    1 CL   LIG     1      14.932  34.057  17.499  1.00  0.00    -0.084 Cl
HETATM    2  C   LIG     1      15.542  34.372  19.113  1.00  0.00     0.035 A 
HETATM    3  C   LIG     1      16.264  35.541  19.372  1.00  0.00     0.038 A 
HETATM    4  C   LIG     1      16.757  35.800  20.661  1.00  0.00    -0.001 A 
HETATM    5  C   LIG     1      16.514  34.872  21.696  1.00  0.00     0.045 A 
HETATM    6 CL   LIG     1      17.134  35.122  23.325  1.00  0.00    -0.083 Cl
HETATM    7  C   LIG     1      15.790  33.705  21.427  1.00  0.00     0.026 A 
HETATM    8  C   LIG     1      15.304  33.455  20.140  1.00  0.00     0.025 A 
ENDROOT
BRANCH   4   9
HETATM    9  C   LIG     1      17.506  37.051  20.913  1.00  0.00    -0.003 A 
HETATM   10  C   LIG     1      18.689  37.300  20.199  1.00  0.00     0.014 A 
HETATM   11  C   LIG     1      19.422  38.467  20.431  1.00  0.00     0.001 A 
HETATM   12  C   LIG     1      18.981  39.393  21.378  1.00  0.00     0.002 A 
HETATM   13  C   LIG     1      17.807  39.155  22.095  1.00  0.00     0.024 A 
HETATM   14  C   LIG     1      17.065  37.989  21.871  1.00  0.00     0.045 A 
HETATM   15 CL   LIG     1      15.572  37.752  22.775  1.00  0.00    -0.083 Cl
ENDBRANCH   4   9
TORSDOF 1
ENDMDL
MODEL 4
REMARK VINA RESULT:      -6.5      1.394      1.908
REMARK  1 active torsions:
REMARK  status: ('A' for Active; 'I' for Inactive)
REMARK    1  A    between atoms: C_4  and  C_5 
ROOT
HETATM    1 CL   LIG     1      14.526  33.170  21.136  1.00  0.00    -0.084 Cl
HETATM    2  C   LIG     1      15.618  34.544  21.126  1.00  0.00     0.035 A 
HETATM    3  C   LIG     1      15.877  35.239  22.310  1.00  0.00     0.038 A 
HETATM    4  C   LIG     1      16.748  36.341  22.311  1.00  0.00    -0.001 A 
HETATM    5  C   LIG     1      17.364  36.738  21.105  1.00  0.00     0.045 A 
HETATM    6 CL   LIG     1      18.439  38.131  21.033  1.00  0.00    -0.083 Cl
HETATM    7  C   LIG     1      17.098  36.036  19.924  1.00  0.00     0.026 A 
HETATM    8  C   LIG     1      16.228  34.941  19.934  1.00  0.00     0.025 A 
ENDROOT
BRANCH   4   9
HETATM    9  C   LIG     1      17.018  37.050  23.581  1.00  0.00    -0.003 A 
HETATM   10  C   LIG     1      16.930  38.452  23.618  1.00  0.00     0.014 A 
HETATM   11  C   LIG     1      17.195  39.146  24.801  1.00  0.00     0.001 A 
HETATM   12  C   LIG     1      17.553  38.447  25.955  1.00  0.00     0.002 A 
HETATM   13  C   LIG     1      17.646  37.054  25.931  1.00  0.00     0.024 A 
HETATM   14  C   LIG     1      17.382  36.349  24.750  1.00  0.00     0.045 A 
HETATM   15 CL   LIG     1      17.478  34.590  24.778  1.00  0.00    -0.083 Cl
ENDBRANCH   4   9
TORSDOF 1
ENDMDL
MODEL 5
REMARK VINA RESULT:      -6.3      2.349      4.723
REMARK  1 active torsions:
REMARK  status: ('A' for Active; 'I' for Inactive)
REMARK    1  A    between atoms: C_4  and  C_5 
ROOT
HETATM    1 CL   LIG     1      17.956  36.880  26.433  1.00  0.00    -0.084 Cl
HETATM    2  C   LIG     1      17.544  36.352  24.812  1.00  0.00     0.035 A 
HETATM    3  C   LIG     1      17.946  37.108  23.707  1.00  0.00     0.038 A 
HETATM    4  C   LIG     1      17.620  36.693  22.405  1.00  0.00    -0.001 A 
HETATM    5  C   LIG     1      16.883  35.503  22.222  1.00  0.00     0.045 A 
HETATM    6 CL   LIG     1      16.413  34.947  20.619  1.00  0.00    -0.083 Cl
HETATM    7  C   LIG     1      16.485  34.753  23.334  1.00  0.00     0.026 A 
HETATM    8  C   LIG     1      16.814  35.175  24.625  1.00  0.00     0.025 A 
ENDROOT
BRANCH   4   9
HETATM    9  C   LIG     1      18.070  37.502  21.252  1.00  0.00    -0.003 A 
HETATM   10  C   LIG     1      18.630  36.859  20.136  1.00  0.00     0.014 A 
HETATM   11  C   LIG     1      19.077  37.604  19.042  1.00  0.00     0.001 A 
HETATM   12  C   LIG     1      18.971  38.995  19.053  1.00  0.00     0.002 A 
HETATM   13  C   LIG     1      18.418  39.647  20.158  1.00  0.00     0.024 A 
HETATM   14  C   LIG     1      17.967  38.910  21.260  1.00  0.00     0.045 A 
HETATM   15 CL   LIG     1      17.245  39.775  22.614  1.00  0.00    -0.083 Cl
ENDBRANCH   4   9
TORSDOF 1
ENDMDL
MODEL 6
REMARK VINA RESULT:      -5.5     15.280     16.928
REMARK  1 active torsions:
REMARK  status: ('A' for Active; 'I' for Inactive)
REMARK    1  A    between atoms: C_4  and  C_5 
ROOT
HETATM    1 CL   LIG     1      26.127  24.056  25.341  1.00  0.00    -0.084 Cl
HETATM    2  C   LIG     1      25.090  22.788  24.713  1.00  0.00     0.035 A 
HETATM    3  C   LIG     1      24.962  22.609  23.332  1.00  0.00     0.038 A 
HETATM    4  C   LIG     1      24.133  21.597  22.821  1.00  0.00    -0.001 A 
HETATM    5  C   LIG     1      23.432  20.759  23.714  1.00  0.00     0.045 A 
HETATM    6 CL   LIG     1      22.351  19.494  23.137  1.00  0.00    -0.083 Cl
HETATM    7  C   LIG     1      23.567  20.946  25.095  1.00  0.00     0.026 A 
HETATM    8  C   LIG     1      24.393  21.956  25.593  1.00  0.00     0.025 A 
ENDROOT
BRANCH   4   9
HETATM    9  C   LIG     1      24.026  21.418  21.357  1.00  0.00    -0.003 A 
HETATM   10  C   LIG     1      24.964  20.613  20.691  1.00  0.00     0.014 A 
HETATM   11  C   LIG     1      24.894  20.442  19.306  1.00  0.00     0.001 A 
HETATM   12  C   LIG     1      23.887  21.075  18.575  1.00  0.00     0.002 A 
HETATM   13  C   LIG     1      22.949  21.880  19.225  1.00  0.00     0.024 A 
HETATM   14  C   LIG     1      23.012  22.058  20.613  1.00  0.00     0.045 A 
HETATM   15 CL   LIG     1      21.785  23.053  21.391  1.00  0.00    -0.083 Cl
ENDBRANCH   4   9
TORSDOF 1
ENDMDL
MODEL 7
REMARK VINA RESULT:      -5.5     15.147     16.344
REMARK  1 active torsions:
REMARK  status: ('A' for Active; 'I' for Inactive)
REMARK    1  A    between atoms: C_4  and  C_5 
ROOT
HETATM    1 CL   LIG     1      25.060  19.739  16.551  1.00  0.00    -0.084 Cl
HETATM    2  C   LIG     1      24.600  20.771  17.893  1.00  0.00     0.035 A 
HETATM    3  C   LIG     1      25.451  21.800  18.307  1.00  0.00     0.038 A 
HETATM    4  C   LIG     1      25.091  22.631  19.381  1.00  0.00    -0.001 A 
HETATM    5  C   LIG     1      23.860  22.419  20.038  1.00  0.00     0.045 A 
HETATM    6 CL   LIG     1      23.366  23.403  21.412  1.00  0.00    -0.083 Cl
HETATM    7  C   LIG     1      23.015  21.386  19.615  1.00  0.00     0.026 A 
HETATM    8  C   LIG     1      23.383  20.565  18.546  1.00  0.00     0.025 A 
ENDROOT
BRANCH   4   9
HETATM    9  C   LIG     1      26.002  23.722  19.790  1.00  0.00    -0.003 A 
HETATM   10  C   LIG     1      26.063  24.893  19.018  1.00  0.00     0.014 A 
HETATM   11  C   LIG     1      26.927  25.931  19.375  1.00  0.00     0.001 A 
HETATM   12  C   LIG     1      27.738  25.807  20.505  1.00  0.00     0.002 A 
HETATM   13  C   LIG     1      27.688  24.647  21.280  1.00  0.00     0.024 A 
HETATM   14  C   LIG     1      26.825  23.601  20.930  1.00  0.00     0.045 A 
HETATM   15 CL   LIG     1      26.771  22.172  21.959  1.00  0.00    -0.083 Cl
ENDBRANCH   4   9
TORSDOF 1
ENDMDL
MODEL 8
REMARK VINA RESULT:      -5.4     15.165     16.555
REMARK  1 active torsions:
REMARK  status: ('A' for Active; 'I' for Inactive)
REMARK    1  A    between atoms: C_4  and  C_5 
ROOT
HETATM    1 CL   LIG     1      27.693  27.003  18.912  1.00  0.00    -0.084 Cl
HETATM    2  C   LIG     1      27.324  25.554  19.830  1.00  0.00     0.035 A 
HETATM    3  C   LIG     1      26.368  24.650  19.355  1.00  0.00     0.038 A 
HETATM    4  C   LIG     1      26.065  23.488  20.083  1.00  0.00    -0.001 A 
HETATM    5  C   LIG     1      26.737  23.238  21.299  1.00  0.00     0.045 A 
HETATM    6 CL   LIG     1      26.379  21.817  22.275  1.00  0.00    -0.083 Cl
HETATM    7  C   LIG     1      27.692  24.148  21.765  1.00  0.00     0.026 A 
HETATM    8  C   LIG     1      27.985  25.302  21.034  1.00  0.00     0.025 A 
ENDROOT
BRANCH   4   9
HETATM    9  C   LIG     1      25.061  22.541  19.552  1.00  0.00    -0.003 A 
HETATM   10  C   LIG     1      25.387  21.742  18.443  1.00  0.00     0.014 A 
HETATM   11  C   LIG     1      24.450  20.851  17.914  1.00  0.00     0.001 A 
HETATM   12  C   LIG     1      23.180  20.753  18.485  1.00  0.00     0.002 A 
HETATM   13  C   LIG     1      22.843  21.543  19.586  1.00  0.00     0.024 A 
HETATM   14  C   LIG     1      23.775  22.438  20.124  1.00  0.00     0.045 A 
HETATM   15 CL   LIG     1      23.315  23.387  21.535  1.00  0.00    -0.083 Cl
ENDBRANCH   4   9
TORSDOF 1
ENDMDL
MODEL 9
REMARK VINA RESULT:      -5.4      6.805     10.366
REMARK  1 active torsions:
REMARK  status: ('A' for Active; 'I' for Inactive)
REMARK    1  A    between atoms: C_4  and  C_5 
ROOT
HETATM    1 CL   LIG     1      14.970  32.964  19.137  1.00  0.00    -0.084 Cl
HETATM    2  C   LIG     1      15.296  32.713  17.432  1.00  0.00     0.035 A 
HETATM    3  C   LIG     1      14.900  31.524  16.811  1.00  0.00     0.038 A 
HETATM    4  C   LIG     1      15.158  31.314  15.447  1.00  0.00    -0.001 A 
HETATM    5  C   LIG     1      15.819  32.316  14.705  1.00  0.00     0.045 A 
HETATM    6 CL   LIG     1      16.202  32.100  13.000  1.00  0.00    -0.083 Cl
HETATM    7  C   LIG     1      16.211  33.503  15.334  1.00  0.00     0.026 A 
HETATM    8  C   LIG     1      15.951  33.701  16.693  1.00  0.00     0.025 A 
ENDROOT
BRANCH   4   9
HETATM    9  C   LIG     1      14.715  30.054  14.811  1.00  0.00    -0.003 A 
HETATM   10  C   LIG     1      15.670  29.203  14.232  1.00  0.00     0.014 A 
HETATM   11  C   LIG     1      15.275  28.015  13.612  1.00  0.00     0.001 A 
HETATM   12  C   LIG     1      13.923  27.669  13.562  1.00  0.00     0.002 A 
HETATM   13  C   LIG     1      12.964  28.508  14.133  1.00  0.00     0.024 A 
HETATM   14  C   LIG     1      13.350  29.700  14.757  1.00  0.00     0.045 A 
HETATM   15 CL   LIG     1      12.106  30.708  15.493  1.00  0.00    -0.083 Cl
ENDBRANCH   4   9
TORSDOF 1
ENDMDL
MODEL 10
REMARK VINA RESULT:      -5.4     15.313     16.345
REMARK  1 active torsions:
REMARK  status: ('A' for Active; 'I' for Inactive)
REMARK    1  A    between atoms: C_4  and  C_5 
ROOT
HETATM    1 CL   LIG     1      27.462  25.693  20.223  1.00  0.00    -0.084 Cl
HETATM    2  C   LIG     1      26.349  24.440  19.708  1.00  0.00     0.035 A 
HETATM    3  C   LIG     1      25.808  23.556  20.647  1.00  0.00     0.038 A 
HETATM    4  C   LIG     1      24.917  22.548  20.244  1.00  0.00    -0.001 A 
HETATM    5  C   LIG     1      24.568  22.437  18.881  1.00  0.00     0.045 A 
HETATM    6 CL   LIG     1      23.483  21.175  18.306  1.00  0.00    -0.083 Cl
HETATM    7  C   LIG     1      25.113  23.327  17.949  1.00  0.00     0.026 A 
HETATM    8  C   LIG     1      26.000  24.325  18.360  1.00  0.00     0.025 A 
ENDROOT
BRANCH   4   9
HETATM    9  C   LIG     1      24.348  21.635  21.259  1.00  0.00    -0.003 A 
HETATM   10  C   LIG     1      25.113  20.549  21.714  1.00  0.00     0.014 A 
HETATM   11  C   LIG     1      24.592  19.663  22.660  1.00  0.00     0.001 A 
HETATM   12  C   LIG     1      23.301  19.853  23.158  1.00  0.00     0.002 A 
HETATM   13  C   LIG     1      22.530  20.929  22.712  1.00  0.00     0.024 A 
HETATM   14  C   LIG     1      23.044  21.822  21.764  1.00  0.00     0.045 A 
HETATM   15 CL   LIG     1      22.045  23.183  21.260  1.00  0.00    -0.083 Cl
ENDBRANCH   4   9
TORSDOF 1
ENDMDL
MODEL 11
REMARK VINA RESULT:      -5.4     15.222     16.499
REMARK  1 active torsions:
REMARK  status: ('A' for Active; 'I' for Inactive)
REMARK    1  A    between atoms: C_4  and  C_5 
ROOT
HETATM    1 CL   LIG     1      24.676  22.343  24.621  1.00  0.00    -0.084 Cl
HETATM    2  C   LIG     1      24.382  22.300  22.892  1.00  0.00     0.035 A 
HETATM    3  C   LIG     1      25.267  22.936  22.016  1.00  0.00     0.038 A 
HETATM    4  C   LIG     1      25.039  22.909  20.630  1.00  0.00    -0.001 A 
HETATM    5  C   LIG     1      23.908  22.230  20.128  1.00  0.00     0.045 A 
HETATM    6 CL   LIG     1      23.547  22.187  18.405  1.00  0.00    -0.083 Cl
HETATM    7  C   LIG     1      23.027  21.596  21.013  1.00  0.00     0.026 A 
HETATM    8  C   LIG     1      23.263  21.630  22.390  1.00  0.00     0.025 A 
ENDROOT
BRANCH   4   9
HETATM    9  C   LIG     1      25.998  23.576  19.724  1.00  0.00    -0.003 A 
HETATM   10  C   LIG     1      25.984  24.977  19.618  1.00  0.00     0.014 A 
HETATM   11  C   LIG     1      26.870  25.629  18.757  1.00  0.00     0.001 A 
HETATM   12  C   LIG     1      27.775  24.889  17.993  1.00  0.00     0.002 A 
HETATM   13  C   LIG     1      27.797  23.496  18.089  1.00  0.00     0.024 A 
HETATM   14  C   LIG     1      26.913  22.833  18.949  1.00  0.00     0.045 A 
HETATM   15 CL   LIG     1      27.004  21.077  19.061  1.00  0.00    -0.083 Cl
ENDBRANCH   4   9
TORSDOF 1
ENDMDL
MODEL 12
REMARK VINA RESULT:      -5.4     15.307     16.578
REMARK  1 active torsions:
REMARK  status: ('A' for Active; 'I' for Inactive)
REMARK    1  A    between atoms: C_4  and  C_5 
ROOT
HETATM    1 CL   LIG     1      26.113  19.492  18.419  1.00  0.00    -0.084 Cl
HETATM    2  C   LIG     1      24.914  20.477  19.236  1.00  0.00     0.035 A 
HETATM    3  C   LIG     1      24.990  20.667  20.620  1.00  0.00     0.038 A 
HETATM    4  C   LIG     1      24.034  21.454  21.283  1.00  0.00    -0.001 A 
HETATM    5  C   LIG     1      22.995  22.054  20.540  1.00  0.00     0.045 A 
HETATM    6 CL   LIG     1      21.746  23.022  21.316  1.00  0.00    -0.083 Cl
HETATM    7  C   LIG     1      22.927  21.858  19.155  1.00  0.00     0.026 A 
HETATM    8  C   LIG     1      23.883  21.073  18.505  1.00  0.00     0.025 A 
ENDROOT
BRANCH   4   9
HETATM    9  C   LIG     1      24.146  21.651  22.744  1.00  0.00    -0.003 A 
HETATM   10  C   LIG     1      24.928  22.708  23.238  1.00  0.00     0.014 A 
HETATM   11  C   LIG     1      25.061  22.906  24.615  1.00  0.00     0.001 A 
HETATM   12  C   LIG     1      24.417  22.049  25.509  1.00  0.00     0.002 A 
HETATM   13  C   LIG     1      23.638  20.993  25.030  1.00  0.00     0.024 A 
HETATM   14  C   LIG     1      23.498  20.787  23.652  1.00  0.00     0.045 A 
HETATM   15 CL   LIG     1      22.476  19.464  23.097  1.00  0.00    -0.083 Cl
ENDBRANCH   4   9
TORSDOF 1
ENDMDL
MODEL 13
REMARK VINA RESULT:      -5.4      2.494      5.400
REMARK  1 active torsions:
REMARK  status: ('A' for Active; 'I' for Inactive)
REMARK    1  A    between atoms: C_4  and  C_5 
ROOT
HETATM    1 CL   LIG     1      19.219  36.675  26.508  1.00  0.00    -0.084 Cl
HETATM    2  C   LIG     1      18.204  37.360  25.252  1.00  0.00     0.035 A 
HETATM    3  C   LIG     1      18.677  37.445  23.939  1.00  0.00     0.038 A 
HETATM    4  C   LIG     1      17.872  37.993  22.928  1.00  0.00    -0.001 A 
HETATM    5  C   LIG     1      16.577  38.456  23.247  1.00  0.00     0.045 A 
HETATM    6 CL   LIG     1      15.532  39.185  22.033  1.00  0.00    -0.083 Cl
HETATM    7  C   LIG     1      16.113  38.367  24.565  1.00  0.00     0.026 A 
HETATM    8  C   LIG     1      16.922  37.820  25.564  1.00  0.00     0.025 A 
ENDROOT
BRANCH   4   9
HETATM    9  C   LIG     1      18.390  38.058  21.544  1.00  0.00    -0.003 A 
HETATM   10  C   LIG     1      19.131  39.180  21.138  1.00  0.00     0.014 A 
HETATM   11  C   LIG     1      19.617  39.272  19.831  1.00  0.00     0.001 A 
HETATM   12  C   LIG     1      19.366  38.245  18.919  1.00  0.00     0.002 A 
HETATM   13  C   LIG     1      18.629  37.125  19.310  1.00  0.00     0.024 A 
HETATM   14  C   LIG     1      18.137  37.024  20.617  1.00  0.00     0.045 A 
HETATM   15 CL   LIG     1      17.244  35.576  21.073  1.00  0.00    -0.083 Cl
ENDBRANCH   4   9
TORSDOF 1
ENDMDL
MODEL 14
REMARK VINA RESULT:      -5.3     15.273     17.021
REMARK  1 active torsions:
REMARK  status: ('A' for Active; 'I' for Inactive)
REMARK    1  A    between atoms: C_4  and  C_5 
ROOT
HETATM    1 CL   LIG     1      25.858  24.159  26.122  1.00  0.00    -0.084 Cl
HETATM    2  C   LIG     1      24.899  22.858  25.440  1.00  0.00     0.035 A 
HETATM    3  C   LIG     1      24.683  22.799  24.060  1.00  0.00     0.038 A 
HETATM    4  C   LIG     1      23.916  21.762  23.505  1.00  0.00    -0.001 A 
HETATM    5  C   LIG     1      23.366  20.776  24.353  1.00  0.00     0.045 A 
HETATM    6 CL   LIG     1      22.367  19.470  23.724  1.00  0.00    -0.083 Cl
HETATM    7  C   LIG     1      23.588  20.845  25.733  1.00  0.00     0.026 A 
HETATM    8  C   LIG     1      24.353  21.882  26.275  1.00  0.00     0.025 A 
ENDROOT
BRANCH   4   9
HETATM    9  C   LIG     1      23.714  21.713  22.040  1.00  0.00    -0.003 A 
HETATM   10  C   LIG     1      22.646  22.422  21.469  1.00  0.00     0.014 A 
HETATM   11  C   LIG     1      22.425  22.378  20.090  1.00  0.00     0.001 A 
HETATM   12  C   LIG     1      23.268  21.625  19.271  1.00  0.00     0.002 A 
HETATM   13  C   LIG     1      24.333  20.914  19.828  1.00  0.00     0.024 A 
HETATM   14  C   LIG     1      24.563  20.951  21.209  1.00  0.00     0.045 A 
HETATM   15 CL   LIG     1      25.940  20.066  21.859  1.00  0.00    -0.083 Cl
ENDBRANCH   4   9
TORSDOF 1
ENDMDL
MODEL 15
REMARK VINA RESULT:      -5.3     14.883     16.282
REMARK  1 active torsions:
REMARK  status: ('A' for Active; 'I' for Inactive)
REMARK    1  A    between atoms: C_4  and  C_5 
ROOT
HETATM    1 CL   LIG     1      27.925  27.143  18.657  1.00  0.00    -0.084 Cl
HETATM    2  C   LIG     1      27.666  25.774  19.723  1.00  0.00     0.035 A 
HETATM    3  C   LIG     1      26.461  25.067  19.672  1.00  0.00     0.038 A 
HETATM    4  C   LIG     1      26.244  23.971  20.523  1.00  0.00    -0.001 A 
HETATM    5  C   LIG     1      27.255  23.586  21.429  1.00  0.00     0.045 A 
HETATM    6 CL   LIG     1      27.033  22.243  22.545  1.00  0.00    -0.083 Cl
HETATM    7  C   LIG     1      28.459  24.300  21.472  1.00  0.00     0.026 A 
HETATM    8  C   LIG     1      28.664  25.390  20.621  1.00  0.00     0.025 A 
ENDROOT
BRANCH   4   9
HETATM    9  C   LIG     1      24.966  23.230  20.440  1.00  0.00    -0.003 A 
HETATM   10  C   LIG     1      23.965  23.475  21.394  1.00  0.00     0.014 A 
HETATM   11  C   LIG     1      22.756  22.776  21.346  1.00  0.00     0.001 A 
HETATM   12  C   LIG     1      22.538  21.827  20.346  1.00  0.00     0.002 A 
HETATM   13  C   LIG     1      23.526  21.574  19.392  1.00  0.00     0.024 A 
HETATM   14  C   LIG     1      24.741  22.268  19.432  1.00  0.00     0.045 A 
HETATM   15 CL   LIG     1      25.942  21.939  18.186  1.00  0.00    -0.083 Cl
ENDBRANCH   4   9
TORSDOF 1
ENDMDL
MODEL 16
REMARK VINA RESULT:      -5.2     15.038     15.925
REMARK  1 active torsions:
REMARK  status: ('A' for Active; 'I' for Inactive)
REMARK    1  A    between atoms: C_4  and  C_5 
ROOT
HETATM    1 CL   LIG     1      21.682  22.689  21.337  1.00  0.00    -0.084 Cl
HETATM    2  C   LIG     1      23.230  22.520  20.530  1.00  0.00     0.035 A 
HETATM    3  C   LIG     1      24.347  23.211  21.010  1.00  0.00     0.038 A 
HETATM    4  C   LIG     1      25.591  23.083  20.369  1.00  0.00    -0.001 A 
HETATM    5  C   LIG     1      25.704  22.247  19.238  1.00  0.00     0.045 A 
HETATM    6 CL   LIG     1      27.226  22.070  18.370  1.00  0.00    -0.083 Cl
HETATM    7  C   LIG     1      24.580  21.559  18.766  1.00  0.00     0.026 A 
HETATM    8  C   LIG     1      23.347  21.694  19.410  1.00  0.00     0.025 A 
ENDROOT
BRANCH   4   9
HETATM    9  C   LIG     1      26.760  23.813  20.904  1.00  0.00    -0.003 A 
HETATM   10  C   LIG     1      27.486  23.262  21.973  1.00  0.00     0.014 A 
HETATM   11  C   LIG     1      28.585  23.940  22.506  1.00  0.00     0.001 A 
HETATM   12  C   LIG     1      28.967  25.175  21.979  1.00  0.00     0.002 A 
HETATM   13  C   LIG     1      28.252  25.734  20.917  1.00  0.00     0.024 A 
HETATM   14  C   LIG     1      27.149  25.062  20.376  1.00  0.00     0.045 A 
HETATM   15 CL   LIG     1      26.302  25.792  19.014  1.00  0.00    -0.083 Cl
ENDBRANCH   4   9
TORSDOF 1
ENDMDL
MODEL 17
REMARK VINA RESULT:      -5.2     16.012     17.843
REMARK  1 active torsions:
REMARK  status: ('A' for Active; 'I' for Inactive)
REMARK    1  A    between atoms: C_4  and  C_5 
ROOT
HETATM    1 CL   LIG     1      28.071  22.552  17.963  1.00  0.00    -0.084 Cl
HETATM    2  C   LIG     1      26.543  22.493  18.823  1.00  0.00     0.035 A 
HETATM    3  C   LIG     1      25.655  21.437  18.598  1.00  0.00     0.038 A 
HETATM    4  C   LIG     1      24.428  21.382  19.281  1.00  0.00    -0.001 A 
HETATM    5  C   LIG     1      24.101  22.402  20.200  1.00  0.00     0.045 A 
HETATM    6 CL   LIG     1      22.566  22.410  21.062  1.00  0.00    -0.083 Cl
HETATM    7  C   LIG     1      24.997  23.455  20.418  1.00  0.00     0.026 A 
HETATM    8  C   LIG     1      26.214  23.501  19.733  1.00  0.00     0.025 A 
ENDROOT
BRANCH   4   9
HETATM    9  C   LIG     1      23.513  20.247  19.037  1.00  0.00    -0.003 A 
HETATM   10  C   LIG     1      22.780  20.198  17.840  1.00  0.00     0.014 A 
HETATM   11  C   LIG     1      21.897  19.144  17.593  1.00  0.00     0.001 A 
HETATM   12  C   LIG     1      21.736  18.131  18.540  1.00  0.00     0.002 A 
HETATM   13  C   LIG     1      22.458  18.169  19.736  1.00  0.00     0.024 A 
HETATM   14  C   LIG     1      23.346  19.221  19.992  1.00  0.00     0.045 A 
HETATM   15 CL   LIG     1      24.259  19.206  21.498  1.00  0.00    -0.083 Cl
ENDBRANCH   4   9
TORSDOF 1
ENDMDL
MODEL 18
REMARK VINA RESULT:      -5.2     15.693     16.894
REMARK  1 active torsions:
REMARK  status: ('A' for Active; 'I' for Inactive)
REMARK    1  A    between atoms: C_4  and  C_5 
ROOT
HETATM    1 CL   LIG     1      29.214  20.823  16.527  1.00  0.00    -0.084 Cl
HETATM    2  C   LIG     1      28.268  22.155  17.166  1.00  0.00     0.035 A 
HETATM    3  C   LIG     1      27.122  21.898  17.926  1.00  0.00     0.038 A 
HETATM    4  C   LIG     1      26.358  22.958  18.440  1.00  0.00    -0.001 A 
HETATM    5  C   LIG     1      26.758  24.287  18.186  1.00  0.00     0.045 A 
HETATM    6 CL   LIG     1      25.825  25.660  18.774  1.00  0.00    -0.083 Cl
HETATM    7  C   LIG     1      27.907  24.534  17.425  1.00  0.00     0.026 A 
HETATM    8  C   LIG     1      28.660  23.472  16.917  1.00  0.00     0.025 A 
ENDROOT
BRANCH   4   9
HETATM    9  C   LIG     1      25.159  22.659  19.253  1.00  0.00    -0.003 A 
HETATM   10  C   LIG     1      23.985  22.228  18.615  1.00  0.00     0.014 A 
HETATM   11  C   LIG     1      22.835  21.955  19.360  1.00  0.00     0.001 A 
HETATM   12  C   LIG     1      22.847  22.112  20.746  1.00  0.00     0.002 A 
HETATM   13  C   LIG     1      24.008  22.542  21.393  1.00  0.00     0.024 A 
HETATM   14  C   LIG     1      25.166  22.818  20.655  1.00  0.00     0.045 A 
HETATM   15 CL   LIG     1      26.615  23.324  21.519  1.00  0.00    -0.083 Cl
ENDBRANCH   4   9
TORSDOF 1
ENDMDL
MODEL 19
REMARK VINA RESULT:      -5.1     15.580     16.722
REMARK  1 active torsions:
REMARK  status: ('A' for Active; 'I' for Inactive)
REMARK    1  A    between atoms: C_4  and  C_5 
ROOT
HETATM    1 CL   LIG     1      28.865  20.672  16.808  1.00  0.00    -0.084 Cl
HETATM    2  C   LIG     1      28.040  22.061  17.493  1.00  0.00     0.035 A 
HETATM    3  C   LIG     1      27.052  21.878  18.465  1.00  0.00     0.038 A 
HETATM    4  C   LIG     1      26.386  22.984  19.018  1.00  0.00    -0.001 A 
HETATM    5  C   LIG     1      26.726  24.284  18.586  1.00  0.00     0.045 A 
HETATM    6 CL   LIG     1      25.905  25.709  19.215  1.00  0.00    -0.083 Cl
HETATM    7  C   LIG     1      27.717  24.457  17.614  1.00  0.00     0.026 A 
HETATM    8  C   LIG     1      28.373  23.349  17.069  1.00  0.00     0.025 A 
ENDROOT
BRANCH   4   9
HETATM    9  C   LIG     1      25.354  22.764  20.055  1.00  0.00    -0.003 A 
HETATM   10  C   LIG     1      25.681  22.968  21.405  1.00  0.00     0.014 A 
HETATM   11  C   LIG     1      24.728  22.752  22.404  1.00  0.00     0.001 A 
HETATM   12  C   LIG     1      23.442  22.329  22.063  1.00  0.00     0.002 A 
HETATM   13  C   LIG     1      23.106  22.121  20.723  1.00  0.00     0.024 A 
HETATM   14  C   LIG     1      24.053  22.335  19.715  1.00  0.00     0.045 A 
HETATM   15 CL   LIG     1      23.570  22.094  18.038  1.00  0.00    -0.083 Cl
ENDBRANCH   4   9
TORSDOF 1
ENDMDL
MODEL 20
REMARK VINA RESULT:      -5.0     15.061     16.242
REMARK  1 active torsions:
REMARK  status: ('A' for Active; 'I' for Inactive)
REMARK    1  A    between atoms: C_4  and  C_5 
ROOT
HETATM    1 CL   LIG     1      21.955  22.744  20.835  1.00  0.00    -0.084 Cl
HETATM    2  C   LIG     1      22.943  22.029  22.096  1.00  0.00     0.035 A 
HETATM    3  C   LIG     1      23.910  22.800  22.747  1.00  0.00     0.038 A 
HETATM    4  C   LIG     1      24.707  22.235  23.757  1.00  0.00    -0.001 A 
HETATM    5  C   LIG     1      24.519  20.882  24.112  1.00  0.00     0.045 A 
HETATM    6 CL   LIG     1      25.507  20.106  25.346  1.00  0.00    -0.083 Cl
HETATM    7  C   LIG     1      23.547  20.119  23.455  1.00  0.00     0.026 A 
HETATM    8  C   LIG     1      22.761  20.690  22.450  1.00  0.00     0.025 A 
ENDROOT
BRANCH   4   9
HETATM    9  C   LIG     1      25.713  23.075  24.441  1.00  0.00    -0.003 A 
HETATM   10  C   LIG     1      25.372  23.720  25.642  1.00  0.00     0.014 A 
HETATM   11  C   LIG     1      26.301  24.531  26.298  1.00  0.00     0.001 A 
HETATM   12  C   LIG     1      27.577  24.708  25.760  1.00  0.00     0.002 A 
HETATM   13  C   LIG     1      27.928  24.074  24.566  1.00  0.00     0.024 A 
HETATM   14  C   LIG     1      27.004  23.259  23.901  1.00  0.00     0.045 A 
HETATM   15 CL   LIG     1      27.506  22.453  22.417  1.00  0.00    -0.083 Cl
ENDBRANCH   4   9
TORSDOF 1
ENDMDL
