REMARK  1 active torsions:
REMARK  status: ('A' for Active; 'I' for Inactive)
REMARK    1  A    between atoms: C_4  and  C_5 
ROOT
HETATM    1 CL   LIG     1       3.850  -2.206   1.148  1.00  0.00    -0.084 Cl
HETATM    2  C   LIG     1       2.892  -0.894   0.486  1.00  0.00     0.035 A 
HETATM    3  C   LIG     1       1.496  -0.972   0.499  1.00  0.00     0.038 A 
HETATM    4  C   LIG     1       0.721   0.073  -0.030  1.00  0.00    -0.001 A 
HETATM    5  C   LIG     1       1.364   1.206  -0.573  1.00  0.00     0.045 A 
HETATM    6 CL   LIG     1       0.451   2.534  -1.282  1.00  0.00    -0.083 Cl
HETATM    7  C   LIG     1       2.762   1.275  -0.581  1.00  0.00     0.026 A 
HETATM    8  C   LIG     1       3.524   0.229  -0.053  1.00  0.00     0.025 A 
ENDROOT
BRANCH   4   9
HETATM    9  C   LIG     1      -0.754  -0.027   0.009  1.00  0.00    -0.003 A 
HETATM   10  C   LIG     1      -1.481   0.840   0.841  1.00  0.00     0.014 A 
HETATM   11  C   LIG     1      -2.874   0.754   0.907  1.00  0.00     0.001 A 
HETATM   12  C   LIG     1      -3.552  -0.199   0.145  1.00  0.00     0.002 A 
HETATM   13  C   LIG     1      -2.840  -1.068  -0.685  1.00  0.00     0.024 A 
HETATM   14  C   LIG     1      -1.444  -0.990  -0.758  1.00  0.00     0.045 A 
HETATM   15 CL   LIG     1      -0.594  -2.084  -1.846  1.00  0.00    -0.083 Cl
ENDBRANCH   4   9
TORSDOF 1
