REMARK  5 active torsions:
REMARK  status: ('A' for Active; 'I' for Inactive)
REMARK    1  A    between atoms: C_2  and  C_10 
REMARK       I    between atoms: C_2  and  N_3 
REMARK    2  A    between atoms: N_3  and  C_4 
REMARK    3  A    between atoms: N_3  and  C_7 
REMARK    4  A    between atoms: C_4  and  C_5 
REMARK    5  A    between atoms: C_7  and  C_8 
ROOT
HETATM    1  O   LIG     1      -0.540  -2.243  -0.795  1.00  0.00    -0.270 OA
HETATM    2  C   LIG     1      -0.983  -1.140  -0.369  1.00  0.00     0.253 C 
HETATM    3  N   LIG     1      -0.048  -0.106   0.028  1.00  0.00    -0.343 N 
ENDROOT
BRANCH   3   4
HETATM    4  C   LIG     1      -0.492   1.186   0.570  1.00  0.00     0.152 C 
BRANCH   4   5
HETATM    5  C   LIG     1      -0.757   2.151  -0.554  1.00  0.00    -0.017 C 
HETATM    6  C   LIG     1      -0.058   3.281  -0.694  1.00  0.00     0.008 C 
ENDBRANCH   4   5
ENDBRANCH   3   4
BRANCH   3   7
HETATM    7  C   LIG     1       1.392  -0.322  -0.171  1.00  0.00     0.152 C 
BRANCH   7   8
HETATM    8  C   LIG     1       1.921  -1.261   0.877  1.00  0.00    -0.017 C 
HETATM    9  C   LIG     1       2.504  -2.420   0.560  1.00  0.00     0.008 C 
ENDBRANCH   7   8
ENDBRANCH   3   7
BRANCH   2  10
HETATM   10  C   LIG     1      -2.474  -0.977  -0.220  1.00  0.00     0.270 C 
HETATM   11 CL   LIG     1      -3.357  -1.953  -1.426  1.00  0.00    -0.098 Cl
HETATM   12 CL   LIG     1      -2.966  -1.491   1.412  1.00  0.00    -0.098 Cl
ENDBRANCH   2  10
TORSDOF 5
