MODEL 1
REMARK VINA RESULT:      -5.8      0.000      0.000
REMARK  5 active torsions:
REMARK  status: ('A' for Active; 'I' for Inactive)
REMARK    1  A    between atoms: C_2  and  C_10 
REMARK       I    between atoms: C_2  and  N_3 
REMARK    2  A    between atoms: N_3  and  C_4 
REMARK    3  A    between atoms: N_3  and  C_7 
REMARK    4  A    between atoms: C_4  and  C_5 
REMARK    5  A    between atoms: C_7  and  C_8 
ROOT
HETATM    1  O   LIG     1      16.793  35.176  23.409  1.00  0.00    -0.270 OA
HETATM    2  C   LIG     1      16.814  36.201  22.672  1.00  0.00     0.253 C 
HETATM    3  N   LIG     1      16.826  37.515  23.285  1.00  0.00    -0.343 N 
ENDROOT
BRANCH   3   4
HETATM    4  C   LIG     1      16.810  38.751  22.490  1.00  0.00     0.152 C 
BRANCH   4   5
HETATM    5  C   LIG     1      18.217  39.226  22.249  1.00  0.00    -0.017 C 
HETATM    6  C   LIG     1      18.660  39.530  21.026  1.00  0.00     0.008 C 
ENDBRANCH   4   5
ENDBRANCH   3   4
BRANCH   3   7
HETATM    7  C   LIG     1      16.920  37.626  24.747  1.00  0.00     0.152 C 
BRANCH   7   8
HETATM    8  C   LIG     1      18.317  37.302  25.199  1.00  0.00    -0.017 C 
HETATM    9  C   LIG     1      18.556  36.556  26.281  1.00  0.00     0.008 C 
ENDBRANCH   7   8
ENDBRANCH   3   7
BRANCH   2  10
HETATM   10  C   LIG     1      16.747  36.011  21.178  1.00  0.00     0.270 C 
HETATM   11 CL   LIG     1      18.353  36.213  20.426  1.00  0.00    -0.098 Cl
HETATM   12 CL   LIG     1      16.139  34.377  20.816  1.00  0.00    -0.098 Cl
ENDBRANCH   2  10
TORSDOF 5
ENDMDL
MODEL 2
REMARK VINA RESULT:      -5.7      2.515      4.162
REMARK  5 active torsions:
REMARK  status: ('A' for Active; 'I' for Inactive)
REMARK    1  A    between atoms: C_2  and  C_10 
REMARK       I    between atoms: C_2  and  N_3 
REMARK    2  A    between atoms: N_3  and  C_4 
REMARK    3  A    between atoms: N_3  and  C_7 
REMARK    4  A    between atoms: C_4  and  C_5 
REMARK    5  A    between atoms: C_7  and  C_8 
ROOT
HETATM    1  O   LIG     1      18.401  36.417  19.989  1.00  0.00    -0.270 OA
HETATM    2  C   LIG     1      17.913  37.149  20.895  1.00  0.00     0.253 C 
HETATM    3  N   LIG     1      17.084  36.548  21.922  1.00  0.00    -0.343 N 
ENDROOT
BRANCH   3   4
HETATM    4  C   LIG     1      16.451  37.345  22.982  1.00  0.00     0.152 C 
BRANCH   4   5
HETATM    5  C   LIG     1      17.098  37.042  24.307  1.00  0.00    -0.017 C 
HETATM    6  C   LIG     1      17.290  37.988  25.231  1.00  0.00     0.008 C 
ENDBRANCH   4   5
ENDBRANCH   3   4
BRANCH   3   7
HETATM    7  C   LIG     1      16.914  35.089  21.948  1.00  0.00     0.152 C 
BRANCH   7   8
HETATM    8  C   LIG     1      15.637  34.706  21.255  1.00  0.00    -0.017 C 
HETATM    9  C   LIG     1      15.585  33.714  20.362  1.00  0.00     0.008 C 
ENDBRANCH   7   8
ENDBRANCH   3   7
BRANCH   2  10
HETATM   10  C   LIG     1      18.153  38.635  20.822  1.00  0.00     0.270 C 
HETATM   11 CL   LIG     1      19.152  39.198  22.190  1.00  0.00    -0.098 Cl
HETATM   12 CL   LIG     1      18.987  39.026  19.298  1.00  0.00    -0.098 Cl
ENDBRANCH   2  10
TORSDOF 5
ENDMDL
MODEL 3
REMARK VINA RESULT:      -5.6      1.855      3.952
REMARK  5 active torsions:
REMARK  status: ('A' for Active; 'I' for Inactive)
REMARK    1  A    between atoms: C_2  and  C_10 
REMARK       I    between atoms: C_2  and  N_3 
REMARK    2  A    between atoms: N_3  and  C_4 
REMARK    3  A    between atoms: N_3  and  C_7 
REMARK    4  A    between atoms: C_4  and  C_5 
REMARK    5  A    between atoms: C_7  and  C_8 
ROOT
HETATM    1  O   LIG     1      18.295  36.199  20.046  1.00  0.00    -0.270 OA
HETATM    2  C   LIG     1      17.604  36.757  20.944  1.00  0.00     0.253 C 
HETATM    3  N   LIG     1      18.014  38.051  21.452  1.00  0.00    -0.343 N 
ENDROOT
BRANCH   3   4
HETATM    4  C   LIG     1      17.281  38.740  22.523  1.00  0.00     0.152 C 
BRANCH   4   5
HETATM    5  C   LIG     1      17.922  38.449  23.854  1.00  0.00    -0.017 C 
HETATM    6  C   LIG     1      17.214  38.009  24.897  1.00  0.00     0.008 C 
ENDBRANCH   4   5
ENDBRANCH   3   4
BRANCH   3   7
HETATM    7  C   LIG     1      19.163  38.734  20.841  1.00  0.00     0.152 C 
BRANCH   7   8
HETATM    8  C   LIG     1      18.723  39.484  19.615  1.00  0.00    -0.017 C 
HETATM    9  C   LIG     1      19.073  39.099  18.385  1.00  0.00     0.008 C 
ENDBRANCH   7   8
ENDBRANCH   3   7
BRANCH   2  10
HETATM   10  C   LIG     1      16.420  36.011  21.503  1.00  0.00     0.270 C 
HETATM   11 CL   LIG     1      15.672  34.962  20.268  1.00  0.00    -0.098 Cl
HETATM   12 CL   LIG     1      16.947  35.005  22.874  1.00  0.00    -0.098 Cl
ENDBRANCH   2  10
TORSDOF 5
ENDMDL
MODEL 4
REMARK VINA RESULT:      -5.6      1.850      3.082
REMARK  5 active torsions:
REMARK  status: ('A' for Active; 'I' for Inactive)
REMARK    1  A    between atoms: C_2  and  C_10 
REMARK       I    between atoms: C_2  and  N_3 
REMARK    2  A    between atoms: N_3  and  C_4 
REMARK    3  A    between atoms: N_3  and  C_7 
REMARK    4  A    between atoms: C_4  and  C_5 
REMARK    5  A    between atoms: C_7  and  C_8 
ROOT
HETATM    1  O   LIG     1      18.755  38.835  22.877  1.00  0.00    -0.270 OA
HETATM    2  C   LIG     1      17.903  38.210  22.186  1.00  0.00     0.253 C 
HETATM    3  N   LIG     1      16.861  37.457  22.855  1.00  0.00    -0.343 N 
ENDROOT
BRANCH   3   4
HETATM    4  C   LIG     1      15.861  36.675  22.115  1.00  0.00     0.152 C 
BRANCH   4   5
HETATM    5  C   LIG     1      16.292  35.235  22.034  1.00  0.00    -0.017 C 
HETATM    6  C   LIG     1      16.028  34.478  20.966  1.00  0.00     0.008 C 
ENDBRANCH   4   5
ENDBRANCH   3   4
BRANCH   3   7
HETATM    7  C   LIG     1      16.752  37.522  24.319  1.00  0.00     0.152 C 
BRANCH   7   8
HETATM    8  C   LIG     1      17.583  36.436  24.945  1.00  0.00    -0.017 C 
HETATM    9  C   LIG     1      18.321  36.650  26.037  1.00  0.00     0.008 C 
ENDBRANCH   7   8
ENDBRANCH   3   7
BRANCH   2  10
HETATM   10  C   LIG     1      18.057  38.213  20.686  1.00  0.00     0.270 C 
HETATM   11 CL   LIG     1      19.070  39.579  20.141  1.00  0.00    -0.098 Cl
HETATM   12 CL   LIG     1      18.815  36.688  20.166  1.00  0.00    -0.098 Cl
ENDBRANCH   2  10
TORSDOF 5
ENDMDL
MODEL 5
REMARK VINA RESULT:      -5.5      2.784      4.224
REMARK  5 active torsions:
REMARK  status: ('A' for Active; 'I' for Inactive)
REMARK    1  A    between atoms: C_2  and  C_10 
REMARK       I    between atoms: C_2  and  N_3 
REMARK    2  A    between atoms: N_3  and  C_4 
REMARK    3  A    between atoms: N_3  and  C_7 
REMARK    4  A    between atoms: C_4  and  C_5 
REMARK    5  A    between atoms: C_7  and  C_8 
ROOT
HETATM    1  O   LIG     1      15.253  37.748  23.231  1.00  0.00    -0.270 OA
HETATM    2  C   LIG     1      16.360  37.380  22.747  1.00  0.00     0.253 C 
HETATM    3  N   LIG     1      16.383  36.336  21.743  1.00  0.00    -0.343 N 
ENDROOT
BRANCH   3   4
HETATM    4  C   LIG     1      17.637  35.831  21.166  1.00  0.00     0.152 C 
BRANCH   4   5
HETATM    5  C   LIG     1      17.970  36.594  19.912  1.00  0.00    -0.017 C 
HETATM    6  C   LIG     1      19.228  36.913  19.594  1.00  0.00     0.008 C 
ENDBRANCH   4   5
ENDBRANCH   3   4
BRANCH   3   7
HETATM    7  C   LIG     1      15.113  35.800  21.231  1.00  0.00     0.152 C 
BRANCH   7   8
HETATM    8  C   LIG     1      15.097  34.303  21.362  1.00  0.00    -0.017 C 
HETATM    9  C   LIG     1      15.369  33.499  20.331  1.00  0.00     0.008 C 
ENDBRANCH   7   8
ENDBRANCH   3   7
BRANCH   2  10
HETATM   10  C   LIG     1      17.621  37.995  23.298  1.00  0.00     0.270 C 
HETATM   11 CL   LIG     1      18.149  39.385  22.310  1.00  0.00    -0.098 Cl
HETATM   12 CL   LIG     1      17.332  38.548  24.965  1.00  0.00    -0.098 Cl
ENDBRANCH   2  10
TORSDOF 5
ENDMDL
MODEL 6
REMARK VINA RESULT:      -5.4      2.629      3.786
REMARK  5 active torsions:
REMARK  status: ('A' for Active; 'I' for Inactive)
REMARK    1  A    between atoms: C_2  and  C_10 
REMARK       I    between atoms: C_2  and  N_3 
REMARK    2  A    between atoms: N_3  and  C_4 
REMARK    3  A    between atoms: N_3  and  C_7 
REMARK    4  A    between atoms: C_4  and  C_5 
REMARK    5  A    between atoms: C_7  and  C_8 
ROOT
HETATM    1  O   LIG     1      17.003  35.293  24.259  1.00  0.00    -0.270 OA
HETATM    2  C   LIG     1      17.234  36.530  24.156  1.00  0.00     0.253 C 
HETATM    3  N   LIG     1      16.729  37.252  23.005  1.00  0.00    -0.343 N 
ENDROOT
BRANCH   3   4
HETATM    4  C   LIG     1      16.993  38.683  22.800  1.00  0.00     0.152 C 
BRANCH   4   5
HETATM    5  C   LIG     1      18.330  38.868  22.133  1.00  0.00    -0.017 C 
HETATM    6  C   LIG     1      18.441  39.057  20.815  1.00  0.00     0.008 C 
ENDBRANCH   4   5
ENDBRANCH   3   4
BRANCH   3   7
HETATM    7  C   LIG     1      15.871  36.554  22.037  1.00  0.00     0.152 C 
BRANCH   7   8
HETATM    8  C   LIG     1      16.699  35.626  21.192  1.00  0.00    -0.017 C 
HETATM    9  C   LIG     1      16.245  34.433  20.798  1.00  0.00     0.008 C 
ENDBRANCH   7   8
ENDBRANCH   3   7
BRANCH   2  10
HETATM   10  C   LIG     1      18.096  37.187  25.203  1.00  0.00     0.270 C 
HETATM   11 CL   LIG     1      17.244  38.548  25.984  1.00  0.00    -0.098 Cl
HETATM   12 CL   LIG     1      18.534  35.990  26.447  1.00  0.00    -0.098 Cl
ENDBRANCH   2  10
TORSDOF 5
ENDMDL
MODEL 7
REMARK VINA RESULT:      -4.9      7.363      9.364
REMARK  5 active torsions:
REMARK  status: ('A' for Active; 'I' for Inactive)
REMARK    1  A    between atoms: C_2  and  C_10 
REMARK       I    between atoms: C_2  and  N_3 
REMARK    2  A    between atoms: N_3  and  C_4 
REMARK    3  A    between atoms: N_3  and  C_7 
REMARK    4  A    between atoms: C_4  and  C_5 
REMARK    5  A    between atoms: C_7  and  C_8 
ROOT
HETATM    1  O   LIG     1      16.021  34.288  16.242  1.00  0.00    -0.270 OA
HETATM    2  C   LIG     1      15.982  33.149  15.697  1.00  0.00     0.253 C 
HETATM    3  N   LIG     1      15.066  32.149  16.209  1.00  0.00    -0.343 N 
ENDROOT
BRANCH   3   4
HETATM    4  C   LIG     1      14.995  30.792  15.650  1.00  0.00     0.152 C 
BRANCH   4   5
HETATM    5  C   LIG     1      13.568  30.444  15.325  1.00  0.00    -0.017 C 
HETATM    6  C   LIG     1      13.258  29.508  14.423  1.00  0.00     0.008 C 
ENDBRANCH   4   5
ENDBRANCH   3   4
BRANCH   3   7
HETATM    7  C   LIG     1      14.128  32.513  17.281  1.00  0.00     0.152 C 
BRANCH   7   8
HETATM    8  C   LIG     1      14.540  31.856  18.569  1.00  0.00    -0.017 C 
HETATM    9  C   LIG     1      15.291  32.486  19.476  1.00  0.00     0.008 C 
ENDBRANCH   7   8
ENDBRANCH   3   7
BRANCH   2  10
HETATM   10  C   LIG     1      16.952  32.856  14.582  1.00  0.00     0.270 C 
HETATM   11 CL   LIG     1      16.105  32.273  13.122  1.00  0.00    -0.098 Cl
HETATM   12 CL   LIG     1      17.852  34.337  14.175  1.00  0.00    -0.098 Cl
ENDBRANCH   2  10
TORSDOF 5
ENDMDL
MODEL 8
REMARK VINA RESULT:      -4.7      8.181      9.294
REMARK  5 active torsions:
REMARK  status: ('A' for Active; 'I' for Inactive)
REMARK    1  A    between atoms: C_2  and  C_10 
REMARK       I    between atoms: C_2  and  N_3 
REMARK    2  A    between atoms: N_3  and  C_4 
REMARK    3  A    between atoms: N_3  and  C_7 
REMARK    4  A    between atoms: C_4  and  C_5 
REMARK    5  A    between atoms: C_7  and  C_8 
ROOT
HETATM    1  O   LIG     1      13.011  31.001  15.966  1.00  0.00    -0.270 OA
HETATM    2  C   LIG     1      14.228  30.981  15.632  1.00  0.00     0.253 C 
HETATM    3  N   LIG     1      15.127  31.986  16.164  1.00  0.00    -0.343 N 
ENDROOT
BRANCH   3   4
HETATM    4  C   LIG     1      16.546  32.046  15.788  1.00  0.00     0.152 C 
BRANCH   4   5
HETATM    5  C   LIG     1      16.848  33.368  15.133  1.00  0.00    -0.017 C 
HETATM    6  C   LIG     1      17.794  33.492  14.197  1.00  0.00     0.008 C 
ENDBRANCH   4   5
ENDBRANCH   3   4
BRANCH   3   7
HETATM    7  C   LIG     1      14.627  32.943  17.161  1.00  0.00     0.152 C 
BRANCH   7   8
HETATM    8  C   LIG     1      15.249  32.662  18.501  1.00  0.00    -0.017 C 
HETATM    9  C   LIG     1      14.778  31.714  19.315  1.00  0.00     0.008 C 
ENDBRANCH   7   8
ENDBRANCH   3   7
BRANCH   2  10
HETATM   10  C   LIG     1      14.677  29.950  14.628  1.00  0.00     0.270 C 
HETATM   11 CL   LIG     1      13.334  28.871  14.160  1.00  0.00    -0.098 Cl
HETATM   12 CL   LIG     1      15.293  30.771  13.172  1.00  0.00    -0.098 Cl
ENDBRANCH   2  10
TORSDOF 5
ENDMDL
MODEL 9
REMARK VINA RESULT:      -4.4      1.958      2.693
REMARK  5 active torsions:
REMARK  status: ('A' for Active; 'I' for Inactive)
REMARK    1  A    between atoms: C_2  and  C_10 
REMARK       I    between atoms: C_2  and  N_3 
REMARK    2  A    between atoms: N_3  and  C_4 
REMARK    3  A    between atoms: N_3  and  C_7 
REMARK    4  A    between atoms: C_4  and  C_5 
REMARK    5  A    between atoms: C_7  and  C_8 
ROOT
HETATM    1  O   LIG     1      17.836  35.235  21.253  1.00  0.00    -0.270 OA
HETATM    2  C   LIG     1      17.506  36.363  21.716  1.00  0.00     0.253 C 
HETATM    3  N   LIG     1      16.819  36.432  22.990  1.00  0.00    -0.343 N 
ENDROOT
BRANCH   3   4
HETATM    4  C   LIG     1      16.370  37.705  23.571  1.00  0.00     0.152 C 
BRANCH   4   5
HETATM    5  C   LIG     1      17.449  38.278  24.450  1.00  0.00    -0.017 C 
HETATM    6  C   LIG     1      17.304  38.374  25.774  1.00  0.00     0.008 C 
ENDBRANCH   4   5
ENDBRANCH   3   4
BRANCH   3   7
HETATM    7  C   LIG     1      16.612  35.200  23.765  1.00  0.00     0.152 C 
BRANCH   7   8
HETATM    8  C   LIG     1      17.684  35.065  24.811  1.00  0.00    -0.017 C 
HETATM    9  C   LIG     1      17.399  34.782  26.085  1.00  0.00     0.008 C 
ENDBRANCH   7   8
ENDBRANCH   3   7
BRANCH   2  10
HETATM   10  C   LIG     1      17.777  37.587  20.880  1.00  0.00     0.270 C 
HETATM   11 CL   LIG     1      18.876  38.716  21.720  1.00  0.00    -0.098 Cl
HETATM   12 CL   LIG     1      18.518  37.099  19.337  1.00  0.00    -0.098 Cl
ENDBRANCH   2  10
TORSDOF 5
ENDMDL
MODEL 10
REMARK VINA RESULT:      -4.3      8.998     10.475
REMARK  5 active torsions:
REMARK  status: ('A' for Active; 'I' for Inactive)
REMARK    1  A    between atoms: C_2  and  C_10 
REMARK       I    between atoms: C_2  and  N_3 
REMARK    2  A    between atoms: N_3  and  C_4 
REMARK    3  A    between atoms: N_3  and  C_7 
REMARK    4  A    between atoms: C_4  and  C_5 
REMARK    5  A    between atoms: C_7  and  C_8 
ROOT
HETATM    1  O   LIG     1      15.876  30.575  13.313  1.00  0.00    -0.270 OA
HETATM    2  C   LIG     1      15.132  30.325  14.303  1.00  0.00     0.253 C 
HETATM    3  N   LIG     1      14.988  31.317  15.349  1.00  0.00    -0.343 N 
ENDROOT
BRANCH   3   4
HETATM    4  C   LIG     1      14.172  31.079  16.548  1.00  0.00     0.152 C 
BRANCH   4   5
HETATM    5  C   LIG     1      14.399  32.178  17.551  1.00  0.00    -0.017 C 
HETATM    6  C   LIG     1      14.755  31.920  18.813  1.00  0.00     0.008 C 
ENDBRANCH   4   5
ENDBRANCH   3   4
BRANCH   3   7
HETATM    7  C   LIG     1      15.626  32.632  15.189  1.00  0.00     0.152 C 
BRANCH   7   8
HETATM    8  C   LIG     1      17.118  32.498  15.308  1.00  0.00    -0.017 C 
HETATM    9  C   LIG     1      17.956  33.217  14.556  1.00  0.00     0.008 C 
ENDBRANCH   7   8
ENDBRANCH   3   7
BRANCH   2  10
HETATM   10  C   LIG     1      14.485  28.967  14.387  1.00  0.00     0.270 C 
HETATM   11 CL   LIG     1      12.767  29.036  13.907  1.00  0.00    -0.098 Cl
HETATM   12 CL   LIG     1      15.340  27.835  13.311  1.00  0.00    -0.098 Cl
ENDBRANCH   2  10
TORSDOF 5
ENDMDL
MODEL 11
REMARK VINA RESULT:      -4.3      8.212     10.223
REMARK  5 active torsions:
REMARK  status: ('A' for Active; 'I' for Inactive)
REMARK    1  A    between atoms: C_2  and  C_10 
REMARK       I    between atoms: C_2  and  N_3 
REMARK    2  A    between atoms: N_3  and  C_4 
REMARK    3  A    between atoms: N_3  and  C_7 
REMARK    4  A    between atoms: C_4  and  C_5 
REMARK    5  A    between atoms: C_7  and  C_8 
ROOT
HETATM    1  O   LIG     1      17.967  33.868  15.247  1.00  0.00    -0.270 OA
HETATM    2  C   LIG     1      17.414  33.239  14.302  1.00  0.00     0.253 C 
HETATM    3  N   LIG     1      16.380  32.269  14.605  1.00  0.00    -0.343 N 
ENDROOT
BRANCH   3   4
HETATM    4  C   LIG     1      15.722  31.473  13.559  1.00  0.00     0.152 C 
BRANCH   4   5
HETATM    5  C   LIG     1      14.987  30.316  14.181  1.00  0.00    -0.017 C 
HETATM    6  C   LIG     1      15.267  29.049  13.862  1.00  0.00     0.008 C 
ENDBRANCH   4   5
ENDBRANCH   3   4
BRANCH   3   7
HETATM    7  C   LIG     1      15.923  32.113  15.993  1.00  0.00     0.152 C 
BRANCH   7   8
HETATM    8  C   LIG     1      14.859  33.130  16.302  1.00  0.00    -0.017 C 
HETATM    9  C   LIG     1      15.076  34.150  17.135  1.00  0.00     0.008 C 
ENDBRANCH   7   8
ENDBRANCH   3   7
BRANCH   2  10
HETATM   10  C   LIG     1      17.912  33.473  12.899  1.00  0.00     0.270 C 
HETATM   11 CL   LIG     1      17.200  34.950  12.195  1.00  0.00    -0.098 Cl
HETATM   12 CL   LIG     1      19.685  33.639  12.920  1.00  0.00    -0.098 Cl
ENDBRANCH   2  10
TORSDOF 5
ENDMDL
MODEL 12
REMARK VINA RESULT:      -3.9     11.050     13.390
REMARK  5 active torsions:
REMARK  status: ('A' for Active; 'I' for Inactive)
REMARK    1  A    between atoms: C_2  and  C_10 
REMARK       I    between atoms: C_2  and  N_3 
REMARK    2  A    between atoms: N_3  and  C_4 
REMARK    3  A    between atoms: N_3  and  C_7 
REMARK    4  A    between atoms: C_4  and  C_5 
REMARK    5  A    between atoms: C_7  and  C_8 
ROOT
HETATM    1  O   LIG     1      16.329  29.716  14.587  1.00  0.00    -0.270 OA
HETATM    2  C   LIG     1      15.070  29.669  14.504  1.00  0.00     0.253 C 
HETATM    3  N   LIG     1      14.439  28.493  13.939  1.00  0.00    -0.343 N 
ENDROOT
BRANCH   3   4
HETATM    4  C   LIG     1      12.982  28.387  13.775  1.00  0.00     0.152 C 
BRANCH   4   5
HETATM    5  C   LIG     1      12.605  26.969  13.441  1.00  0.00    -0.017 C 
HETATM    6  C   LIG     1      11.530  26.681  12.701  1.00  0.00     0.008 C 
ENDBRANCH   4   5
ENDBRANCH   3   4
BRANCH   3   7
HETATM    7  C   LIG     1      15.269  27.338  13.570  1.00  0.00     0.152 C 
BRANCH   7   8
HETATM    8  C   LIG     1      15.914  27.573  12.233  1.00  0.00    -0.017 C 
HETATM    9  C   LIG     1      15.864  26.666  11.253  1.00  0.00     0.008 C 
ENDBRANCH   7   8
ENDBRANCH   3   7
BRANCH   2  10
HETATM   10  C   LIG     1      14.280  30.880  14.931  1.00  0.00     0.270 C 
HETATM   11 CL   LIG     1      13.316  30.543  16.395  1.00  0.00    -0.098 Cl
HETATM   12 CL   LIG     1      15.395  32.226  15.269  1.00  0.00    -0.098 Cl
ENDBRANCH   2  10
TORSDOF 5
ENDMDL
MODEL 13
REMARK VINA RESULT:      -3.8      8.575     10.304
REMARK  5 active torsions:
REMARK  status: ('A' for Active; 'I' for Inactive)
REMARK    1  A    between atoms: C_2  and  C_10 
REMARK       I    between atoms: C_2  and  N_3 
REMARK    2  A    between atoms: N_3  and  C_4 
REMARK    3  A    between atoms: N_3  and  C_7 
REMARK    4  A    between atoms: C_4  and  C_5 
REMARK    5  A    between atoms: C_7  and  C_8 
ROOT
HETATM    1  O   LIG     1      12.626  30.127  15.593  1.00  0.00    -0.270 OA
HETATM    2  C   LIG     1      13.775  30.179  15.070  1.00  0.00     0.253 C 
HETATM    3  N   LIG     1      14.716  31.184  15.524  1.00  0.00    -0.343 N 
ENDROOT
BRANCH   3   4
HETATM    4  C   LIG     1      16.054  31.328  14.933  1.00  0.00     0.152 C 
BRANCH   4   5
HETATM    5  C   LIG     1      15.971  32.132  13.663  1.00  0.00    -0.017 C 
HETATM    6  C   LIG     1      16.950  32.958  13.285  1.00  0.00     0.008 C 
ENDBRANCH   4   5
ENDBRANCH   3   4
BRANCH   3   7
HETATM    7  C   LIG     1      14.354  32.053  16.652  1.00  0.00     0.152 C 
BRANCH   7   8
HETATM    8  C   LIG     1      15.405  33.110  16.846  1.00  0.00    -0.017 C 
HETATM    9  C   LIG     1      15.091  34.391  17.055  1.00  0.00     0.008 C 
ENDBRANCH   7   8
ENDBRANCH   3   7
BRANCH   2  10
HETATM   10  C   LIG     1      14.088  29.236  13.937  1.00  0.00     0.270 C 
HETATM   11 CL   LIG     1      15.646  28.405  14.197  1.00  0.00    -0.098 Cl
HETATM   12 CL   LIG     1      12.797  28.017  13.806  1.00  0.00    -0.098 Cl
ENDBRANCH   2  10
TORSDOF 5
ENDMDL
MODEL 14
REMARK VINA RESULT:      -3.7     15.700     16.920
REMARK  5 active torsions:
REMARK  status: ('A' for Active; 'I' for Inactive)
REMARK    1  A    between atoms: C_2  and  C_10 
REMARK       I    between atoms: C_2  and  N_3 
REMARK    2  A    between atoms: N_3  and  C_4 
REMARK    3  A    between atoms: N_3  and  C_7 
REMARK    4  A    between atoms: C_4  and  C_5 
REMARK    5  A    between atoms: C_7  and  C_8 
ROOT
HETATM    1  O   LIG     1      25.181  22.711  21.606  1.00  0.00    -0.270 OA
HETATM    2  C   LIG     1      24.326  22.327  20.761  1.00  0.00     0.253 C 
HETATM    3  N   LIG     1      24.623  22.445  19.347  1.00  0.00    -0.343 N 
ENDROOT
BRANCH   3   4
HETATM    4  C   LIG     1      23.660  22.055  18.308  1.00  0.00     0.152 C 
BRANCH   4   5
HETATM    5  C   LIG     1      23.769  20.579  18.033  1.00  0.00    -0.017 C 
HETATM    6  C   LIG     1      22.720  19.760  18.147  1.00  0.00     0.008 C 
ENDBRANCH   4   5
ENDBRANCH   3   4
BRANCH   3   7
HETATM    7  C   LIG     1      25.952  22.911  18.927  1.00  0.00     0.152 C 
BRANCH   7   8
HETATM    8  C   LIG     1      25.853  24.292  18.343  1.00  0.00    -0.017 C 
HETATM    9  C   LIG     1      26.188  25.381  19.040  1.00  0.00     0.008 C 
ENDBRANCH   7   8
ENDBRANCH   3   7
BRANCH   2  10
HETATM   10  C   LIG     1      22.994  21.831  21.264  1.00  0.00     0.270 C 
HETATM   11 CL   LIG     1      23.140  21.125  22.897  1.00  0.00    -0.098 Cl
HETATM   12 CL   LIG     1      21.840  23.185  21.320  1.00  0.00    -0.098 Cl
ENDBRANCH   2  10
TORSDOF 5
ENDMDL
MODEL 15
REMARK VINA RESULT:      -3.5     17.755     18.692
REMARK  5 active torsions:
REMARK  status: ('A' for Active; 'I' for Inactive)
REMARK    1  A    between atoms: C_2  and  C_10 
REMARK       I    between atoms: C_2  and  N_3 
REMARK    2  A    between atoms: N_3  and  C_4 
REMARK    3  A    between atoms: N_3  and  C_7 
REMARK    4  A    between atoms: C_4  and  C_5 
REMARK    5  A    between atoms: C_7  and  C_8 
ROOT
HETATM    1  O   LIG     1       4.753  38.948  34.601  1.00  0.00    -0.270 OA
HETATM    2  C   LIG     1       4.218  40.039  34.946  1.00  0.00     0.253 C 
HETATM    3  N   LIG     1       3.691  40.924  33.927  1.00  0.00    -0.343 N 
ENDROOT
BRANCH   3   4
HETATM    4  C   LIG     1       3.092  42.227  34.252  1.00  0.00     0.152 C 
BRANCH   4   5
HETATM    5  C   LIG     1       4.140  43.305  34.188  1.00  0.00    -0.017 C 
HETATM    6  C   LIG     1       4.104  44.271  33.266  1.00  0.00     0.008 C 
ENDBRANCH   4   5
ENDBRANCH   3   4
BRANCH   3   7
HETATM    7  C   LIG     1       3.696  40.489  32.523  1.00  0.00     0.152 C 
BRANCH   7   8
HETATM    8  C   LIG     1       2.672  41.265  31.741  1.00  0.00    -0.017 C 
HETATM    9  C   LIG     1       2.951  41.806  30.552  1.00  0.00     0.008 C 
ENDBRANCH   7   8
ENDBRANCH   3   7
BRANCH   2  10
HETATM   10  C   LIG     1       4.221  40.407  36.408  1.00  0.00     0.270 C 
HETATM   11 CL   LIG     1       2.560  40.574  37.038  1.00  0.00    -0.098 Cl
HETATM   12 CL   LIG     1       5.067  39.144  37.335  1.00  0.00    -0.098 Cl
ENDBRANCH   2  10
TORSDOF 5
ENDMDL
MODEL 16
REMARK VINA RESULT:      -3.5      1.850      2.475
REMARK  5 active torsions:
REMARK  status: ('A' for Active; 'I' for Inactive)
REMARK    1  A    between atoms: C_2  and  C_10 
REMARK       I    between atoms: C_2  and  N_3 
REMARK    2  A    between atoms: N_3  and  C_4 
REMARK    3  A    between atoms: N_3  and  C_7 
REMARK    4  A    between atoms: C_4  and  C_5 
REMARK    5  A    between atoms: C_7  and  C_8 
ROOT
HETATM    1  O   LIG     1      17.124  34.441  22.203  1.00  0.00    -0.270 OA
HETATM    2  C   LIG     1      16.931  35.615  22.625  1.00  0.00     0.253 C 
HETATM    3  N   LIG     1      17.103  35.899  24.036  1.00  0.00    -0.343 N 
ENDROOT
BRANCH   3   4
HETATM    4  C   LIG     1      16.857  37.233  24.603  1.00  0.00     0.152 C 
BRANCH   4   5
HETATM    5  C   LIG     1      18.125  38.042  24.583  1.00  0.00    -0.017 C 
HETATM    6  C   LIG     1      18.228  39.176  23.885  1.00  0.00     0.008 C 
ENDBRANCH   4   5
ENDBRANCH   3   4
BRANCH   3   7
HETATM    7  C   LIG     1      17.598  34.842  24.928  1.00  0.00     0.152 C 
BRANCH   7   8
HETATM    8  C   LIG     1      17.696  35.361  26.336  1.00  0.00    -0.017 C 
HETATM    9  C   LIG     1      18.865  35.462  26.973  1.00  0.00     0.008 C 
ENDBRANCH   7   8
ENDBRANCH   3   7
BRANCH   2  10
HETATM   10  C   LIG     1      16.454  36.658  21.646  1.00  0.00     0.270 C 
HETATM   11 CL   LIG     1      15.233  37.730  22.385  1.00  0.00    -0.098 Cl
HETATM   12 CL   LIG     1      17.837  37.641  21.107  1.00  0.00    -0.098 Cl
ENDBRANCH   2  10
TORSDOF 5
ENDMDL
MODEL 17
REMARK VINA RESULT:      -3.3     15.885     17.068
REMARK  5 active torsions:
REMARK  status: ('A' for Active; 'I' for Inactive)
REMARK    1  A    between atoms: C_2  and  C_10 
REMARK       I    between atoms: C_2  and  N_3 
REMARK    2  A    between atoms: N_3  and  C_4 
REMARK    3  A    between atoms: N_3  and  C_7 
REMARK    4  A    between atoms: C_4  and  C_5 
REMARK    5  A    between atoms: C_7  and  C_8 
ROOT
HETATM    1  O   LIG     1      26.455  23.873  18.094  1.00  0.00    -0.270 OA
HETATM    2  C   LIG     1      26.159  23.433  19.240  1.00  0.00     0.253 C 
HETATM    3  N   LIG     1      24.951  22.650  19.408  1.00  0.00    -0.343 N 
ENDROOT
BRANCH   3   4
HETATM    4  C   LIG     1      24.524  22.141  20.719  1.00  0.00     0.152 C 
BRANCH   4   5
HETATM    5  C   LIG     1      23.526  23.083  21.336  1.00  0.00    -0.017 C 
HETATM    6  C   LIG     1      22.219  22.806  21.367  1.00  0.00     0.008 C 
ENDBRANCH   4   5
ENDBRANCH   3   4
BRANCH   3   7
HETATM    7  C   LIG     1      24.152  22.296  18.227  1.00  0.00     0.152 C 
BRANCH   7   8
HETATM    8  C   LIG     1      23.827  20.828  18.247  1.00  0.00    -0.017 C 
HETATM    9  C   LIG     1      22.605  20.370  17.966  1.00  0.00     0.008 C 
ENDBRANCH   7   8
ENDBRANCH   3   7
BRANCH   2  10
HETATM   10  C   LIG     1      27.042  23.811  20.401  1.00  0.00     0.270 C 
HETATM   11 CL   LIG     1      28.666  23.086  20.244  1.00  0.00    -0.098 Cl
HETATM   12 CL   LIG     1      27.205  25.582  20.471  1.00  0.00    -0.098 Cl
ENDBRANCH   2  10
TORSDOF 5
ENDMDL
MODEL 18
REMARK VINA RESULT:      -3.1     16.105     17.103
REMARK  5 active torsions:
REMARK  status: ('A' for Active; 'I' for Inactive)
REMARK    1  A    between atoms: C_2  and  C_10 
REMARK       I    between atoms: C_2  and  N_3 
REMARK    2  A    between atoms: N_3  and  C_4 
REMARK    3  A    between atoms: N_3  and  C_7 
REMARK    4  A    between atoms: C_4  and  C_5 
REMARK    5  A    between atoms: C_7  and  C_8 
ROOT
HETATM    1  O   LIG     1      25.698  23.333  20.836  1.00  0.00    -0.270 OA
HETATM    2  C   LIG     1      24.964  22.948  19.883  1.00  0.00     0.253 C 
HETATM    3  N   LIG     1      23.660  22.386  20.176  1.00  0.00    -0.343 N 
ENDROOT
BRANCH   3   4
HETATM    4  C   LIG     1      22.769  21.882  19.121  1.00  0.00     0.152 C 
BRANCH   4   5
HETATM    5  C   LIG     1      23.006  20.411  18.909  1.00  0.00    -0.017 C 
HETATM    6  C   LIG     1      23.175  19.891  17.690  1.00  0.00     0.008 C 
ENDBRANCH   4   5
ENDBRANCH   3   4
BRANCH   3   7
HETATM    7  C   LIG     1      23.177  22.372  21.564  1.00  0.00     0.152 C 
BRANCH   7   8
HETATM    8  C   LIG     1      23.570  21.085  22.232  1.00  0.00    -0.017 C 
HETATM    9  C   LIG     1      22.671  20.282  22.808  1.00  0.00     0.008 C 
ENDBRANCH   7   8
ENDBRANCH   3   7
BRANCH   2  10
HETATM   10  C   LIG     1      25.512  23.021  18.481  1.00  0.00     0.270 C 
HETATM   11 CL   LIG     1      26.391  24.551  18.207  1.00  0.00    -0.098 Cl
HETATM   12 CL   LIG     1      26.625  21.658  18.209  1.00  0.00    -0.098 Cl
ENDBRANCH   2  10
TORSDOF 5
ENDMDL
MODEL 19
REMARK VINA RESULT:      -3.0     15.820     16.805
REMARK  5 active torsions:
REMARK  status: ('A' for Active; 'I' for Inactive)
REMARK    1  A    between atoms: C_2  and  C_10 
REMARK       I    between atoms: C_2  and  N_3 
REMARK    2  A    between atoms: N_3  and  C_4 
REMARK    3  A    between atoms: N_3  and  C_7 
REMARK    4  A    between atoms: C_4  and  C_5 
REMARK    5  A    between atoms: C_7  and  C_8 
ROOT
HETATM    1  O   LIG     1      26.754  23.417  22.621  1.00  0.00    -0.270 OA
HETATM    2  C   LIG     1      26.630  23.478  21.366  1.00  0.00     0.253 C 
HETATM    3  N   LIG     1      25.491  22.842  20.734  1.00  0.00    -0.343 N 
ENDROOT
BRANCH   3   4
HETATM    4  C   LIG     1      25.305  22.839  19.276  1.00  0.00     0.152 C 
BRANCH   4   5
HETATM    5  C   LIG     1      24.849  21.479  18.820  1.00  0.00    -0.017 C 
HETATM    6  C   LIG     1      25.221  20.969  17.642  1.00  0.00     0.008 C 
ENDBRANCH   4   5
ENDBRANCH   3   4
BRANCH   3   7
HETATM    7  C   LIG     1      24.450  22.231  21.573  1.00  0.00     0.152 C 
BRANCH   7   8
HETATM    8  C   LIG     1      23.284  23.170  21.711  1.00  0.00    -0.017 C 
HETATM    9  C   LIG     1      22.064  22.855  21.269  1.00  0.00     0.008 C 
ENDBRANCH   7   8
ENDBRANCH   3   7
BRANCH   2  10
HETATM   10  C   LIG     1      27.721  24.148  20.571  1.00  0.00     0.270 C 
HETATM   11 CL   LIG     1      27.246  25.797  20.078  1.00  0.00    -0.098 Cl
HETATM   12 CL   LIG     1      29.200  24.243  21.558  1.00  0.00    -0.098 Cl
ENDBRANCH   2  10
TORSDOF 5
ENDMDL
MODEL 20
REMARK VINA RESULT:      -2.9     15.854     16.800
REMARK  5 active torsions:
REMARK  status: ('A' for Active; 'I' for Inactive)
REMARK    1  A    between atoms: C_2  and  C_10 
REMARK       I    between atoms: C_2  and  N_3 
REMARK    2  A    between atoms: N_3  and  C_4 
REMARK    3  A    between atoms: N_3  and  C_7 
REMARK    4  A    between atoms: C_4  and  C_5 
REMARK    5  A    between atoms: C_7  and  C_8 
ROOT
HETATM    1  O   LIG     1      27.251  22.537  22.552  1.00  0.00    -0.270 OA
HETATM    2  C   LIG     1      26.019  22.771  22.703  1.00  0.00     0.253 C 
HETATM    3  N   LIG     1      25.182  22.949  21.533  1.00  0.00    -0.343 N 
ENDROOT
BRANCH   3   4
HETATM    4  C   LIG     1      23.750  23.263  21.634  1.00  0.00     0.152 C 
BRANCH   4   5
HETATM    5  C   LIG     1      22.934  22.023  21.386  1.00  0.00    -0.017 C 
HETATM    6  C   LIG     1      22.716  21.118  22.344  1.00  0.00     0.008 C 
ENDBRANCH   4   5
ENDBRANCH   3   4
BRANCH   3   7
HETATM    7  C   LIG     1      25.761  22.751  20.197  1.00  0.00     0.152 C 
BRANCH   7   8
HETATM    8  C   LIG     1      25.728  24.042  19.426  1.00  0.00    -0.017 C 
HETATM    9  C   LIG     1      26.476  25.093  19.772  1.00  0.00     0.008 C 
ENDBRANCH   7   8
ENDBRANCH   3   7
BRANCH   2  10
HETATM   10  C   LIG     1      25.487  22.930  24.105  1.00  0.00     0.270 C 
HETATM   11 CL   LIG     1      25.357  21.354  24.932  1.00  0.00    -0.098 Cl
HETATM   12 CL   LIG     1      26.578  23.984  25.036  1.00  0.00    -0.098 Cl
ENDBRANCH   2  10
TORSDOF 5
ENDMDL
