REMARK  5 active torsions:
REMARK  status: ('A' for Active; 'I' for Inactive)
REMARK    1  A    between atoms: C_13  and  O_14 
REMARK    2  A    between atoms: C_22  and  C_24 
REMARK    3  A    between atoms: C_22  and  O_23 
REMARK    4  A    between atoms: C_24  and  C_25 
REMARK    5  A    between atoms: C_25  and  O_26 
ROOT
HETATM    1  O   LIG     1      -5.997   2.713  -0.414  1.00  0.00    -0.289 OA
HETATM    2  C   LIG     1      -4.961   1.997  -0.401  1.00  0.00     0.172 C 
HETATM    3  C   LIG     1      -3.947   2.128  -1.456  1.00  0.00     0.052 C 
HETATM    4  C   LIG     1      -2.949   1.239  -1.523  1.00  0.00    -0.006 C 
HETATM    5  C   LIG     1      -3.002  -0.065  -0.718  1.00  0.00     0.036 C 
HETATM    6  C   LIG     1      -3.932  -1.057  -1.460  1.00  0.00     0.028 C 
HETATM    7  C   LIG     1      -3.651   0.242   0.656  1.00  0.00    -0.061 C 
HETATM    8  C   LIG     1      -3.079  -0.363   1.929  1.00  0.00     0.036 C 
HETATM    9  C   LIG     1      -1.537  -0.185   2.028  1.00  0.00     0.013 C 
HETATM   10  C   LIG     1      -0.884   0.144   0.661  1.00  0.00     0.035 C 
HETATM   11  C   LIG     1      -1.569  -0.707  -0.481  1.00  0.00     0.147 C 
HETATM   12  F   LIG     1      -1.830  -1.969   0.046  1.00  0.00    -0.238 F 
HETATM   13  C   LIG     1      -0.670  -1.004  -1.762  1.00  0.00     0.160 C 
HETATM   14  C   LIG     1       0.786  -0.478  -1.688  1.00  0.00     0.048 C 
HETATM   15  C   LIG     1       1.427  -0.681  -0.286  1.00  0.00     0.001 C 
HETATM   16  C   LIG     1       1.301  -2.190   0.129  1.00  0.00     0.019 C 
HETATM   17  C   LIG     1       0.677   0.246   0.661  1.00  0.00     0.005 C 
HETATM   18  C   LIG     1       1.464   0.183   1.960  1.00  0.00     0.013 C 
HETATM   19  C   LIG     1       2.937   0.178   1.487  1.00  0.00     0.025 C 
HETATM   20  C   LIG     1       3.824  -0.674   2.411  1.00  0.00     0.013 C 
HETATM   21  C   LIG     1       2.937  -0.233  -0.048  1.00  0.00     0.131 C 
HETATM   22  C   LIG     1      -4.678   1.109   0.736  1.00  0.00     0.058 C 
ENDROOT
BRANCH  21  23
HETATM   23  C   LIG     1       3.452   0.968  -0.877  1.00  0.00     0.185 C 
HETATM   24  O   LIG     1       2.775   1.492  -1.743  1.00  0.00    -0.292 OA
BRANCH  23  25
HETATM   25  C   LIG     1       4.836   1.533  -0.653  1.00  0.00     0.245 C 
BRANCH  25  26
HETATM   26  O   LIG     1       4.774   2.923  -0.478  1.00  0.00    -0.393 OA
HETATM   27  H   LIG     1       4.411   3.079   0.433  1.00  0.00     0.209 HD
ENDBRANCH  25  26
ENDBRANCH  23  25
ENDBRANCH  21  23
BRANCH  21  28
HETATM   28  O   LIG     1       3.784  -1.335  -0.315  1.00  0.00    -0.381 OA
HETATM   29  H   LIG     1       4.720  -1.093  -0.098  1.00  0.00     0.211 HD
ENDBRANCH  21  28
BRANCH  13  30
HETATM   30  O   LIG     1      -1.262  -0.555  -2.954  1.00  0.00    -0.392 OA
HETATM   31  H   LIG     1      -0.828  -1.045  -3.705  1.00  0.00     0.210 HD
ENDBRANCH  13  30
TORSDOF 5
