MODEL 1
REMARK VINA RESULT:      -6.1      0.000      0.000
REMARK  3 active torsions:
REMARK  status: ('A' for Active; 'I' for Inactive)
REMARK    1  A    between atoms: O_1  and  C_2 
REMARK    2  A    between atoms: C_2  and  C_3 
REMARK    3  A    between atoms: C_3  and  N_4 
ROOT
HETATM    1  N   LIG     1      17.070  37.259  22.555  1.00  0.00    -0.296 N 
HETATM    2  C   LIG     1      16.880  36.213  21.688  1.00  0.00     0.292 A 
HETATM    3  S   LIG     1      16.967  34.706  22.428  1.00  0.00    -0.027 SA
HETATM    4  C   LIG     1      17.245  35.387  23.929  1.00  0.00     0.038 A 
HETATM    5  C   LIG     1      17.262  36.781  23.837  1.00  0.00     0.077 A 
HETATM    6  C   LIG     1      17.459  37.534  25.031  1.00  0.00     0.062 A 
HETATM    7 CL   LIG     1      17.456  39.291  25.141  1.00  0.00    -0.082 Cl
HETATM    8  C   LIG     1      17.648  36.842  26.243  1.00  0.00     0.026 A 
HETATM    9  C   LIG     1      17.637  35.441  26.290  1.00  0.00     0.003 A 
HETATM   10  C   LIG     1      17.429  34.701  25.124  1.00  0.00     0.021 A 
HETATM   11  O   LIG     1      16.651  36.341  20.456  1.00  0.00    -0.259 OA
ENDROOT
BRANCH   1  12
HETATM   12  C   LIG     1      17.073  38.694  22.194  1.00  0.00     0.242 C 
BRANCH  12  13
HETATM   13  C   LIG     1      18.351  39.193  21.579  1.00  0.00     0.158 C 
HETATM   14  O   LIG     1      18.402  39.436  20.344  1.00  0.00    -0.649 OA
BRANCH  13  15
HETATM   15  O   LIG     1      19.492  39.361  22.358  1.00  0.00    -0.775 OA
HETATM   16  H   LIG     1      20.355  39.709  21.955  1.00  0.00     0.167 HD
ENDBRANCH  13  15
ENDBRANCH  12  13
ENDBRANCH   1  12
TORSDOF 3
ENDMDL
MODEL 2
REMARK VINA RESULT:      -6.0      2.554      4.204
REMARK  3 active torsions:
REMARK  status: ('A' for Active; 'I' for Inactive)
REMARK    1  A    between atoms: O_1  and  C_2 
REMARK    2  A    between atoms: C_2  and  C_3 
REMARK    3  A    between atoms: C_3  and  N_4 
ROOT
HETATM    1  N   LIG     1      16.511  37.061  22.088  1.00  0.00    -0.296 N 
HETATM    2  C   LIG     1      15.938  35.917  21.597  1.00  0.00     0.292 A 
HETATM    3  S   LIG     1      16.641  35.376  20.169  1.00  0.00    -0.027 SA
HETATM    4  C   LIG     1      17.743  36.633  20.160  1.00  0.00     0.038 A 
HETATM    5  C   LIG     1      17.554  37.457  21.272  1.00  0.00     0.077 A 
HETATM    6  C   LIG     1      18.426  38.570  21.445  1.00  0.00     0.062 A 
HETATM    7 CL   LIG     1      18.393  39.691  22.803  1.00  0.00    -0.082 Cl
HETATM    8  C   LIG     1      19.426  38.801  20.480  1.00  0.00     0.026 A 
HETATM    9  C   LIG     1      19.574  37.957  19.371  1.00  0.00     0.003 A 
HETATM   10  C   LIG     1      18.730  36.858  19.207  1.00  0.00     0.021 A 
HETATM   11  O   LIG     1      14.983  35.305  22.145  1.00  0.00    -0.259 OA
ENDROOT
BRANCH   1  12
HETATM   12  C   LIG     1      16.093  37.784  23.311  1.00  0.00     0.242 C 
BRANCH  12  13
HETATM   13  C   LIG     1      16.793  37.361  24.572  1.00  0.00     0.158 C 
HETATM   14  O   LIG     1      17.323  36.220  24.645  1.00  0.00    -0.649 OA
BRANCH  13  15
HETATM   15  O   LIG     1      16.836  38.208  25.675  1.00  0.00    -0.775 OA
HETATM   16  H   LIG     1      17.411  37.990  26.481  1.00  0.00     0.167 HD
ENDBRANCH  13  15
ENDBRANCH  12  13
ENDBRANCH   1  12
TORSDOF 3
ENDMDL
MODEL 3
REMARK VINA RESULT:      -6.0      7.926      9.849
REMARK  3 active torsions:
REMARK  status: ('A' for Active; 'I' for Inactive)
REMARK    1  A    between atoms: O_1  and  C_2 
REMARK    2  A    between atoms: C_2  and  C_3 
REMARK    3  A    between atoms: C_3  and  N_4 
ROOT
HETATM    1  N   LIG     1      15.382  33.176  16.005  1.00  0.00    -0.296 N 
HETATM    2  C   LIG     1      16.478  33.692  15.364  1.00  0.00     0.292 A 
HETATM    3  S   LIG     1      17.026  32.732  14.098  1.00  0.00    -0.027 SA
HETATM    4  C   LIG     1      15.819  31.603  14.346  1.00  0.00     0.038 A 
HETATM    5  C   LIG     1      14.999  31.990  15.409  1.00  0.00     0.077 A 
HETATM    6  C   LIG     1      13.895  31.156  15.748  1.00  0.00     0.062 A 
HETATM    7 CL   LIG     1      12.713  31.492  17.010  1.00  0.00    -0.082 Cl
HETATM    8  C   LIG     1      13.688  29.974  15.012  1.00  0.00     0.026 A 
HETATM    9  C   LIG     1      14.542  29.615  13.959  1.00  0.00     0.003 A 
HETATM   10  C   LIG     1      15.617  30.437  13.616  1.00  0.00     0.021 A 
HETATM   11  O   LIG     1      17.034  34.782  15.666  1.00  0.00    -0.259 OA
ENDROOT
BRANCH   1  12
HETATM   12  C   LIG     1      14.693  33.781  17.168  1.00  0.00     0.242 C 
BRANCH  12  13
HETATM   13  C   LIG     1      15.347  33.529  18.498  1.00  0.00     0.158 C 
HETATM   14  O   LIG     1      15.653  32.355  18.836  1.00  0.00    -0.649 OA
BRANCH  13  15
HETATM   15  O   LIG     1      15.594  34.581  19.375  1.00  0.00    -0.775 OA
HETATM   16  H   LIG     1      14.840  35.023  19.887  1.00  0.00     0.167 HD
ENDBRANCH  13  15
ENDBRANCH  12  13
ENDBRANCH   1  12
TORSDOF 3
ENDMDL
MODEL 4
REMARK VINA RESULT:      -5.9      3.154      5.097
REMARK  3 active torsions:
REMARK  status: ('A' for Active; 'I' for Inactive)
REMARK    1  A    between atoms: O_1  and  C_2 
REMARK    2  A    between atoms: C_2  and  C_3 
REMARK    3  A    between atoms: C_3  and  N_4 
ROOT
HETATM    1  N   LIG     1      17.162  37.525  22.937  1.00  0.00    -0.296 N 
HETATM    2  C   LIG     1      17.435  38.769  23.444  1.00  0.00     0.292 A 
HETATM    3  S   LIG     1      18.324  39.737  22.397  1.00  0.00    -0.027 SA
HETATM    4  C   LIG     1      18.365  38.545  21.226  1.00  0.00     0.038 A 
HETATM    5  C   LIG     1      17.681  37.408  21.663  1.00  0.00     0.077 A 
HETATM    6  C   LIG     1      17.589  36.294  20.779  1.00  0.00     0.062 A 
HETATM    7 CL   LIG     1      16.727  34.796  21.113  1.00  0.00    -0.082 Cl
HETATM    8  C   LIG     1      18.205  36.381  19.516  1.00  0.00     0.026 A 
HETATM    9  C   LIG     1      18.893  37.537  19.120  1.00  0.00     0.003 A 
HETATM   10  C   LIG     1      18.973  38.634  19.979  1.00  0.00     0.021 A 
HETATM   11  O   LIG     1      17.061  39.176  24.576  1.00  0.00    -0.259 OA
ENDROOT
BRANCH   1  12
HETATM   12  C   LIG     1      16.422  36.449  23.635  1.00  0.00     0.242 C 
BRANCH  12  13
HETATM   13  C   LIG     1      17.131  35.852  24.818  1.00  0.00     0.158 C 
HETATM   14  O   LIG     1      17.518  34.654  24.781  1.00  0.00    -0.649 OA
BRANCH  13  15
HETATM   15  O   LIG     1      17.339  36.603  25.971  1.00  0.00    -0.775 OA
HETATM   16  H   LIG     1      17.780  37.515  25.930  1.00  0.00     0.167 HD
ENDBRANCH  13  15
ENDBRANCH  12  13
ENDBRANCH   1  12
TORSDOF 3
ENDMDL
MODEL 5
REMARK VINA RESULT:      -5.9      2.512      4.003
REMARK  3 active torsions:
REMARK  status: ('A' for Active; 'I' for Inactive)
REMARK    1  A    between atoms: O_1  and  C_2 
REMARK    2  A    between atoms: C_2  and  C_3 
REMARK    3  A    between atoms: C_3  and  N_4 
ROOT
HETATM    1  N   LIG     1      17.427  36.032  21.507  1.00  0.00    -0.296 N 
HETATM    2  C   LIG     1      17.818  36.784  20.429  1.00  0.00     0.292 A 
HETATM    3  S   LIG     1      18.167  38.381  20.819  1.00  0.00    -0.027 SA
HETATM    4  C   LIG     1      17.826  38.129  22.436  1.00  0.00     0.038 A 
HETATM    5  C   LIG     1      17.449  36.801  22.654  1.00  0.00     0.077 A 
HETATM    6  C   LIG     1      17.147  36.396  23.986  1.00  0.00     0.062 A 
HETATM    7 CL   LIG     1      16.710  34.763  24.480  1.00  0.00    -0.082 Cl
HETATM    8  C   LIG     1      17.222  37.351  25.018  1.00  0.00     0.026 A 
HETATM    9  C   LIG     1      17.593  38.677  24.754  1.00  0.00     0.003 A 
HETATM   10  C   LIG     1      17.904  39.074  23.452  1.00  0.00     0.021 A 
HETATM   11  O   LIG     1      17.924  36.344  19.253  1.00  0.00    -0.259 OA
ENDROOT
BRANCH   1  12
HETATM   12  C   LIG     1      17.033  34.605  21.471  1.00  0.00     0.242 C 
BRANCH  12  13
HETATM   13  C   LIG     1      15.691  34.331  20.853  1.00  0.00     0.158 C 
HETATM   14  O   LIG     1      14.695  34.099  21.588  1.00  0.00    -0.649 OA
BRANCH  13  15
HETATM   15  O   LIG     1      15.542  34.300  19.469  1.00  0.00    -0.775 OA
HETATM   16  H   LIG     1      14.728  34.704  19.021  1.00  0.00     0.167 HD
ENDBRANCH  13  15
ENDBRANCH  12  13
ENDBRANCH   1  12
TORSDOF 3
ENDMDL
MODEL 6
REMARK VINA RESULT:      -5.8      8.971     10.225
REMARK  3 active torsions:
REMARK  status: ('A' for Active; 'I' for Inactive)
REMARK    1  A    between atoms: O_1  and  C_2 
REMARK    2  A    between atoms: C_2  and  C_3 
REMARK    3  A    between atoms: C_3  and  N_4 
ROOT
HETATM    1  N   LIG     1      16.222  32.903  14.957  1.00  0.00    -0.296 N 
HETATM    2  C   LIG     1      16.289  33.981  15.802  1.00  0.00     0.292 A 
HETATM    3  S   LIG     1      15.079  33.993  16.969  1.00  0.00    -0.027 SA
HETATM    4  C   LIG     1      14.431  32.560  16.405  1.00  0.00     0.038 A 
HETATM    5  C   LIG     1      15.168  32.085  15.316  1.00  0.00     0.077 A 
HETATM    6  C   LIG     1      14.774  30.853  14.720  1.00  0.00     0.062 A 
HETATM    7 CL   LIG     1      15.599  30.057  13.383  1.00  0.00    -0.082 Cl
HETATM    8  C   LIG     1      13.652  30.178  15.239  1.00  0.00     0.026 A 
HETATM    9  C   LIG     1      12.932  30.694  16.326  1.00  0.00     0.003 A 
HETATM   10  C   LIG     1      13.324  31.895  16.921  1.00  0.00     0.021 A 
HETATM   11  O   LIG     1      17.166  34.883  15.739  1.00  0.00    -0.259 OA
ENDROOT
BRANCH   1  12
HETATM   12  C   LIG     1      17.132  32.635  13.821  1.00  0.00     0.242 C 
BRANCH  12  13
HETATM   13  C   LIG     1      17.610  33.856  13.086  1.00  0.00     0.158 C 
HETATM   14  O   LIG     1      18.788  34.269  13.251  1.00  0.00    -0.649 OA
BRANCH  13  15
HETATM   15  O   LIG     1      16.751  34.555  12.243  1.00  0.00    -0.775 OA
HETATM   16  H   LIG     1      16.633  35.558  12.329  1.00  0.00     0.167 HD
ENDBRANCH  13  15
ENDBRANCH  12  13
ENDBRANCH   1  12
TORSDOF 3
ENDMDL
MODEL 7
REMARK VINA RESULT:      -5.7      1.805      2.150
REMARK  3 active torsions:
REMARK  status: ('A' for Active; 'I' for Inactive)
REMARK    1  A    between atoms: O_1  and  C_2 
REMARK    2  A    between atoms: C_2  and  C_3 
REMARK    3  A    between atoms: C_3  and  N_4 
ROOT
HETATM    1  N   LIG     1      17.517  36.997  21.090  1.00  0.00    -0.296 N 
HETATM    2  C   LIG     1      16.909  35.812  20.762  1.00  0.00     0.292 A 
HETATM    3  S   LIG     1      16.413  34.923  22.099  1.00  0.00    -0.027 SA
HETATM    4  C   LIG     1      16.974  36.085  23.162  1.00  0.00     0.038 A 
HETATM    5  C   LIG     1      17.537  37.156  22.462  1.00  0.00     0.077 A 
HETATM    6  C   LIG     1      18.045  38.258  23.208  1.00  0.00     0.062 A 
HETATM    7 CL   LIG     1      18.738  39.723  22.519  1.00  0.00    -0.082 Cl
HETATM    8  C   LIG     1      17.975  38.213  24.614  1.00  0.00     0.026 A 
HETATM    9  C   LIG     1      17.412  37.114  25.278  1.00  0.00     0.003 A 
HETATM   10  C   LIG     1      16.901  36.039  24.549  1.00  0.00     0.021 A 
HETATM   11  O   LIG     1      16.719  35.410  19.584  1.00  0.00    -0.259 OA
ENDROOT
BRANCH   1  12
HETATM   12  C   LIG     1      18.079  37.976  20.132  1.00  0.00     0.242 C 
BRANCH  12  13
HETATM   13  C   LIG     1      19.456  37.652  19.623  1.00  0.00     0.158 C 
HETATM   14  O   LIG     1      20.289  38.577  19.431  1.00  0.00    -0.649 OA
BRANCH  13  15
HETATM   15  O   LIG     1      19.811  36.338  19.333  1.00  0.00    -0.775 OA
HETATM   16  H   LIG     1      20.329  35.776  19.999  1.00  0.00     0.167 HD
ENDBRANCH  13  15
ENDBRANCH  12  13
ENDBRANCH   1  12
TORSDOF 3
ENDMDL
MODEL 8
REMARK VINA RESULT:      -5.6      3.147      5.071
REMARK  3 active torsions:
REMARK  status: ('A' for Active; 'I' for Inactive)
REMARK    1  A    between atoms: O_1  and  C_2 
REMARK    2  A    between atoms: C_2  and  C_3 
REMARK    3  A    between atoms: C_3  and  N_4 
ROOT
HETATM    1  N   LIG     1      17.144  36.392  22.443  1.00  0.00    -0.296 N 
HETATM    2  C   LIG     1      17.055  36.819  23.742  1.00  0.00     0.292 A 
HETATM    3  S   LIG     1      17.736  38.335  23.996  1.00  0.00    -0.027 SA
HETATM    4  C   LIG     1      18.160  38.485  22.386  1.00  0.00     0.038 A 
HETATM    5  C   LIG     1      17.761  37.355  21.668  1.00  0.00     0.077 A 
HETATM    6  C   LIG     1      18.017  37.319  20.268  1.00  0.00     0.062 A 
HETATM    7 CL   LIG     1      17.546  36.019  19.177  1.00  0.00    -0.082 Cl
HETATM    8  C   LIG     1      18.675  38.413  19.672  1.00  0.00     0.026 A 
HETATM    9  C   LIG     1      19.069  39.524  20.431  1.00  0.00     0.003 A 
HETATM   10  C   LIG     1      18.808  39.568  21.801  1.00  0.00     0.021 A 
HETATM   11  O   LIG     1      16.513  36.166  24.673  1.00  0.00    -0.259 OA
ENDROOT
BRANCH   1  12
HETATM   12  C   LIG     1      16.658  35.094  21.923  1.00  0.00     0.242 C 
BRANCH  12  13
HETATM   13  C   LIG     1      15.201  35.062  21.551  1.00  0.00     0.158 C 
HETATM   14  O   LIG     1      14.586  36.137  21.326  1.00  0.00    -0.649 OA
BRANCH  13  15
HETATM   15  O   LIG     1      14.516  33.852  21.481  1.00  0.00    -0.775 OA
HETATM   16  H   LIG     1      14.943  32.989  21.794  1.00  0.00     0.167 HD
ENDBRANCH  13  15
ENDBRANCH  12  13
ENDBRANCH   1  12
TORSDOF 3
ENDMDL
MODEL 9
REMARK VINA RESULT:      -5.5      3.290      4.866
REMARK  3 active torsions:
REMARK  status: ('A' for Active; 'I' for Inactive)
REMARK    1  A    between atoms: O_1  and  C_2 
REMARK    2  A    between atoms: C_2  and  C_3 
REMARK    3  A    between atoms: C_3  and  N_4 
ROOT
HETATM    1  N   LIG     1      17.240  35.937  22.122  1.00  0.00    -0.296 N 
HETATM    2  C   LIG     1      16.853  35.989  23.437  1.00  0.00     0.292 A 
HETATM    3  S   LIG     1      17.135  37.480  24.159  1.00  0.00    -0.027 SA
HETATM    4  C   LIG     1      17.768  38.116  22.749  1.00  0.00     0.038 A 
HETATM    5  C   LIG     1      17.746  37.160  21.729  1.00  0.00     0.077 A 
HETATM    6  C   LIG     1      18.224  37.537  20.441  1.00  0.00     0.062 A 
HETATM    7 CL   LIG     1      18.229  36.505  19.014  1.00  0.00    -0.082 Cl
HETATM    8  C   LIG     1      18.713  38.845  20.256  1.00  0.00     0.026 A 
HETATM    9  C   LIG     1      18.728  39.770  21.309  1.00  0.00     0.003 A 
HETATM   10  C   LIG     1      18.247  39.409  22.569  1.00  0.00     0.021 A 
HETATM   11  O   LIG     1      16.326  35.031  24.064  1.00  0.00    -0.259 OA
ENDROOT
BRANCH   1  12
HETATM   12  C   LIG     1      17.139  34.756  21.236  1.00  0.00     0.242 C 
BRANCH  12  13
HETATM   13  C   LIG     1      15.778  34.516  20.645  1.00  0.00     0.158 C 
HETATM   14  O   LIG     1      15.630  34.492  19.395  1.00  0.00    -0.649 OA
BRANCH  13  15
HETATM   15  O   LIG     1      14.669  34.350  21.470  1.00  0.00    -0.775 OA
HETATM   16  H   LIG     1      14.666  34.698  22.421  1.00  0.00     0.167 HD
ENDBRANCH  13  15
ENDBRANCH  12  13
ENDBRANCH   1  12
TORSDOF 3
ENDMDL
MODEL 10
REMARK VINA RESULT:      -5.4      8.832      9.812
REMARK  3 active torsions:
REMARK  status: ('A' for Active; 'I' for Inactive)
REMARK    1  A    between atoms: O_1  and  C_2 
REMARK    2  A    between atoms: C_2  and  C_3 
REMARK    3  A    between atoms: C_3  and  N_4 
ROOT
HETATM    1  N   LIG     1      16.424  32.524  14.710  1.00  0.00    -0.296 N 
HETATM    2  C   LIG     1      16.557  31.815  13.545  1.00  0.00     0.292 A 
HETATM    3  S   LIG     1      15.385  30.626  13.347  1.00  0.00    -0.027 SA
HETATM    4  C   LIG     1      14.649  31.020  14.794  1.00  0.00     0.038 A 
HETATM    5  C   LIG     1      15.321  32.077  15.413  1.00  0.00     0.077 A 
HETATM    6  C   LIG     1      14.815  32.567  16.651  1.00  0.00     0.062 A 
HETATM    7 CL   LIG     1      15.478  33.922  17.559  1.00  0.00    -0.082 Cl
HETATM    8  C   LIG     1      13.674  31.955  17.205  1.00  0.00     0.026 A 
HETATM    9  C   LIG     1      13.035  30.888  16.557  1.00  0.00     0.003 A 
HETATM   10  C   LIG     1      13.521  30.415  15.337  1.00  0.00     0.021 A 
HETATM   11  O   LIG     1      17.454  32.019  12.684  1.00  0.00    -0.259 OA
ENDROOT
BRANCH   1  12
HETATM   12  C   LIG     1      17.316  33.612  15.170  1.00  0.00     0.242 C 
BRANCH  12  13
HETATM   13  C   LIG     1      17.327  34.837  14.299  1.00  0.00     0.158 C 
HETATM   14  O   LIG     1      17.189  35.978  14.817  1.00  0.00    -0.649 OA
BRANCH  13  15
HETATM   15  O   LIG     1      17.458  34.723  12.918  1.00  0.00    -0.775 OA
HETATM   16  H   LIG     1      17.971  35.413  12.382  1.00  0.00     0.167 HD
ENDBRANCH  13  15
ENDBRANCH  12  13
ENDBRANCH   1  12
TORSDOF 3
ENDMDL
MODEL 11
REMARK VINA RESULT:      -5.0      7.989     10.055
REMARK  3 active torsions:
REMARK  status: ('A' for Active; 'I' for Inactive)
REMARK    1  A    between atoms: O_1  and  C_2 
REMARK    2  A    between atoms: C_2  and  C_3 
REMARK    3  A    between atoms: C_3  and  N_4 
ROOT
HETATM    1  N   LIG     1      14.405  31.894  16.426  1.00  0.00    -0.296 N 
HETATM    2  C   LIG     1      13.667  30.761  16.201  1.00  0.00     0.292 A 
HETATM    3  S   LIG     1      14.021  30.012  14.738  1.00  0.00    -0.027 SA
HETATM    4  C   LIG     1      15.177  31.157  14.357  1.00  0.00     0.038 A 
HETATM    5  C   LIG     1      15.279  32.107  15.377  1.00  0.00     0.077 A 
HETATM    6  C   LIG     1      16.239  33.149  15.235  1.00  0.00     0.062 A 
HETATM    7 CL   LIG     1      16.564  34.405  16.426  1.00  0.00    -0.082 Cl
HETATM    8  C   LIG     1      17.029  33.188  14.070  1.00  0.00     0.026 A 
HETATM    9  C   LIG     1      16.888  32.221  13.065  1.00  0.00     0.003 A 
HETATM   10  C   LIG     1      15.957  31.191  13.207  1.00  0.00     0.021 A 
HETATM   11  O   LIG     1      12.809  30.298  16.998  1.00  0.00    -0.259 OA
ENDROOT
BRANCH   1  12
HETATM   12  C   LIG     1      14.299  32.776  17.610  1.00  0.00     0.242 C 
BRANCH  12  13
HETATM   13  C   LIG     1      14.878  32.213  18.878  1.00  0.00     0.158 C 
HETATM   14  O   LIG     1      15.970  32.656  19.322  1.00  0.00    -0.649 OA
BRANCH  13  15
HETATM   15  O   LIG     1      14.232  31.182  19.554  1.00  0.00    -0.775 OA
HETATM   16  H   LIG     1      14.286  31.102  20.562  1.00  0.00     0.167 HD
ENDBRANCH  13  15
ENDBRANCH  12  13
ENDBRANCH   1  12
TORSDOF 3
ENDMDL
MODEL 12
REMARK VINA RESULT:      -4.7      2.690      3.919
REMARK  3 active torsions:
REMARK  status: ('A' for Active; 'I' for Inactive)
REMARK    1  A    between atoms: O_1  and  C_2 
REMARK    2  A    between atoms: C_2  and  C_3 
REMARK    3  A    between atoms: C_3  and  N_4 
ROOT
HETATM    1  N   LIG     1      17.676  38.186  21.752  1.00  0.00    -0.296 N 
HETATM    2  C   LIG     1      18.749  38.279  20.904  1.00  0.00     0.292 A 
HETATM    3  S   LIG     1      18.789  37.066  19.740  1.00  0.00    -0.027 SA
HETATM    4  C   LIG     1      17.375  36.382  20.312  1.00  0.00     0.038 A 
HETATM    5  C   LIG     1      16.885  37.110  21.399  1.00  0.00     0.077 A 
HETATM    6  C   LIG     1      15.665  36.686  22.001  1.00  0.00     0.062 A 
HETATM    7 CL   LIG     1      14.852  37.495  23.337  1.00  0.00    -0.082 Cl
HETATM    8  C   LIG     1      15.018  35.545  21.487  1.00  0.00     0.026 A 
HETATM    9  C   LIG     1      15.550  34.836  20.402  1.00  0.00     0.003 A 
HETATM   10  C   LIG     1      16.738  35.257  19.801  1.00  0.00     0.021 A 
HETATM   11  O   LIG     1      19.628  39.180  20.961  1.00  0.00    -0.259 OA
ENDROOT
BRANCH   1  12
HETATM   12  C   LIG     1      17.388  39.093  22.886  1.00  0.00     0.242 C 
BRANCH  12  13
HETATM   13  C   LIG     1      17.943  38.652  24.212  1.00  0.00     0.158 C 
HETATM   14  O   LIG     1      19.092  38.139  24.273  1.00  0.00    -0.649 OA
BRANCH  13  15
HETATM   15  O   LIG     1      17.186  38.777  25.373  1.00  0.00    -0.775 OA
HETATM   16  H   LIG     1      16.241  38.416  25.424  1.00  0.00     0.167 HD
ENDBRANCH  13  15
ENDBRANCH  12  13
ENDBRANCH   1  12
TORSDOF 3
ENDMDL
MODEL 13
REMARK VINA RESULT:      -4.5      9.316     10.511
REMARK  3 active torsions:
REMARK  status: ('A' for Active; 'I' for Inactive)
REMARK    1  A    between atoms: O_1  and  C_2 
REMARK    2  A    between atoms: C_2  and  C_3 
REMARK    3  A    between atoms: C_3  and  N_4 
ROOT
HETATM    1  N   LIG     1      14.915  31.512  15.554  1.00  0.00    -0.296 N 
HETATM    2  C   LIG     1      14.802  30.529  14.605  1.00  0.00     0.292 A 
HETATM    3  S   LIG     1      15.734  30.813  13.235  1.00  0.00    -0.027 SA
HETATM    4  C   LIG     1      16.333  32.243  13.859  1.00  0.00     0.038 A 
HETATM    5  C   LIG     1      15.804  32.480  15.130  1.00  0.00     0.077 A 
HETATM    6  C   LIG     1      16.226  33.647  15.830  1.00  0.00     0.062 A 
HETATM    7 CL   LIG     1      15.726  34.097  17.458  1.00  0.00    -0.082 Cl
HETATM    8  C   LIG     1      17.140  34.517  15.206  1.00  0.00     0.026 A 
HETATM    9  C   LIG     1      17.639  34.248  13.923  1.00  0.00     0.003 A 
HETATM   10  C   LIG     1      17.237  33.098  13.240  1.00  0.00     0.021 A 
HETATM   11  O   LIG     1      14.086  29.500  14.724  1.00  0.00    -0.259 OA
ENDROOT
BRANCH   1  12
HETATM   12  C   LIG     1      14.199  31.550  16.850  1.00  0.00     0.242 C 
BRANCH  12  13
HETATM   13  C   LIG     1      12.699  31.517  16.750  1.00  0.00     0.158 C 
HETATM   14  O   LIG     1      12.048  32.593  16.694  1.00  0.00    -0.649 OA
BRANCH  13  15
HETATM   15  O   LIG     1      12.018  30.303  16.749  1.00  0.00    -0.775 OA
HETATM   16  H   LIG     1      11.476  30.006  17.552  1.00  0.00     0.167 HD
ENDBRANCH  13  15
ENDBRANCH  12  13
ENDBRANCH   1  12
TORSDOF 3
ENDMDL
MODEL 14
REMARK VINA RESULT:      -4.2      9.881     11.414
REMARK  3 active torsions:
REMARK  status: ('A' for Active; 'I' for Inactive)
REMARK    1  A    between atoms: O_1  and  C_2 
REMARK    2  A    between atoms: C_2  and  C_3 
REMARK    3  A    between atoms: C_3  and  N_4 
ROOT
HETATM    1  N   LIG     1      14.558  30.471  14.458  1.00  0.00    -0.296 N 
HETATM    2  C   LIG     1      13.399  29.900  14.916  1.00  0.00     0.292 A 
HETATM    3  S   LIG     1      12.753  30.682  16.256  1.00  0.00    -0.027 SA
HETATM    4  C   LIG     1      13.980  31.816  16.268  1.00  0.00     0.038 A 
HETATM    5  C   LIG     1      14.877  31.575  15.223  1.00  0.00     0.077 A 
HETATM    6  C   LIG     1      15.978  32.464  15.061  1.00  0.00     0.062 A 
HETATM    7 CL   LIG     1      17.184  32.371  13.780  1.00  0.00    -0.082 Cl
HETATM    8  C   LIG     1      16.125  33.532  15.968  1.00  0.00     0.026 A 
HETATM    9  C   LIG     1      15.209  33.731  17.010  1.00  0.00     0.003 A 
HETATM   10  C   LIG     1      14.121  32.870  17.163  1.00  0.00     0.021 A 
HETATM   11  O   LIG     1      12.845  28.894  14.398  1.00  0.00    -0.259 OA
ENDROOT
BRANCH   1  12
HETATM   12  C   LIG     1      15.367  29.991  13.314  1.00  0.00     0.242 C 
BRANCH  12  13
HETATM   13  C   LIG     1      15.657  28.516  13.313  1.00  0.00     0.158 C 
HETATM   14  O   LIG     1      16.115  27.965  14.349  1.00  0.00    -0.649 OA
BRANCH  13  15
HETATM   15  O   LIG     1      15.452  27.756  12.165  1.00  0.00    -0.775 OA
HETATM   16  H   LIG     1      14.626  27.178  12.061  1.00  0.00     0.167 HD
ENDBRANCH  13  15
ENDBRANCH  12  13
ENDBRANCH   1  12
TORSDOF 3
ENDMDL
MODEL 15
REMARK VINA RESULT:      -4.1      9.068     10.791
REMARK  3 active torsions:
REMARK  status: ('A' for Active; 'I' for Inactive)
REMARK    1  A    between atoms: O_1  and  C_2 
REMARK    2  A    between atoms: C_2  and  C_3 
REMARK    3  A    between atoms: C_3  and  N_4 
ROOT
HETATM    1  N   LIG     1      14.954  31.683  16.030  1.00  0.00    -0.296 N 
HETATM    2  C   LIG     1      14.695  32.341  17.205  1.00  0.00     0.292 A 
HETATM    3  S   LIG     1      15.491  33.816  17.335  1.00  0.00    -0.027 SA
HETATM    4  C   LIG     1      16.195  33.642  15.829  1.00  0.00     0.038 A 
HETATM    5  C   LIG     1      15.798  32.438  15.240  1.00  0.00     0.077 A 
HETATM    6  C   LIG     1      16.282  32.134  13.935  1.00  0.00     0.062 A 
HETATM    7 CL   LIG     1      15.857  30.704  12.999  1.00  0.00    -0.082 Cl
HETATM    8  C   LIG     1      17.151  33.046  13.306  1.00  0.00     0.026 A 
HETATM    9  C   LIG     1      17.534  34.237  13.936  1.00  0.00     0.003 A 
HETATM   10  C   LIG     1      17.051  34.545  15.209  1.00  0.00     0.021 A 
HETATM   11  O   LIG     1      13.934  31.910  18.112  1.00  0.00    -0.259 OA
ENDROOT
BRANCH   1  12
HETATM   12  C   LIG     1      14.419  30.358  15.644  1.00  0.00     0.242 C 
BRANCH  12  13
HETATM   13  C   LIG     1      12.923  30.292  15.501  1.00  0.00     0.158 C 
HETATM   14  O   LIG     1      12.408  30.069  14.374  1.00  0.00    -0.649 OA
BRANCH  13  15
HETATM   15  O   LIG     1      12.098  30.505  16.602  1.00  0.00    -0.775 OA
HETATM   16  H   LIG     1      11.597  31.377  16.720  1.00  0.00     0.167 HD
ENDBRANCH  13  15
ENDBRANCH  12  13
ENDBRANCH   1  12
TORSDOF 3
ENDMDL
MODEL 16
REMARK VINA RESULT:      -3.8     18.110     19.260
REMARK  3 active torsions:
REMARK  status: ('A' for Active; 'I' for Inactive)
REMARK    1  A    between atoms: O_1  and  C_2 
REMARK    2  A    between atoms: C_2  and  C_3 
REMARK    3  A    between atoms: C_3  and  N_4 
ROOT
HETATM    1  N   LIG     1      20.397  21.378  34.306  1.00  0.00    -0.296 N 
HETATM    2  C   LIG     1      21.029  20.311  34.891  1.00  0.00     0.292 A 
HETATM    3  S   LIG     1      21.282  19.025  33.837  1.00  0.00    -0.027 SA
HETATM    4  C   LIG     1      20.576  19.845  32.564  1.00  0.00     0.038 A 
HETATM    5  C   LIG     1      20.155  21.113  32.972  1.00  0.00     0.077 A 
HETATM    6  C   LIG     1      19.552  21.968  32.006  1.00  0.00     0.062 A 
HETATM    7 CL   LIG     1      19.008  23.617  32.301  1.00  0.00    -0.082 Cl
HETATM    8  C   LIG     1      19.389  21.493  30.690  1.00  0.00     0.026 A 
HETATM    9  C   LIG     1      19.814  20.208  30.324  1.00  0.00     0.003 A 
HETATM   10  C   LIG     1      20.418  19.373  31.265  1.00  0.00     0.021 A 
HETATM   11  O   LIG     1      21.403  20.273  36.093  1.00  0.00    -0.259 OA
ENDROOT
BRANCH   1  12
HETATM   12  C   LIG     1      20.019  22.638  34.985  1.00  0.00     0.242 C 
BRANCH  12  13
HETATM   13  C   LIG     1      21.147  23.609  35.200  1.00  0.00     0.158 C 
HETATM   14  O   LIG     1      22.107  23.648  34.386  1.00  0.00    -0.649 OA
BRANCH  13  15
HETATM   15  O   LIG     1      21.155  24.448  36.310  1.00  0.00    -0.775 OA
HETATM   16  H   LIG     1      21.823  24.318  37.061  1.00  0.00     0.167 HD
ENDBRANCH  13  15
ENDBRANCH  12  13
ENDBRANCH   1  12
TORSDOF 3
ENDMDL
MODEL 17
REMARK VINA RESULT:      -3.7     15.812     16.464
REMARK  3 active torsions:
REMARK  status: ('A' for Active; 'I' for Inactive)
REMARK    1  A    between atoms: O_1  and  C_2 
REMARK    2  A    between atoms: C_2  and  C_3 
REMARK    3  A    between atoms: C_3  and  N_4 
ROOT
HETATM    1  N   LIG     1      26.534  23.402  21.234  1.00  0.00    -0.296 N 
HETATM    2  C   LIG     1      27.044  23.457  22.506  1.00  0.00     0.292 A 
HETATM    3  S   LIG     1      26.012  22.818  23.669  1.00  0.00    -0.027 SA
HETATM    4  C   LIG     1      24.857  22.431  22.525  1.00  0.00     0.038 A 
HETATM    5  C   LIG     1      25.291  22.799  21.248  1.00  0.00     0.077 A 
HETATM    6  C   LIG     1      24.442  22.519  20.139  1.00  0.00     0.062 A 
HETATM    7 CL   LIG     1      24.826  22.849  18.452  1.00  0.00    -0.082 Cl
HETATM    8  C   LIG     1      23.199  21.902  20.378  1.00  0.00     0.026 A 
HETATM    9  C   LIG     1      22.795  21.559  21.676  1.00  0.00     0.003 A 
HETATM   10  C   LIG     1      23.631  21.820  22.763  1.00  0.00     0.021 A 
HETATM   11  O   LIG     1      28.175  23.926  22.802  1.00  0.00    -0.259 OA
ENDROOT
BRANCH   1  12
HETATM   12  C   LIG     1      27.199  23.907  20.012  1.00  0.00     0.242 C 
BRANCH  12  13
HETATM   13  C   LIG     1      27.126  25.396  19.817  1.00  0.00     0.158 C 
HETATM   14  O   LIG     1      28.112  26.119  20.120  1.00  0.00    -0.649 OA
BRANCH  13  15
HETATM   15  O   LIG     1      25.965  25.990  19.330  1.00  0.00    -0.775 OA
HETATM   16  H   LIG     1      25.666  25.847  18.373  1.00  0.00     0.167 HD
ENDBRANCH  13  15
ENDBRANCH  12  13
ENDBRANCH   1  12
TORSDOF 3
ENDMDL
MODEL 18
REMARK VINA RESULT:      -3.7     17.006     18.164
REMARK  3 active torsions:
REMARK  status: ('A' for Active; 'I' for Inactive)
REMARK    1  A    between atoms: O_1  and  C_2 
REMARK    2  A    between atoms: C_2  and  C_3 
REMARK    3  A    between atoms: C_3  and  N_4 
ROOT
HETATM    1  N   LIG     1      27.433  28.408  36.103  1.00  0.00    -0.296 N 
HETATM    2  C   LIG     1      27.263  27.290  36.880  1.00  0.00     0.292 A 
HETATM    3  S   LIG     1      27.306  25.855  36.005  1.00  0.00    -0.027 SA
HETATM    4  C   LIG     1      27.565  26.664  34.566  1.00  0.00     0.038 A 
HETATM    5  C   LIG     1      27.621  28.043  34.784  1.00  0.00     0.077 A 
HETATM    6  C   LIG     1      27.865  28.894  33.668  1.00  0.00     0.062 A 
HETATM    7 CL   LIG     1      28.029  30.646  33.737  1.00  0.00    -0.082 Cl
HETATM    8  C   LIG     1      28.019  28.312  32.395  1.00  0.00     0.026 A 
HETATM    9  C   LIG     1      27.944  26.923  32.217  1.00  0.00     0.003 A 
HETATM   10  C   LIG     1      27.719  26.086  33.311  1.00  0.00     0.021 A 
HETATM   11  O   LIG     1      27.100  27.307  38.129  1.00  0.00    -0.259 OA
ENDROOT
BRANCH   1  12
HETATM   12  C   LIG     1      27.418  29.807  36.585  1.00  0.00     0.242 C 
BRANCH  12  13
HETATM   13  C   LIG     1      26.051  30.383  36.828  1.00  0.00     0.158 C 
HETATM   14  O   LIG     1      25.625  31.321  36.103  1.00  0.00    -0.649 OA
BRANCH  13  15
HETATM   15  O   LIG     1      25.259  29.908  37.869  1.00  0.00    -0.775 OA
HETATM   16  H   LIG     1      25.497  30.095  38.836  1.00  0.00     0.167 HD
ENDBRANCH  13  15
ENDBRANCH  12  13
ENDBRANCH   1  12
TORSDOF 3
ENDMDL
MODEL 19
REMARK VINA RESULT:      -3.7     16.530     17.750
REMARK  3 active torsions:
REMARK  status: ('A' for Active; 'I' for Inactive)
REMARK    1  A    between atoms: O_1  and  C_2 
REMARK    2  A    between atoms: C_2  and  C_3 
REMARK    3  A    between atoms: C_3  and  N_4 
ROOT
HETATM    1  N   LIG     1      27.792  30.086  34.572  1.00  0.00    -0.296 N 
HETATM    2  C   LIG     1      28.850  30.061  33.699  1.00  0.00     0.292 A 
HETATM    3  S   LIG     1      30.222  30.831  34.289  1.00  0.00    -0.027 SA
HETATM    4  C   LIG     1      29.468  31.213  35.730  1.00  0.00     0.038 A 
HETATM    5  C   LIG     1      28.156  30.731  35.738  1.00  0.00     0.077 A 
HETATM    6  C   LIG     1      27.366  30.941  36.905  1.00  0.00     0.062 A 
HETATM    7 CL   LIG     1      25.718  30.365  37.138  1.00  0.00    -0.082 Cl
HETATM    8  C   LIG     1      27.933  31.639  37.989  1.00  0.00     0.026 A 
HETATM    9  C   LIG     1      29.250  32.116  37.936  1.00  0.00     0.003 A 
HETATM   10  C   LIG     1      30.031  31.900  36.800  1.00  0.00     0.021 A 
HETATM   11  O   LIG     1      28.826  29.514  32.564  1.00  0.00    -0.259 OA
ENDROOT
BRANCH   1  12
HETATM   12  C   LIG     1      26.450  29.514  34.323  1.00  0.00     0.242 C 
BRANCH  12  13
HETATM   13  C   LIG     1      26.432  28.043  34.010  1.00  0.00     0.158 C 
HETATM   14  O   LIG     1      26.982  27.227  34.796  1.00  0.00    -0.649 OA
BRANCH  13  15
HETATM   15  O   LIG     1      25.837  27.576  32.842  1.00  0.00    -0.775 OA
HETATM   16  H   LIG     1      24.931  27.916  32.544  1.00  0.00     0.167 HD
ENDBRANCH  13  15
ENDBRANCH  12  13
ENDBRANCH   1  12
TORSDOF 3
ENDMDL
MODEL 20
REMARK VINA RESULT:      -3.7     15.919     16.418
REMARK  3 active torsions:
REMARK  status: ('A' for Active; 'I' for Inactive)
REMARK    1  A    between atoms: O_1  and  C_2 
REMARK    2  A    between atoms: C_2  and  C_3 
REMARK    3  A    between atoms: C_3  and  N_4 
ROOT
HETATM    1  N   LIG     1      26.379  23.281  20.175  1.00  0.00    -0.296 N 
HETATM    2  C   LIG     1      26.159  23.229  18.823  1.00  0.00     0.292 A 
HETATM    3  S   LIG     1      24.676  22.551  18.412  1.00  0.00    -0.027 SA
HETATM    4  C   LIG     1      24.267  22.315  20.015  1.00  0.00     0.038 A 
HETATM    5  C   LIG     1      25.288  22.772  20.852  1.00  0.00     0.077 A 
HETATM    6  C   LIG     1      25.099  22.676  22.261  1.00  0.00     0.062 A 
HETATM    7 CL   LIG     1      26.233  23.245  23.483  1.00  0.00    -0.082 Cl
HETATM    8  C   LIG     1      23.905  22.110  22.747  1.00  0.00     0.026 A 
HETATM    9  C   LIG     1      22.910  21.652  21.872  1.00  0.00     0.003 A 
HETATM   10  C   LIG     1      23.086  21.757  20.491  1.00  0.00     0.021 A 
HETATM   11  O   LIG     1      26.966  23.650  17.952  1.00  0.00    -0.259 OA
ENDROOT
BRANCH   1  12
HETATM   12  C   LIG     1      27.599  23.799  20.835  1.00  0.00     0.242 C 
BRANCH  12  13
HETATM   13  C   LIG     1      27.692  25.298  20.912  1.00  0.00     0.158 C 
HETATM   14  O   LIG     1      28.370  25.839  21.825  1.00  0.00    -0.649 OA
BRANCH  13  15
HETATM   15  O   LIG     1      27.011  26.097  19.999  1.00  0.00    -0.775 OA
HETATM   16  H   LIG     1      26.704  27.030  20.247  1.00  0.00     0.167 HD
ENDBRANCH  13  15
ENDBRANCH  12  13
ENDBRANCH   1  12
TORSDOF 3
ENDMDL
