MODEL 1
REMARK VINA RESULT:      -5.7      0.000      0.000
REMARK  0 active torsions:
REMARK  status: ('A' for Active; 'I' for Inactive)
ROOT
HETATM    1  C   LIG     1      25.662  20.825  23.354  1.00  0.00     0.021 C 
HETATM    2  C   LIG     1      24.300  21.513  23.621  1.00  0.00    -0.009 C 
HETATM    3  C   LIG     1      23.601  20.802  24.789  1.00  0.00    -0.067 C 
HETATM    4  C   LIG     1      22.503  19.806  24.524  1.00  0.00     0.035 C 
HETATM    5  C   LIG     1      22.746  19.060  23.222  1.00  0.00     0.010 C 
HETATM    6  C   LIG     1      23.857  21.128  26.068  1.00  0.00     0.053 C 
HETATM    7  C   LIG     1      24.746  22.242  26.423  1.00  0.00     0.149 C 
HETATM    8  O   LIG     1      25.047  22.435  27.629  1.00  0.00    -0.293 OA
HETATM    9  C   LIG     1      24.535  23.004  24.043  1.00  0.00     0.022 C 
HETATM   10  C   LIG     1      25.301  23.146  25.368  1.00  0.00     0.084 C 
HETATM   11  C   LIG     1      23.369  21.439  22.340  1.00  0.00     0.072 C 
HETATM   12  C   LIG     1      23.905  22.102  21.078  1.00  0.00     0.133 C 
HETATM   13  C   LIG     1      23.328  21.683  19.768  1.00  0.00     0.096 C 
HETATM   14  O   LIG     1      24.806  22.925  21.096  1.00  0.00    -0.297 OA
HETATM   15  C   LIG     1      22.809  20.001  21.991  1.00  0.00     0.003 C 
HETATM   16  C   LIG     1      23.554  19.307  20.791  1.00  0.00     0.007 C 
HETATM   17  C   LIG     1      22.840  18.017  20.310  1.00  0.00     0.013 C 
HETATM   18  C   LIG     1      22.063  18.360  19.047  1.00  0.00     0.079 C 
HETATM   19  C   LIG     1      22.701  19.601  18.558  1.00  0.00     0.136 C 
HETATM   20  O   LIG     1      22.434  20.091  17.472  1.00  0.00    -0.297 OA
HETATM   21  C   LIG     1      23.683  20.202  19.512  1.00  0.00     0.027 C 
HETATM   22  C   LIG     1      25.101  20.088  18.914  1.00  0.00     0.024 C 
ENDROOT
TORSDOF 0
ENDMDL
MODEL 2
REMARK VINA RESULT:      -5.5      1.571      1.998
REMARK  0 active torsions:
REMARK  status: ('A' for Active; 'I' for Inactive)
ROOT
HETATM    1  C   LIG     1      26.121  20.602  21.414  1.00  0.00     0.021 C 
HETATM    2  C   LIG     1      25.006  21.651  21.643  1.00  0.00    -0.009 C 
HETATM    3  C   LIG     1      24.403  21.443  23.040  1.00  0.00    -0.067 C 
HETATM    4  C   LIG     1      23.092  20.720  23.201  1.00  0.00     0.035 C 
HETATM    5  C   LIG     1      22.929  19.644  22.140  1.00  0.00     0.010 C 
HETATM    6  C   LIG     1      24.954  21.996  24.136  1.00  0.00     0.053 C 
HETATM    7  C   LIG     1      26.104  22.904  24.053  1.00  0.00     0.149 C 
HETATM    8  O   LIG     1      26.658  23.303  25.111  1.00  0.00    -0.293 OA
HETATM    9  C   LIG     1      25.621  23.093  21.600  1.00  0.00     0.022 C 
HETATM   10  C   LIG     1      26.631  23.356  22.727  1.00  0.00     0.084 C 
HETATM   11  C   LIG     1      23.860  21.504  20.558  1.00  0.00     0.072 C 
HETATM   12  C   LIG     1      24.279  21.685  19.106  1.00  0.00     0.133 C 
HETATM   13  C   LIG     1      23.395  21.118  18.046  1.00  0.00     0.096 C 
HETATM   14  O   LIG     1      25.319  22.235  18.782  1.00  0.00    -0.297 OA
HETATM   15  C   LIG     1      22.958  20.211  20.697  1.00  0.00     0.003 C 
HETATM   16  C   LIG     1      23.307  19.084  19.656  1.00  0.00     0.007 C 
HETATM   17  C   LIG     1      22.263  17.936  19.647  1.00  0.00     0.013 C 
HETATM   18  C   LIG     1      21.354  18.145  18.444  1.00  0.00     0.079 C 
HETATM   19  C   LIG     1      22.136  19.030  17.553  1.00  0.00     0.136 C 
HETATM   20  O   LIG     1      21.781  19.292  16.414  1.00  0.00    -0.297 OA
HETATM   21  C   LIG     1      23.380  19.580  18.173  1.00  0.00     0.027 C 
HETATM   22  C   LIG     1      24.608  18.973  17.461  1.00  0.00     0.024 C 
ENDROOT
TORSDOF 0
ENDMDL
MODEL 3
REMARK VINA RESULT:      -5.4      1.498      6.463
REMARK  0 active torsions:
REMARK  status: ('A' for Active; 'I' for Inactive)
ROOT
HETATM    1  C   LIG     1      24.843  19.414  20.920  1.00  0.00     0.021 C 
HETATM    2  C   LIG     1      23.364  19.875  20.938  1.00  0.00    -0.009 C 
HETATM    3  C   LIG     1      23.176  20.993  19.902  1.00  0.00    -0.067 C 
HETATM    4  C   LIG     1      23.131  22.433  20.340  1.00  0.00     0.035 C 
HETATM    5  C   LIG     1      24.023  22.665  21.548  1.00  0.00     0.010 C 
HETATM    6  C   LIG     1      22.929  20.721  18.608  1.00  0.00     0.053 C 
HETATM    7  C   LIG     1      22.732  19.349  18.126  1.00  0.00     0.149 C 
HETATM    8  O   LIG     1      22.620  19.134  16.891  1.00  0.00    -0.293 OA
HETATM    9  C   LIG     1      22.435  18.682  20.526  1.00  0.00     0.022 C 
HETATM   10  C   LIG     1      22.668  18.201  19.085  1.00  0.00     0.084 C 
HETATM   11  C   LIG     1      22.961  20.424  22.369  1.00  0.00     0.072 C 
HETATM   12  C   LIG     1      23.082  19.441  23.526  1.00  0.00     0.133 C 
HETATM   13  C   LIG     1      23.171  19.995  24.909  1.00  0.00     0.096 C 
HETATM   14  O   LIG     1      23.147  18.234  23.364  1.00  0.00    -0.297 OA
HETATM   15  C   LIG     1      23.613  21.807  22.773  1.00  0.00     0.003 C 
HETATM   16  C   LIG     1      24.808  21.670  23.788  1.00  0.00     0.007 C 
HETATM   17  C   LIG     1      25.271  23.037  24.355  1.00  0.00     0.013 C 
HETATM   18  C   LIG     1      24.685  23.182  25.752  1.00  0.00     0.079 C 
HETATM   19  C   LIG     1      24.357  21.796  26.150  1.00  0.00     0.136 C 
HETATM   20  O   LIG     1      24.002  21.505  27.282  1.00  0.00    -0.297 OA
HETATM   21  C   LIG     1      24.484  20.795  25.046  1.00  0.00     0.027 C 
HETATM   22  C   LIG     1      25.659  19.846  25.361  1.00  0.00     0.024 C 
ENDROOT
TORSDOF 0
ENDMDL
MODEL 4
REMARK VINA RESULT:      -5.2      4.356      6.878
REMARK  0 active torsions:
REMARK  status: ('A' for Active; 'I' for Inactive)
ROOT
HETATM    1  C   LIG     1      28.713  23.080  19.283  1.00  0.00     0.021 C 
HETATM    2  C   LIG     1      27.811  23.694  18.184  1.00  0.00    -0.009 C 
HETATM    3  C   LIG     1      27.736  25.214  18.389  1.00  0.00    -0.067 C 
HETATM    4  C   LIG     1      26.533  25.833  19.050  1.00  0.00     0.035 C 
HETATM    5  C   LIG     1      25.944  24.899  20.095  1.00  0.00     0.010 C 
HETATM    6  C   LIG     1      28.670  26.041  17.886  1.00  0.00     0.053 C 
HETATM    7  C   LIG     1      29.762  25.552  17.035  1.00  0.00     0.149 C 
HETATM    8  O   LIG     1      30.677  26.343  16.684  1.00  0.00    -0.293 OA
HETATM    9  C   LIG     1      28.445  23.434  16.774  1.00  0.00     0.022 C 
HETATM   10  C   LIG     1      29.804  24.126  16.583  1.00  0.00     0.084 C 
HETATM   11  C   LIG     1      26.347  23.091  18.254  1.00  0.00     0.072 C 
HETATM   12  C   LIG     1      26.228  21.584  18.065  1.00  0.00     0.133 C 
HETATM   13  C   LIG     1      24.995  20.911  18.566  1.00  0.00     0.096 C 
HETATM   14  O   LIG     1      27.112  20.911  17.560  1.00  0.00    -0.297 OA
HETATM   15  C   LIG     1      25.486  23.542  19.502  1.00  0.00     0.003 C 
HETATM   16  C   LIG     1      25.380  22.445  20.625  1.00  0.00     0.007 C 
HETATM   17  C   LIG     1      24.343  22.808  21.720  1.00  0.00     0.013 C 
HETATM   18  C   LIG     1      23.077  22.010  21.442  1.00  0.00     0.079 C 
HETATM   19  C   LIG     1      23.534  20.900  20.580  1.00  0.00     0.136 C 
HETATM   20  O   LIG     1      22.810  19.963  20.278  1.00  0.00    -0.297 OA
HETATM   21  C   LIG     1      24.945  21.033  20.104  1.00  0.00     0.027 C 
HETATM   22  C   LIG     1      25.803  19.929  20.757  1.00  0.00     0.024 C 
ENDROOT
TORSDOF 0
ENDMDL
MODEL 5
REMARK VINA RESULT:      -5.2      3.352      5.148
REMARK  0 active torsions:
REMARK  status: ('A' for Active; 'I' for Inactive)
ROOT
HETATM    1  C   LIG     1      23.573  23.182  21.633  1.00  0.00     0.021 C 
HETATM    2  C   LIG     1      24.598  22.036  21.815  1.00  0.00    -0.009 C 
HETATM    3  C   LIG     1      25.158  22.087  23.244  1.00  0.00    -0.067 C 
HETATM    4  C   LIG     1      26.510  22.694  23.508  1.00  0.00     0.035 C 
HETATM    5  C   LIG     1      26.795  23.833  22.544  1.00  0.00     0.010 C 
HETATM    6  C   LIG     1      24.524  21.495  24.272  1.00  0.00     0.053 C 
HETATM    7  C   LIG     1      23.314  20.686  24.076  1.00  0.00     0.149 C 
HETATM    8  O   LIG     1      22.690  20.249  25.078  1.00  0.00    -0.293 OA
HETATM    9  C   LIG     1      23.881  20.654  21.634  1.00  0.00     0.022 C 
HETATM   10  C   LIG     1      22.810  20.381  22.701  1.00  0.00     0.084 C 
HETATM   11  C   LIG     1      25.795  22.180  20.786  1.00  0.00     0.072 C 
HETATM   12  C   LIG     1      25.423  22.145  19.310  1.00  0.00     0.133 C 
HETATM   13  C   LIG     1      26.389  22.724  18.331  1.00  0.00     0.096 C 
HETATM   14  O   LIG     1      24.360  21.703  18.907  1.00  0.00    -0.297 OA
HETATM   15  C   LIG     1      26.783  23.385  21.060  1.00  0.00     0.003 C 
HETATM   16  C   LIG     1      26.560  24.614  20.102  1.00  0.00     0.007 C 
HETATM   17  C   LIG     1      27.685  25.676  20.222  1.00  0.00     0.013 C 
HETATM   18  C   LIG     1      28.624  25.492  19.038  1.00  0.00     0.079 C 
HETATM   19  C   LIG     1      27.816  24.742  18.052  1.00  0.00     0.136 C 
HETATM   20  O   LIG     1      28.197  24.543  16.909  1.00  0.00    -0.297 OA
HETATM   21  C   LIG     1      26.511  24.242  18.582  1.00  0.00     0.027 C 
HETATM   22  C   LIG     1      25.361  24.995  17.880  1.00  0.00     0.024 C 
ENDROOT
TORSDOF 0
ENDMDL
MODEL 6
REMARK VINA RESULT:      -5.2      2.665      6.479
REMARK  0 active torsions:
REMARK  status: ('A' for Active; 'I' for Inactive)
ROOT
HETATM    1  C   LIG     1      25.527  19.690  19.723  1.00  0.00     0.021 C 
HETATM    2  C   LIG     1      24.263  20.530  20.032  1.00  0.00    -0.009 C 
HETATM    3  C   LIG     1      23.557  20.876  18.712  1.00  0.00    -0.067 C 
HETATM    4  C   LIG     1      23.727  22.238  18.095  1.00  0.00     0.035 C 
HETATM    5  C   LIG     1      25.110  22.799  18.381  1.00  0.00     0.010 C 
HETATM    6  C   LIG     1      22.684  20.030  18.137  1.00  0.00     0.053 C 
HETATM    7  C   LIG     1      22.282  18.773  18.779  1.00  0.00     0.149 C 
HETATM    8  O   LIG     1      21.554  17.960  18.151  1.00  0.00    -0.293 OA
HETATM    9  C   LIG     1      23.266  19.685  20.897  1.00  0.00     0.022 C 
HETATM   10  C   LIG     1      22.731  18.443  20.168  1.00  0.00     0.084 C 
HETATM   11  C   LIG     1      24.646  21.874  20.780  1.00  0.00     0.072 C 
HETATM   12  C   LIG     1      25.354  21.721  22.119  1.00  0.00     0.133 C 
HETATM   13  C   LIG     1      26.134  22.884  22.635  1.00  0.00     0.096 C 
HETATM   14  O   LIG     1      25.339  20.683  22.760  1.00  0.00    -0.297 OA
HETATM   15  C   LIG     1      25.398  22.950  19.897  1.00  0.00     0.003 C 
HETATM   16  C   LIG     1      26.945  23.022  20.172  1.00  0.00     0.007 C 
HETATM   17  C   LIG     1      27.619  24.238  19.483  1.00  0.00     0.013 C 
HETATM   18  C   LIG     1      27.832  25.311  20.541  1.00  0.00     0.079 C 
HETATM   19  C   LIG     1      27.770  24.572  21.820  1.00  0.00     0.136 C 
HETATM   20  O   LIG     1      28.050  25.090  22.890  1.00  0.00    -0.297 OA
HETATM   21  C   LIG     1      27.323  23.152  21.687  1.00  0.00     0.027 C 
HETATM   22  C   LIG     1      28.503  22.219  22.031  1.00  0.00     0.024 C 
ENDROOT
TORSDOF 0
ENDMDL
MODEL 7
REMARK VINA RESULT:      -5.2      4.130      6.059
REMARK  0 active torsions:
REMARK  status: ('A' for Active; 'I' for Inactive)
ROOT
HETATM    1  C   LIG     1      26.578  21.508  21.246  1.00  0.00     0.021 C 
HETATM    2  C   LIG     1      25.457  22.574  21.167  1.00  0.00    -0.009 C 
HETATM    3  C   LIG     1      24.298  22.020  20.325  1.00  0.00    -0.067 C 
HETATM    4  C   LIG     1      24.137  22.438  18.888  1.00  0.00     0.035 C 
HETATM    5  C   LIG     1      25.488  22.693  18.239  1.00  0.00     0.010 C 
HETATM    6  C   LIG     1      23.336  21.253  20.868  1.00  0.00     0.053 C 
HETATM    7  C   LIG     1      23.283  20.976  22.308  1.00  0.00     0.149 C 
HETATM    8  O   LIG     1      22.435  20.159  22.753  1.00  0.00    -0.293 OA
HETATM    9  C   LIG     1      24.904  22.866  22.605  1.00  0.00     0.022 C 
HETATM   10  C   LIG     1      24.228  21.649  23.254  1.00  0.00     0.084 C 
HETATM   11  C   LIG     1      25.992  23.907  20.497  1.00  0.00     0.072 C 
HETATM   12  C   LIG     1      27.147  24.601  21.205  1.00  0.00     0.133 C 
HETATM   13  C   LIG     1      27.979  25.557  20.416  1.00  0.00     0.096 C 
HETATM   14  O   LIG     1      27.438  24.378  22.369  1.00  0.00    -0.297 OA
HETATM   15  C   LIG     1      26.295  23.811  18.947  1.00  0.00     0.003 C 
HETATM   16  C   LIG     1      27.828  23.698  18.610  1.00  0.00     0.007 C 
HETATM   17  C   LIG     1      28.119  23.851  17.094  1.00  0.00     0.013 C 
HETATM   18  C   LIG     1      28.627  25.266  16.859  1.00  0.00     0.079 C 
HETATM   19  C   LIG     1      29.085  25.709  18.193  1.00  0.00     0.136 C 
HETATM   20  O   LIG     1      29.699  26.752  18.363  1.00  0.00    -0.297 OA
HETATM   21  C   LIG     1      28.720  24.780  19.307  1.00  0.00     0.027 C 
HETATM   22  C   LIG     1      30.006  24.139  19.869  1.00  0.00     0.024 C 
ENDROOT
TORSDOF 0
ENDMDL
MODEL 8
REMARK VINA RESULT:      -5.2      2.977      4.597
REMARK  0 active torsions:
REMARK  status: ('A' for Active; 'I' for Inactive)
ROOT
HETATM    1  C   LIG     1      25.472  20.230  22.174  1.00  0.00     0.021 C 
HETATM    2  C   LIG     1      24.745  21.399  22.882  1.00  0.00    -0.009 C 
HETATM    3  C   LIG     1      23.238  21.293  22.603  1.00  0.00    -0.067 C 
HETATM    4  C   LIG     1      22.597  22.161  21.553  1.00  0.00     0.035 C 
HETATM    5  C   LIG     1      23.559  22.435  20.409  1.00  0.00     0.010 C 
HETATM    6  C   LIG     1      22.434  20.522  23.357  1.00  0.00     0.053 C 
HETATM    7  C   LIG     1      22.928  19.812  24.544  1.00  0.00     0.149 C 
HETATM    8  O   LIG     1      22.168  19.012  25.149  1.00  0.00    -0.293 OA
HETATM    9  C   LIG     1      24.951  21.289  24.432  1.00  0.00     0.022 C 
HETATM   10  C   LIG     1      24.324  20.025  25.039  1.00  0.00     0.084 C 
HETATM   11  C   LIG     1      25.271  22.797  22.350  1.00  0.00     0.072 C 
HETATM   12  C   LIG     1      26.754  23.078  22.548  1.00  0.00     0.133 C 
HETATM   13  C   LIG     1      27.389  24.120  21.689  1.00  0.00     0.096 C 
HETATM   14  O   LIG     1      27.442  22.463  23.345  1.00  0.00    -0.297 OA
HETATM   15  C   LIG     1      24.851  23.159  20.868  1.00  0.00     0.003 C 
HETATM   16  C   LIG     1      26.008  22.965  19.819  1.00  0.00     0.007 C 
HETATM   17  C   LIG     1      25.657  23.552  18.427  1.00  0.00     0.013 C 
HETATM   18  C   LIG     1      26.366  24.892  18.296  1.00  0.00     0.079 C 
HETATM   19  C   LIG     1      27.445  24.827  19.304  1.00  0.00     0.136 C 
HETATM   20  O   LIG     1      28.321  25.676  19.383  1.00  0.00    -0.297 OA
HETATM   21  C   LIG     1      27.359  23.648  20.220  1.00  0.00     0.027 C 
HETATM   22  C   LIG     1      28.546  22.703  19.936  1.00  0.00     0.024 C 
ENDROOT
TORSDOF 0
ENDMDL
MODEL 9
REMARK VINA RESULT:      -5.1      2.318      6.804
REMARK  0 active torsions:
REMARK  status: ('A' for Active; 'I' for Inactive)
ROOT
HETATM    1  C   LIG     1      25.687  20.385  20.927  1.00  0.00     0.021 C 
HETATM    2  C   LIG     1      24.598  21.470  20.737  1.00  0.00    -0.009 C 
HETATM    3  C   LIG     1      24.756  22.099  19.345  1.00  0.00    -0.067 C 
HETATM    4  C   LIG     1      25.435  23.433  19.187  1.00  0.00     0.035 C 
HETATM    5  C   LIG     1      26.528  23.616  20.227  1.00  0.00     0.010 C 
HETATM    6  C   LIG     1      24.197  21.546  18.254  1.00  0.00     0.053 C 
HETATM    7  C   LIG     1      23.327  20.366  18.340  1.00  0.00     0.149 C 
HETATM    8  O   LIG     1      22.922  19.815  17.283  1.00  0.00    -0.293 OA
HETATM    9  C   LIG     1      23.178  20.810  20.803  1.00  0.00     0.022 C 
HETATM   10  C   LIG     1      22.921  19.807  19.667  1.00  0.00     0.084 C 
HETATM   11  C   LIG     1      24.734  22.605  21.835  1.00  0.00     0.072 C 
HETATM   12  C   LIG     1      24.599  22.160  23.285  1.00  0.00     0.133 C 
HETATM   13  C   LIG     1      25.161  23.047  24.345  1.00  0.00     0.096 C 
HETATM   14  O   LIG     1      24.089  21.100  23.605  1.00  0.00    -0.297 OA
HETATM   15  C   LIG     1      25.995  23.549  21.681  1.00  0.00     0.003 C 
HETATM   16  C   LIG     1      27.156  23.221  22.692  1.00  0.00     0.007 C 
HETATM   17  C   LIG     1      28.270  24.300  22.691  1.00  0.00     0.013 C 
HETATM   18  C   LIG     1      28.060  25.186  23.911  1.00  0.00     0.079 C 
HETATM   19  C   LIG     1      27.220  24.364  24.810  1.00  0.00     0.136 C 
HETATM   20  O   LIG     1      26.972  24.696  25.959  1.00  0.00    -0.297 OA
HETATM   21  C   LIG     1      26.695  23.112  24.184  1.00  0.00     0.027 C 
HETATM   22  C   LIG     1      27.356  21.894  24.865  1.00  0.00     0.024 C 
ENDROOT
TORSDOF 0
ENDMDL
MODEL 10
REMARK VINA RESULT:      -5.1      2.774      3.655
REMARK  0 active torsions:
REMARK  status: ('A' for Active; 'I' for Inactive)
ROOT
HETATM    1  C   LIG     1      27.774  22.365  20.249  1.00  0.00     0.021 C 
HETATM    2  C   LIG     1      26.660  23.264  20.840  1.00  0.00    -0.009 C 
HETATM    3  C   LIG     1      26.660  23.122  22.369  1.00  0.00    -0.067 C 
HETATM    4  C   LIG     1      25.647  22.241  23.050  1.00  0.00     0.035 C 
HETATM    5  C   LIG     1      25.291  21.046  22.180  1.00  0.00     0.010 C 
HETATM    6  C   LIG     1      27.473  23.860  23.145  1.00  0.00     0.053 C 
HETATM    7  C   LIG     1      28.337  24.909  22.589  1.00  0.00     0.149 C 
HETATM    8  O   LIG     1      29.165  25.493  23.337  1.00  0.00    -0.293 OA
HETATM    9  C   LIG     1      26.957  24.765  20.501  1.00  0.00     0.022 C 
HETATM   10  C   LIG     1      28.251  25.288  21.144  1.00  0.00     0.084 C 
HETATM   11  C   LIG     1      25.237  22.841  20.282  1.00  0.00     0.072 C 
HETATM   12  C   LIG     1      25.053  22.925  18.773  1.00  0.00     0.133 C 
HETATM   13  C   LIG     1      23.951  22.128  18.157  1.00  0.00     0.096 C 
HETATM   14  O   LIG     1      25.788  23.579  18.053  1.00  0.00    -0.297 OA
HETATM   15  C   LIG     1      24.687  21.455  20.812  1.00  0.00     0.003 C 
HETATM   16  C   LIG     1      24.815  20.285  19.768  1.00  0.00     0.007 C 
HETATM   17  C   LIG     1      24.056  19.006  20.209  1.00  0.00     0.013 C 
HETATM   18  C   LIG     1      22.745  18.955  19.436  1.00  0.00     0.079 C 
HETATM   19  C   LIG     1      22.978  19.842  18.276  1.00  0.00     0.136 C 
HETATM   20  O   LIG     1      22.188  19.929  17.348  1.00  0.00    -0.297 OA
HETATM   21  C   LIG     1      24.249  20.626  18.348  1.00  0.00     0.027 C 
HETATM   22  C   LIG     1      25.211  20.127  17.250  1.00  0.00     0.024 C 
ENDROOT
TORSDOF 0
ENDMDL
MODEL 11
REMARK VINA RESULT:      -5.0      3.507      6.027
REMARK  0 active torsions:
REMARK  status: ('A' for Active; 'I' for Inactive)
ROOT
HETATM    1  C   LIG     1      25.526  20.507  26.105  1.00  0.00     0.021 C 
HETATM    2  C   LIG     1      24.341  21.449  25.775  1.00  0.00    -0.009 C 
HETATM    3  C   LIG     1      23.503  20.825  24.650  1.00  0.00    -0.067 C 
HETATM    4  C   LIG     1      23.657  21.307  23.232  1.00  0.00     0.035 C 
HETATM    5  C   LIG     1      25.087  21.744  22.956  1.00  0.00     0.010 C 
HETATM    6  C   LIG     1      22.535  19.927  24.906  1.00  0.00     0.053 C 
HETATM    7  C   LIG     1      22.158  19.562  26.277  1.00  0.00     0.149 C 
HETATM    8  O   LIG     1      21.329  18.633  26.467  1.00  0.00    -0.293 OA
HETATM    9  C   LIG     1      23.417  21.595  27.033  1.00  0.00     0.022 C 
HETATM   10  C   LIG     1      22.750  20.275  27.452  1.00  0.00     0.084 C 
HETATM   11  C   LIG     1      24.864  22.869  25.303  1.00  0.00     0.072 C 
HETATM   12  C   LIG     1      25.714  23.641  26.303  1.00  0.00     0.133 C 
HETATM   13  C   LIG     1      26.597  24.725  25.780  1.00  0.00     0.096 C 
HETATM   14  O   LIG     1      25.731  23.382  27.494  1.00  0.00    -0.297 OA
HETATM   15  C   LIG     1      25.553  22.899  23.879  1.00  0.00     0.003 C 
HETATM   16  C   LIG     1      27.123  22.972  23.940  1.00  0.00     0.007 C 
HETATM   17  C   LIG     1      27.763  23.245  22.553  1.00  0.00     0.013 C 
HETATM   18  C   LIG     1      28.141  24.718  22.498  1.00  0.00     0.079 C 
HETATM   19  C   LIG     1      28.196  25.128  23.918  1.00  0.00     0.136 C 
HETATM   20  O   LIG     1      28.619  26.218  24.269  1.00  0.00    -0.297 OA
HETATM   21  C   LIG     1      27.678  24.101  24.873  1.00  0.00     0.027 C 
HETATM   22  C   LIG     1      28.850  23.569  25.725  1.00  0.00     0.024 C 
ENDROOT
TORSDOF 0
ENDMDL
MODEL 12
REMARK VINA RESULT:      -5.0      4.060      6.497
REMARK  0 active torsions:
REMARK  status: ('A' for Active; 'I' for Inactive)
ROOT
HETATM    1  C   LIG     1      28.118  22.600  19.091  1.00  0.00     0.021 C 
HETATM    2  C   LIG     1      27.386  23.961  19.192  1.00  0.00    -0.009 C 
HETATM    3  C   LIG     1      28.289  24.961  19.929  1.00  0.00    -0.067 C 
HETATM    4  C   LIG     1      28.053  25.268  21.384  1.00  0.00     0.035 C 
HETATM    5  C   LIG     1      27.518  24.051  22.119  1.00  0.00     0.010 C 
HETATM    6  C   LIG     1      29.227  25.674  19.280  1.00  0.00     0.053 C 
HETATM    7  C   LIG     1      29.382  25.609  17.822  1.00  0.00     0.149 C 
HETATM    8  O   LIG     1      30.347  26.202  17.273  1.00  0.00    -0.293 OA
HETATM    9  C   LIG     1      27.121  24.527  17.755  1.00  0.00     0.022 C 
HETATM   10  C   LIG     1      28.410  24.843  16.980  1.00  0.00     0.084 C 
HETATM   11  C   LIG     1      26.024  23.811  19.989  1.00  0.00     0.072 C 
HETATM   12  C   LIG     1      24.997  22.855  19.396  1.00  0.00     0.133 C 
HETATM   13  C   LIG     1      23.933  22.324  20.297  1.00  0.00     0.096 C 
HETATM   14  O   LIG     1      25.037  22.481  18.236  1.00  0.00    -0.297 OA
HETATM   15  C   LIG     1      26.172  23.540  21.541  1.00  0.00     0.003 C 
HETATM   16  C   LIG     1      25.917  22.042  21.947  1.00  0.00     0.007 C 
HETATM   17  C   LIG     1      25.827  21.847  23.484  1.00  0.00     0.013 C 
HETATM   18  C   LIG     1      24.355  21.731  23.851  1.00  0.00     0.079 C 
HETATM   19  C   LIG     1      23.696  21.363  22.580  1.00  0.00     0.136 C 
HETATM   20  O   LIG     1      22.520  21.037  22.522  1.00  0.00    -0.297 OA
HETATM   21  C   LIG     1      24.587  21.441  21.382  1.00  0.00     0.027 C 
HETATM   22  C   LIG     1      24.826  20.016  20.839  1.00  0.00     0.024 C 
ENDROOT
TORSDOF 0
ENDMDL
MODEL 13
REMARK VINA RESULT:      -4.8      2.475      4.369
REMARK  0 active torsions:
REMARK  status: ('A' for Active; 'I' for Inactive)
ROOT
HETATM    1  C   LIG     1      25.965  19.724  27.014  1.00  0.00     0.021 C 
HETATM    2  C   LIG     1      25.013  20.785  27.620  1.00  0.00    -0.009 C 
HETATM    3  C   LIG     1      23.853  20.069  28.328  1.00  0.00    -0.067 C 
HETATM    4  C   LIG     1      22.512  19.947  27.655  1.00  0.00     0.035 C 
HETATM    5  C   LIG     1      22.667  19.825  26.148  1.00  0.00     0.010 C 
HETATM    6  C   LIG     1      23.959  19.643  29.600  1.00  0.00     0.053 C 
HETATM    7  C   LIG     1      25.149  19.916  30.414  1.00  0.00     0.149 C 
HETATM    8  O   LIG     1      25.252  19.398  31.557  1.00  0.00    -0.293 OA
HETATM    9  C   LIG     1      25.779  21.630  28.695  1.00  0.00     0.022 C 
HETATM   10  C   LIG     1      26.243  20.799  29.902  1.00  0.00     0.084 C 
HETATM   11  C   LIG     1      24.425  21.727  26.489  1.00  0.00     0.072 C 
HETATM   12  C   LIG     1      25.439  22.524  25.681  1.00  0.00     0.133 C 
HETATM   13  C   LIG     1      25.018  23.047  24.348  1.00  0.00     0.096 C 
HETATM   14  O   LIG     1      26.583  22.715  26.061  1.00  0.00    -0.297 OA
HETATM   15  C   LIG     1      23.381  21.046  25.514  1.00  0.00     0.003 C 
HETATM   16  C   LIG     1      23.979  20.680  24.106  1.00  0.00     0.007 C 
HETATM   17  C   LIG     1      22.892  20.242  23.090  1.00  0.00     0.013 C 
HETATM   18  C   LIG     1      22.615  21.423  22.170  1.00  0.00     0.079 C 
HETATM   19  C   LIG     1      23.812  22.277  22.312  1.00  0.00     0.136 C 
HETATM   20  O   LIG     1      24.012  23.250  21.601  1.00  0.00    -0.297 OA
HETATM   21  C   LIG     1      24.741  21.856  23.406  1.00  0.00     0.027 C 
HETATM   22  C   LIG     1      26.058  21.350  22.781  1.00  0.00     0.024 C 
ENDROOT
TORSDOF 0
ENDMDL
MODEL 14
REMARK VINA RESULT:      -4.8      1.521      1.954
REMARK  0 active torsions:
REMARK  status: ('A' for Active; 'I' for Inactive)
ROOT
HETATM    1  C   LIG     1      26.827  21.246  23.899  1.00  0.00     0.021 C 
HETATM    2  C   LIG     1      25.715  22.278  24.208  1.00  0.00    -0.009 C 
HETATM    3  C   LIG     1      24.751  21.680  25.243  1.00  0.00    -0.067 C 
HETATM    4  C   LIG     1      23.430  21.103  24.806  1.00  0.00     0.035 C 
HETATM    5  C   LIG     1      23.537  20.480  23.424  1.00  0.00     0.010 C 
HETATM    6  C   LIG     1      24.995  21.758  26.563  1.00  0.00     0.053 C 
HETATM    7  C   LIG     1      26.145  22.499  27.098  1.00  0.00     0.149 C 
HETATM    8  O   LIG     1      26.399  22.447  28.329  1.00  0.00    -0.293 OA
HETATM    9  C   LIG     1      26.349  23.566  24.838  1.00  0.00     0.022 C 
HETATM   10  C   LIG     1      27.021  23.310  26.196  1.00  0.00     0.084 C 
HETATM   11  C   LIG     1      24.903  22.643  22.897  1.00  0.00     0.072 C 
HETATM   12  C   LIG     1      25.704  23.258  21.757  1.00  0.00     0.133 C 
HETATM   13  C   LIG     1      25.129  23.193  20.382  1.00  0.00     0.096 C 
HETATM   14  O   LIG     1      26.804  23.759  21.919  1.00  0.00    -0.297 OA
HETATM   15  C   LIG     1      23.969  21.496  22.336  1.00  0.00     0.003 C 
HETATM   16  C   LIG     1      24.563  20.757  21.080  1.00  0.00     0.007 C 
HETATM   17  C   LIG     1      23.536  19.811  20.403  1.00  0.00     0.013 C 
HETATM   18  C   LIG     1      22.992  20.522  19.172  1.00  0.00     0.079 C 
HETATM   19  C   LIG     1      24.005  21.559  18.879  1.00  0.00     0.136 C 
HETATM   20  O   LIG     1      23.978  22.233  17.861  1.00  0.00    -0.297 OA
HETATM   21  C   LIG     1      25.047  21.716  19.940  1.00  0.00     0.027 C 
HETATM   22  C   LIG     1      26.408  21.248  19.383  1.00  0.00     0.024 C 
ENDROOT
TORSDOF 0
ENDMDL
MODEL 15
REMARK VINA RESULT:      -4.8      3.601      5.731
REMARK  0 active torsions:
REMARK  status: ('A' for Active; 'I' for Inactive)
ROOT
HETATM    1  C   LIG     1      28.561  23.025  25.873  1.00  0.00     0.021 C 
HETATM    2  C   LIG     1      27.622  24.257  25.868  1.00  0.00    -0.009 C 
HETATM    3  C   LIG     1      27.527  24.820  27.294  1.00  0.00    -0.067 C 
HETATM    4  C   LIG     1      26.331  24.512  28.154  1.00  0.00     0.035 C 
HETATM    5  C   LIG     1      25.784  23.127  27.851  1.00  0.00     0.010 C 
HETATM    6  C   LIG     1      28.436  25.691  27.770  1.00  0.00     0.053 C 
HETATM    7  C   LIG     1      29.514  26.226  26.929  1.00  0.00     0.149 C 
HETATM    8  O   LIG     1      30.407  26.945  27.448  1.00  0.00    -0.293 OA
HETATM    9  C   LIG     1      28.225  25.377  24.952  1.00  0.00     0.022 C 
HETATM   10  C   LIG     1      29.568  25.922  25.465  1.00  0.00     0.084 C 
HETATM   11  C   LIG     1      26.170  23.858  25.373  1.00  0.00     0.072 C 
HETATM   12  C   LIG     1      26.072  23.282  23.967  1.00  0.00     0.133 C 
HETATM   13  C   LIG     1      24.862  22.478  23.623  1.00  0.00     0.096 C 
HETATM   14  O   LIG     1      26.953  23.417  23.135  1.00  0.00    -0.297 OA
HETATM   15  C   LIG     1      25.333  22.965  26.376  1.00  0.00     0.003 C 
HETATM   16  C   LIG     1      25.273  21.446  25.970  1.00  0.00     0.007 C 
HETATM   17  C   LIG     1      24.257  20.640  26.821  1.00  0.00     0.013 C 
HETATM   18  C   LIG     1      22.997  20.454  25.986  1.00  0.00     0.079 C 
HETATM   19  C   LIG     1      23.451  20.675  24.597  1.00  0.00     0.136 C 
HETATM   20  O   LIG     1      22.735  20.459  23.631  1.00  0.00    -0.297 OA
HETATM   21  C   LIG     1      24.848  21.196  24.483  1.00  0.00     0.027 C 
HETATM   22  C   LIG     1      25.740  20.112  23.842  1.00  0.00     0.024 C 
ENDROOT
TORSDOF 0
ENDMDL
MODEL 16
REMARK VINA RESULT:      -4.7      3.784      7.317
REMARK  0 active torsions:
REMARK  status: ('A' for Active; 'I' for Inactive)
ROOT
HETATM    1  C   LIG     1      26.209  21.005  26.197  1.00  0.00     0.021 C 
HETATM    2  C   LIG     1      25.105  22.061  25.942  1.00  0.00    -0.009 C 
HETATM    3  C   LIG     1      24.490  21.817  24.556  1.00  0.00    -0.067 C 
HETATM    4  C   LIG     1      24.903  22.665  23.383  1.00  0.00     0.035 C 
HETATM    5  C   LIG     1      26.358  23.088  23.500  1.00  0.00     0.010 C 
HETATM    6  C   LIG     1      23.492  20.934  24.373  1.00  0.00     0.053 C 
HETATM    7  C   LIG     1      22.869  20.222  25.495  1.00  0.00     0.149 C 
HETATM    8  O   LIG     1      22.020  19.321  25.265  1.00  0.00    -0.293 OA
HETATM    9  C   LIG     1      23.964  21.898  27.005  1.00  0.00     0.022 C 
HETATM   10  C   LIG     1      23.233  20.550  26.909  1.00  0.00     0.084 C 
HETATM   11  C   LIG     1      25.704  23.527  25.991  1.00  0.00     0.072 C 
HETATM   12  C   LIG     1      26.355  23.947  27.302  1.00  0.00     0.133 C 
HETATM   13  C   LIG     1      27.318  25.087  27.273  1.00  0.00     0.096 C 
HETATM   14  O   LIG     1      26.151  23.367  28.356  1.00  0.00    -0.297 OA
HETATM   15  C   LIG     1      26.645  23.916  24.779  1.00  0.00     0.003 C 
HETATM   16  C   LIG     1      28.177  23.889  25.136  1.00  0.00     0.007 C 
HETATM   17  C   LIG     1      29.061  24.503  24.019  1.00  0.00     0.013 C 
HETATM   18  C   LIG     1      29.441  25.912  24.450  1.00  0.00     0.079 C 
HETATM   19  C   LIG     1      29.233  25.908  25.914  1.00  0.00     0.136 C 
HETATM   20  O   LIG     1      29.583  26.835  26.628  1.00  0.00    -0.297 OA
HETATM   21  C   LIG     1      28.549  24.684  26.433  1.00  0.00     0.027 C 
HETATM   22  C   LIG     1      29.544  23.878  27.294  1.00  0.00     0.024 C 
ENDROOT
TORSDOF 0
ENDMDL
MODEL 17
REMARK VINA RESULT:      -4.7      3.070      5.241
REMARK  0 active torsions:
REMARK  status: ('A' for Active; 'I' for Inactive)
ROOT
HETATM    1  C   LIG     1      26.831  22.253  20.019  1.00  0.00     0.021 C 
HETATM    2  C   LIG     1      26.239  23.446  20.808  1.00  0.00    -0.009 C 
HETATM    3  C   LIG     1      27.346  24.078  21.665  1.00  0.00    -0.067 C 
HETATM    4  C   LIG     1      27.437  23.770  23.136  1.00  0.00     0.035 C 
HETATM    5  C   LIG     1      26.975  22.351  23.425  1.00  0.00     0.010 C 
HETATM    6  C   LIG     1      28.182  25.006  21.165  1.00  0.00     0.053 C 
HETATM    7  C   LIG     1      28.029  25.537  19.805  1.00  0.00     0.149 C 
HETATM    8  O   LIG     1      28.903  26.315  19.340  1.00  0.00    -0.293 OA
HETATM    9  C   LIG     1      25.728  24.540  19.808  1.00  0.00     0.022 C 
HETATM   10  C   LIG     1      26.851  25.161  18.962  1.00  0.00     0.084 C 
HETATM   11  C   LIG     1      25.062  22.968  21.756  1.00  0.00     0.072 C 
HETATM   12  C   LIG     1      23.868  22.317  21.072  1.00  0.00     0.133 C 
HETATM   13  C   LIG     1      22.974  21.452  21.897  1.00  0.00     0.096 C 
HETATM   14  O   LIG     1      23.640  22.442  19.880  1.00  0.00    -0.297 OA
HETATM   15  C   LIG     1      25.506  22.097  23.000  1.00  0.00     0.003 C 
HETATM   16  C   LIG     1      25.228  20.559  22.825  1.00  0.00     0.007 C 
HETATM   17  C   LIG     1      25.441  19.760  24.137  1.00  0.00     0.013 C 
HETATM   18  C   LIG     1      24.071  19.484  24.740  1.00  0.00     0.079 C 
HETATM   19  C   LIG     1      23.139  19.650  23.603  1.00  0.00     0.136 C 
HETATM   20  O   LIG     1      21.956  19.357  23.678  1.00  0.00    -0.297 OA
HETATM   21  C   LIG     1      23.769  20.216  22.372  1.00  0.00     0.027 C 
HETATM   22  C   LIG     1      23.785  19.135  21.271  1.00  0.00     0.024 C 
ENDROOT
TORSDOF 0
ENDMDL
MODEL 18
REMARK VINA RESULT:      -4.7      3.406      5.708
REMARK  0 active torsions:
REMARK  status: ('A' for Active; 'I' for Inactive)
ROOT
HETATM    1  C   LIG     1      27.530  21.883  24.488  1.00  0.00     0.021 C 
HETATM    2  C   LIG     1      26.569  23.052  24.160  1.00  0.00    -0.009 C 
HETATM    3  C   LIG     1      26.928  24.257  25.043  1.00  0.00    -0.067 C 
HETATM    4  C   LIG     1      26.115  24.566  26.272  1.00  0.00     0.035 C 
HETATM    5  C   LIG     1      25.587  23.292  26.911  1.00  0.00     0.010 C 
HETATM    6  C   LIG     1      27.886  25.131  24.687  1.00  0.00     0.053 C 
HETATM    7  C   LIG     1      28.580  25.041  23.396  1.00  0.00     0.149 C 
HETATM    8  O   LIG     1      29.548  25.808  23.157  1.00  0.00    -0.293 OA
HETATM    9  C   LIG     1      26.754  23.484  22.665  1.00  0.00     0.022 C 
HETATM   10  C   LIG     1      28.153  24.044  22.364  1.00  0.00     0.084 C 
HETATM   11  C   LIG     1      25.063  22.640  24.436  1.00  0.00     0.072 C 
HETATM   12  C   LIG     1      24.532  21.457  23.639  1.00  0.00     0.133 C 
HETATM   13  C   LIG     1      23.330  20.743  24.162  1.00  0.00     0.096 C 
HETATM   14  O   LIG     1      25.068  21.051  22.621  1.00  0.00    -0.297 OA
HETATM   15  C   LIG     1      24.675  22.474  25.961  1.00  0.00     0.003 C 
HETATM   16  C   LIG     1      24.576  20.975  26.428  1.00  0.00     0.007 C 
HETATM   17  C   LIG     1      23.962  20.830  27.845  1.00  0.00     0.013 C 
HETATM   18  C   LIG     1      22.509  20.408  27.680  1.00  0.00     0.079 C 
HETATM   19  C   LIG     1      22.450  19.851  26.312  1.00  0.00     0.136 C 
HETATM   20  O   LIG     1      21.465  19.271  25.882  1.00  0.00    -0.297 OA
HETATM   21  C   LIG     1      23.690  20.072  25.506  1.00  0.00     0.027 C 
HETATM   22  C   LIG     1      24.378  18.713  25.258  1.00  0.00     0.024 C 
ENDROOT
TORSDOF 0
ENDMDL
MODEL 19
REMARK VINA RESULT:      -4.6      2.564      3.469
REMARK  0 active torsions:
REMARK  status: ('A' for Active; 'I' for Inactive)
ROOT
HETATM    1  C   LIG     1      28.027  22.161  23.195  1.00  0.00     0.021 C 
HETATM    2  C   LIG     1      27.240  23.475  23.421  1.00  0.00    -0.009 C 
HETATM    3  C   LIG     1      26.482  23.382  24.753  1.00  0.00    -0.067 C 
HETATM    4  C   LIG     1      25.011  23.061  24.769  1.00  0.00     0.035 C 
HETATM    5  C   LIG     1      24.643  22.132  23.623  1.00  0.00     0.010 C 
HETATM    6  C   LIG     1      27.068  23.697  25.922  1.00  0.00     0.053 C 
HETATM    7  C   LIG     1      28.431  24.237  25.987  1.00  0.00     0.149 C 
HETATM    8  O   LIG     1      28.980  24.407  27.107  1.00  0.00    -0.293 OA
HETATM    9  C   LIG     1      28.240  24.678  23.526  1.00  0.00     0.022 C 
HETATM   10  C   LIG     1      29.180  24.583  24.737  1.00  0.00     0.084 C 
HETATM   11  C   LIG     1      26.199  23.719  22.250  1.00  0.00     0.072 C 
HETATM   12  C   LIG     1      26.779  23.843  20.848  1.00  0.00     0.133 C 
HETATM   13  C   LIG     1      25.867  23.609  19.690  1.00  0.00     0.096 C 
HETATM   14  O   LIG     1      27.956  24.085  20.639  1.00  0.00    -0.297 OA
HETATM   15  C   LIG     1      24.959  22.737  22.231  1.00  0.00     0.003 C 
HETATM   16  C   LIG     1      25.064  21.609  21.138  1.00  0.00     0.007 C 
HETATM   17  C   LIG     1      23.743  20.814  20.972  1.00  0.00     0.013 C 
HETATM   18  C   LIG     1      23.040  21.336  19.727  1.00  0.00     0.079 C 
HETATM   19  C   LIG     1      24.116  22.000  18.960  1.00  0.00     0.136 C 
HETATM   20  O   LIG     1      23.952  22.410  17.821  1.00  0.00    -0.297 OA
HETATM   21  C   LIG     1      25.406  22.136  19.704  1.00  0.00     0.027 C 
HETATM   22  C   LIG     1      26.468  21.236  19.038  1.00  0.00     0.024 C 
ENDROOT
TORSDOF 0
ENDMDL
MODEL 20
REMARK VINA RESULT:      -4.5      2.195      6.914
REMARK  0 active torsions:
REMARK  status: ('A' for Active; 'I' for Inactive)
ROOT
HETATM    1  C   LIG     1      25.509  20.642  22.015  1.00  0.00     0.021 C 
HETATM    2  C   LIG     1      24.900  22.066  22.019  1.00  0.00    -0.009 C 
HETATM    3  C   LIG     1      25.625  22.923  20.971  1.00  0.00    -0.067 C 
HETATM    4  C   LIG     1      26.692  23.898  21.394  1.00  0.00     0.035 C 
HETATM    5  C   LIG     1      27.452  23.383  22.605  1.00  0.00     0.010 C 
HETATM    6  C   LIG     1      25.253  22.921  19.679  1.00  0.00     0.053 C 
HETATM    7  C   LIG     1      24.079  22.175  19.209  1.00  0.00     0.149 C 
HETATM    8  O   LIG     1      23.839  22.107  17.976  1.00  0.00    -0.293 OA
HETATM    9  C   LIG     1      23.388  21.995  21.613  1.00  0.00     0.022 C 
HETATM   10  C   LIG     1      23.168  21.489  20.179  1.00  0.00     0.084 C 
HETATM   11  C   LIG     1      25.061  22.745  23.443  1.00  0.00     0.072 C 
HETATM   12  C   LIG     1      24.396  22.029  24.610  1.00  0.00     0.133 C 
HETATM   13  C   LIG     1      24.881  22.336  25.988  1.00  0.00     0.096 C 
HETATM   14  O   LIG     1      23.520  21.194  24.460  1.00  0.00    -0.297 OA
HETATM   15  C   LIG     1      26.538  23.151  23.836  1.00  0.00     0.003 C 
HETATM   16  C   LIG     1      27.213  22.165  24.860  1.00  0.00     0.007 C 
HETATM   17  C   LIG     1      28.556  22.707  25.416  1.00  0.00     0.013 C 
HETATM   18  C   LIG     1      28.291  23.262  26.808  1.00  0.00     0.079 C 
HETATM   19  C   LIG     1      27.025  22.616  27.217  1.00  0.00     0.136 C 
HETATM   20  O   LIG     1      26.578  22.710  28.350  1.00  0.00    -0.297 OA
HETATM   21  C   LIG     1      26.342  21.858  26.125  1.00  0.00     0.027 C 
HETATM   22  C   LIG     1      26.384  20.351  26.456  1.00  0.00     0.024 C 
ENDROOT
TORSDOF 0
ENDMDL
