REMARK  0 active torsions:
REMARK  status: ('A' for Active; 'I' for Inactive)
ROOT
HETATM    1  C   LIG     1      -1.612  -1.530   0.060  1.00  0.00     0.021 C 
HETATM    2  C   LIG     1      -1.758  -0.007   0.300  1.00  0.00    -0.009 C 
HETATM    3  C   LIG     1      -2.353   0.643  -0.958  1.00  0.00    -0.067 C 
HETATM    4  C   LIG     1      -1.462   1.367  -1.932  1.00  0.00     0.035 C 
HETATM    5  C   LIG     1      -0.085   0.727  -1.992  1.00  0.00     0.010 C 
HETATM    6  C   LIG     1      -3.681   0.691  -1.166  1.00  0.00     0.053 C 
HETATM    7  C   LIG     1      -4.642   0.212  -0.165  1.00  0.00     0.149 C 
HETATM    8  O   LIG     1      -5.867   0.169  -0.451  1.00  0.00    -0.293 OA
HETATM    9  C   LIG     1      -2.753   0.248   1.484  1.00  0.00     0.022 C 
HETATM   10  C   LIG     1      -4.183  -0.231   1.189  1.00  0.00     0.084 C 
HETATM   11  C   LIG     1      -0.350   0.654   0.606  1.00  0.00     0.072 C 
HETATM   12  C   LIG     1       0.388   0.131   1.831  1.00  0.00     0.133 C 
HETATM   13  C   LIG     1       1.861   0.357   1.910  1.00  0.00     0.096 C 
HETATM   14  O   LIG     1      -0.167  -0.493   2.720  1.00  0.00    -0.297 OA
HETATM   15  C   LIG     1       0.643   0.733  -0.623  1.00  0.00     0.003 C 
HETATM   16  C   LIG     1       1.781  -0.353  -0.586  1.00  0.00     0.007 C 
HETATM   17  C   LIG     1       2.876  -0.108  -1.657  1.00  0.00     0.013 C 
HETATM   18  C   LIG     1       4.072   0.526  -0.961  1.00  0.00     0.079 C 
HETATM   19  C   LIG     1       3.879   0.186   0.465  1.00  0.00     0.136 C 
HETATM   20  O   LIG     1       4.732   0.404   1.312  1.00  0.00    -0.297 OA
HETATM   21  C   LIG     1       2.552  -0.429   0.775  1.00  0.00     0.027 C 
HETATM   22  C   LIG     1       2.764  -1.899   1.194  1.00  0.00     0.024 C 
ENDROOT
TORSDOF 0
