REMARK  1 active torsions:
REMARK  status: ('A' for Active; 'I' for Inactive)
REMARK    1  A    between atoms: C_7  and  C_11 
ROOT
HETATM    1 CL   LIG     1      -0.544   0.610   2.725  1.00  0.00    -0.082 Cl
HETATM    2  C   LIG     1      -1.424   0.385   1.209  1.00  0.00     0.068 A 
HETATM    3  C   LIG     1      -2.827   0.510   1.193  1.00  0.00     0.080 A 
HETATM    4 CL   LIG     1      -3.692   0.952   2.668  1.00  0.00    -0.081 Cl
HETATM    5  C   LIG     1      -3.543   0.276   0.004  1.00  0.00     0.079 A 
HETATM    6 CL   LIG     1      -5.301   0.432  -0.022  1.00  0.00    -0.081 Cl
HETATM    7  C   LIG     1      -0.737   0.032   0.027  1.00  0.00    -0.001 A 
HETATM    8  C   LIG     1      -1.465  -0.211  -1.147  1.00  0.00     0.039 A 
HETATM    9  C   LIG     1      -2.855  -0.088  -1.164  1.00  0.00     0.058 A 
HETATM   10 CL   LIG     1      -3.710  -0.396  -2.670  1.00  0.00    -0.082 Cl
ENDROOT
BRANCH   7  11
HETATM   11  C   LIG     1       0.737  -0.092  -0.009  1.00  0.00    -0.022 A 
HETATM   12  C   LIG     1       1.333  -1.299  -0.408  1.00  0.00     0.014 A 
HETATM   13  C   LIG     1       2.725  -1.414  -0.460  1.00  0.00     0.026 A 
HETATM   14  C   LIG     1       3.537  -0.326  -0.122  1.00  0.00     0.055 A 
HETATM   15  C   LIG     1       2.948   0.890   0.265  1.00  0.00     0.056 A 
HETATM   16 CL   LIG     1       5.284  -0.510  -0.199  1.00  0.00    -0.083 Cl
HETATM   17 CL   LIG     1       3.931   2.286   0.686  1.00  0.00    -0.083 Cl
HETATM   18  C   LIG     1       1.553   1.003   0.315  1.00  0.00     0.038 A 
ENDBRANCH   7  11
TORSDOF 1
