MODEL 1
REMARK VINA RESULT:      -4.9      0.000      0.000
REMARK  1 active torsions:
REMARK  status: ('A' for Active; 'I' for Inactive)
REMARK    1  A    between atoms: C_5  and  C_6 
ROOT
HETATM    1 CL   LIG     1      27.027  32.544  38.130  1.00  0.00    -0.082 Cl
HETATM    2  C   LIG     1      27.157  31.365  36.830  1.00  0.00     0.057 A 
HETATM    3  C   LIG     1      26.141  31.308  35.874  1.00  0.00     0.026 A 
HETATM    4  C   LIG     1      26.208  30.386  34.830  1.00  0.00     0.016 A 
HETATM    5  C   LIG     1      27.296  29.508  34.727  1.00  0.00    -0.001 A 
HETATM    6  C   LIG     1      28.327  29.560  35.688  1.00  0.00     0.068 A 
HETATM    7 CL   LIG     1      29.722  28.483  35.556  1.00  0.00    -0.082 Cl
HETATM    8  C   LIG     1      28.256  30.492  36.741  1.00  0.00     0.078 A 
HETATM    9 CL   LIG     1      29.541  30.570  37.948  1.00  0.00    -0.081 Cl
ENDROOT
BRANCH   5  10
HETATM   10  C   LIG     1      27.329  28.534  33.615  1.00  0.00    -0.001 A 
HETATM   11  C   LIG     1      26.541  27.378  33.699  1.00  0.00     0.016 A 
HETATM   12  C   LIG     1      26.541  26.447  32.661  1.00  0.00     0.026 A 
HETATM   13  C   LIG     1      27.325  26.657  31.525  1.00  0.00     0.057 A 
HETATM   14  C   LIG     1      28.122  27.811  31.423  1.00  0.00     0.078 A 
HETATM   15 CL   LIG     1      27.291  25.453  30.242  1.00  0.00    -0.082 Cl
HETATM   16 CL   LIG     1      29.116  28.071  29.989  1.00  0.00    -0.081 Cl
HETATM   17  C   LIG     1      28.125  28.754  32.470  1.00  0.00     0.068 A 
HETATM   18 CL   LIG     1      29.148  30.190  32.361  1.00  0.00    -0.082 Cl
ENDBRANCH   5  10
TORSDOF 1
ENDMDL
MODEL 2
REMARK VINA RESULT:      -4.7     13.314     16.488
REMARK  1 active torsions:
REMARK  status: ('A' for Active; 'I' for Inactive)
REMARK    1  A    between atoms: C_5  and  C_6 
ROOT
HETATM    1 CL   LIG     1      28.845  25.708  22.412  1.00  0.00    -0.082 Cl
HETATM    2  C   LIG     1      27.740  24.692  21.494  1.00  0.00     0.057 A 
HETATM    3  C   LIG     1      27.285  23.506  22.071  1.00  0.00     0.026 A 
HETATM    4  C   LIG     1      26.409  22.674  21.374  1.00  0.00     0.016 A 
HETATM    5  C   LIG     1      25.974  23.020  20.088  1.00  0.00    -0.001 A 
HETATM    6  C   LIG     1      26.429  24.218  19.497  1.00  0.00     0.068 A 
HETATM    7 CL   LIG     1      25.867  24.687  17.888  1.00  0.00    -0.082 Cl
HETATM    8  C   LIG     1      27.314  25.055  20.203  1.00  0.00     0.078 A 
HETATM    9 CL   LIG     1      27.887  26.558  19.478  1.00  0.00    -0.081 Cl
ENDROOT
BRANCH   5  10
HETATM   10  C   LIG     1      25.056  22.109  19.370  1.00  0.00    -0.001 A 
HETATM   11  C   LIG     1      23.689  22.139  19.680  1.00  0.00     0.016 A 
HETATM   12  C   LIG     1      22.796  21.302  19.011  1.00  0.00     0.026 A 
HETATM   13  C   LIG     1      23.254  20.426  18.024  1.00  0.00     0.057 A 
HETATM   14  C   LIG     1      24.623  20.384  17.701  1.00  0.00     0.078 A 
HETATM   15 CL   LIG     1      22.089  19.391  17.208  1.00  0.00    -0.082 Cl
HETATM   16 CL   LIG     1      25.199  19.273  16.457  1.00  0.00    -0.081 Cl
HETATM   17  C   LIG     1      25.527  21.227  18.374  1.00  0.00     0.068 A 
HETATM   18 CL   LIG     1      27.251  21.155  17.994  1.00  0.00    -0.082 Cl
ENDBRANCH   5  10
TORSDOF 1
ENDMDL
MODEL 3
REMARK VINA RESULT:      -4.7     13.343     17.246
REMARK  1 active torsions:
REMARK  status: ('A' for Active; 'I' for Inactive)
REMARK    1  A    between atoms: C_5  and  C_6 
ROOT
HETATM    1 CL   LIG     1      22.128  19.335  17.124  1.00  0.00    -0.082 Cl
HETATM    2  C   LIG     1      23.276  20.378  17.954  1.00  0.00     0.057 A 
HETATM    3  C   LIG     1      22.809  21.215  18.969  1.00  0.00     0.026 A 
HETATM    4  C   LIG     1      23.689  22.057  19.648  1.00  0.00     0.016 A 
HETATM    5  C   LIG     1      25.052  22.071  19.322  1.00  0.00    -0.001 A 
HETATM    6  C   LIG     1      25.533  21.228  18.298  1.00  0.00     0.068 A 
HETATM    7 CL   LIG     1      27.253  21.209  17.895  1.00  0.00    -0.082 Cl
HETATM    8  C   LIG     1      24.641  20.380  17.613  1.00  0.00     0.078 A 
HETATM    9 CL   LIG     1      25.230  19.317  16.334  1.00  0.00    -0.081 Cl
ENDROOT
BRANCH   5  10
HETATM   10  C   LIG     1      25.956  22.985  20.053  1.00  0.00    -0.001 A 
HETATM   11  C   LIG     1      26.397  22.625  21.334  1.00  0.00     0.016 A 
HETATM   12  C   LIG     1      27.261  23.460  22.043  1.00  0.00     0.026 A 
HETATM   13  C   LIG     1      27.697  24.663  21.483  1.00  0.00     0.057 A 
HETATM   14  C   LIG     1      27.265  25.039  20.199  1.00  0.00     0.078 A 
HETATM   15 CL   LIG     1      28.787  25.681  22.416  1.00  0.00    -0.082 Cl
HETATM   16 CL   LIG     1      27.813  26.561  19.497  1.00  0.00    -0.081 Cl
HETATM   17  C   LIG     1      26.392  24.199  19.480  1.00  0.00     0.068 A 
HETATM   18 CL   LIG     1      25.821  24.683  17.879  1.00  0.00    -0.082 Cl
ENDBRANCH   5  10
TORSDOF 1
ENDMDL
MODEL 4
REMARK VINA RESULT:      -4.7     15.446     16.928
REMARK  1 active torsions:
REMARK  status: ('A' for Active; 'I' for Inactive)
REMARK    1  A    between atoms: C_5  and  C_6 
ROOT
HETATM    1 CL   LIG     1      29.011  27.511  18.237  1.00  0.00    -0.082 Cl
HETATM    2  C   LIG     1      28.021  26.069  18.428  1.00  0.00     0.057 A 
HETATM    3  C   LIG     1      26.898  26.133  19.254  1.00  0.00     0.026 A 
HETATM    4  C   LIG     1      26.089  25.010  19.432  1.00  0.00     0.016 A 
HETATM    5  C   LIG     1      26.393  23.807  18.781  1.00  0.00    -0.001 A 
HETATM    6  C   LIG     1      27.526  23.734  17.943  1.00  0.00     0.068 A 
HETATM    7 CL   LIG     1      27.907  22.234  17.090  1.00  0.00    -0.082 Cl
HETATM    8  C   LIG     1      28.341  24.869  17.767  1.00  0.00     0.078 A 
HETATM    9 CL   LIG     1      29.759  24.793  16.719  1.00  0.00    -0.081 Cl
ENDROOT
BRANCH   5  10
HETATM   10  C   LIG     1      25.523  22.631  19.001  1.00  0.00    -0.001 A 
HETATM   11  C   LIG     1      24.400  22.454  18.182  1.00  0.00     0.016 A 
HETATM   12  C   LIG     1      23.568  21.348  18.356  1.00  0.00     0.026 A 
HETATM   13  C   LIG     1      23.846  20.405  19.347  1.00  0.00     0.057 A 
HETATM   14  C   LIG     1      24.969  20.567  20.178  1.00  0.00     0.078 A 
HETATM   15 CL   LIG     1      22.767  19.027  19.527  1.00  0.00    -0.082 Cl
HETATM   16 CL   LIG     1      25.315  19.377  21.433  1.00  0.00    -0.081 Cl
HETATM   17  C   LIG     1      25.811  21.683  20.005  1.00  0.00     0.068 A 
HETATM   18 CL   LIG     1      27.206  21.908  21.067  1.00  0.00    -0.082 Cl
ENDBRANCH   5  10
TORSDOF 1
ENDMDL
MODEL 5
REMARK VINA RESULT:      -4.7     14.432     18.241
REMARK  1 active torsions:
REMARK  status: ('A' for Active; 'I' for Inactive)
REMARK    1  A    between atoms: C_5  and  C_6 
ROOT
HETATM    1 CL   LIG     1      22.053  18.152  16.478  1.00  0.00    -0.082 Cl
HETATM    2  C   LIG     1      23.066  19.419  17.159  1.00  0.00     0.057 A 
HETATM    3  C   LIG     1      22.460  20.436  17.898  1.00  0.00     0.026 A 
HETATM    4  C   LIG     1      23.229  21.459  18.452  1.00  0.00     0.016 A 
HETATM    5  C   LIG     1      24.619  21.475  18.277  1.00  0.00    -0.001 A 
HETATM    6  C   LIG     1      25.241  20.450  17.533  1.00  0.00     0.068 A 
HETATM    7 CL   LIG     1      26.996  20.437  17.328  1.00  0.00    -0.082 Cl
HETATM    8  C   LIG     1      24.460  19.420  16.973  1.00  0.00     0.078 A 
HETATM    9 CL   LIG     1      25.224  18.129  16.044  1.00  0.00    -0.081 Cl
ENDROOT
BRANCH   5  10
HETATM   10  C   LIG     1      25.405  22.581  18.867  1.00  0.00    -0.001 A 
HETATM   11  C   LIG     1      25.615  23.743  18.112  1.00  0.00     0.016 A 
HETATM   12  C   LIG     1      26.341  24.809  18.646  1.00  0.00     0.026 A 
HETATM   13  C   LIG     1      26.864  24.729  19.939  1.00  0.00     0.057 A 
HETATM   14  C   LIG     1      26.661  23.570  20.709  1.00  0.00     0.078 A 
HETATM   15 CL   LIG     1      27.770  26.099  20.567  1.00  0.00    -0.082 Cl
HETATM   16 CL   LIG     1      27.327  23.470  22.340  1.00  0.00    -0.081 Cl
HETATM   17  C   LIG     1      25.930  22.492  20.174  1.00  0.00     0.068 A 
HETATM   18 CL   LIG     1      25.701  21.022  21.127  1.00  0.00    -0.082 Cl
ENDBRANCH   5  10
TORSDOF 1
ENDMDL
MODEL 6
REMARK VINA RESULT:      -4.7     10.220     13.807
REMARK  1 active torsions:
REMARK  status: ('A' for Active; 'I' for Inactive)
REMARK    1  A    between atoms: C_5  and  C_6 
ROOT
HETATM    1 CL   LIG     1      25.846  23.112  28.174  1.00  0.00    -0.082 Cl
HETATM    2  C   LIG     1      25.324  22.733  26.537  1.00  0.00     0.057 A 
HETATM    3  C   LIG     1      25.874  23.453  25.475  1.00  0.00     0.026 A 
HETATM    4  C   LIG     1      25.485  23.183  24.163  1.00  0.00     0.016 A 
HETATM    5  C   LIG     1      24.540  22.183  23.896  1.00  0.00    -0.001 A 
HETATM    6  C   LIG     1      23.979  21.450  24.963  1.00  0.00     0.068 A 
HETATM    7 CL   LIG     1      22.810  20.164  24.642  1.00  0.00    -0.082 Cl
HETATM    8  C   LIG     1      24.374  21.726  26.286  1.00  0.00     0.078 A 
HETATM    9 CL   LIG     1      23.685  20.814  27.630  1.00  0.00    -0.081 Cl
ENDROOT
BRANCH   5  10
HETATM   10  C   LIG     1      24.138  21.930  22.495  1.00  0.00    -0.001 A 
HETATM   11  C   LIG     1      23.054  22.639  21.960  1.00  0.00     0.016 A 
HETATM   12  C   LIG     1      22.660  22.433  20.638  1.00  0.00     0.026 A 
HETATM   13  C   LIG     1      23.343  21.518  19.833  1.00  0.00     0.057 A 
HETATM   14  C   LIG     1      24.434  20.799  20.354  1.00  0.00     0.078 A 
HETATM   15 CL   LIG     1      22.809  21.294  18.172  1.00  0.00    -0.082 Cl
HETATM   16 CL   LIG     1      25.292  19.642  19.336  1.00  0.00    -0.081 Cl
HETATM   17  C   LIG     1      24.834  21.005  21.688  1.00  0.00     0.068 A 
HETATM   18 CL   LIG     1      26.184  20.080  22.357  1.00  0.00    -0.082 Cl
ENDBRANCH   5  10
TORSDOF 1
ENDMDL
MODEL 7
REMARK VINA RESULT:      -4.7     10.213     14.857
REMARK  1 active torsions:
REMARK  status: ('A' for Active; 'I' for Inactive)
REMARK    1  A    between atoms: C_5  and  C_6 
ROOT
HETATM    1 CL   LIG     1      22.810  21.305  18.189  1.00  0.00    -0.082 Cl
HETATM    2  C   LIG     1      23.341  21.526  19.851  1.00  0.00     0.057 A 
HETATM    3  C   LIG     1      22.655  22.434  20.659  1.00  0.00     0.026 A 
HETATM    4  C   LIG     1      23.047  22.637  21.982  1.00  0.00     0.016 A 
HETATM    5  C   LIG     1      24.134  21.931  22.516  1.00  0.00    -0.001 A 
HETATM    6  C   LIG     1      24.833  21.011  21.707  1.00  0.00     0.068 A 
HETATM    7 CL   LIG     1      26.185  20.088  22.373  1.00  0.00    -0.082 Cl
HETATM    8  C   LIG     1      24.434  20.809  20.371  1.00  0.00     0.078 A 
HETATM    9 CL   LIG     1      25.297  19.658  19.349  1.00  0.00    -0.081 Cl
ENDROOT
BRANCH   5  10
HETATM   10  C   LIG     1      24.533  22.180  23.918  1.00  0.00    -0.001 A 
HETATM   11  C   LIG     1      25.474  23.182  24.190  1.00  0.00     0.016 A 
HETATM   12  C   LIG     1      25.860  23.450  25.503  1.00  0.00     0.026 A 
HETATM   13  C   LIG     1      25.312  22.722  26.562  1.00  0.00     0.057 A 
HETATM   14  C   LIG     1      24.366  21.713  26.307  1.00  0.00     0.078 A 
HETATM   15 CL   LIG     1      25.831  23.097  28.201  1.00  0.00    -0.082 Cl
HETATM   16 CL   LIG     1      23.679  20.792  27.646  1.00  0.00    -0.081 Cl
HETATM   17  C   LIG     1      23.974  21.440  24.982  1.00  0.00     0.068 A 
HETATM   18 CL   LIG     1      22.810  20.151  24.655  1.00  0.00    -0.082 Cl
ENDBRANCH   5  10
TORSDOF 1
ENDMDL
MODEL 8
REMARK VINA RESULT:      -4.5      2.039      2.866
REMARK  1 active torsions:
REMARK  status: ('A' for Active; 'I' for Inactive)
REMARK    1  A    between atoms: C_5  and  C_6 
ROOT
HETATM    1 CL   LIG     1      26.260  29.332  38.129  1.00  0.00    -0.082 Cl
HETATM    2  C   LIG     1      26.854  29.094  36.490  1.00  0.00     0.057 A 
HETATM    3  C   LIG     1      26.424  29.967  35.489  1.00  0.00     0.026 A 
HETATM    4  C   LIG     1      26.871  29.809  34.177  1.00  0.00     0.016 A 
HETATM    5  C   LIG     1      27.758  28.775  33.850  1.00  0.00    -0.001 A 
HETATM    6  C   LIG     1      28.198  27.888  34.856  1.00  0.00     0.068 A 
HETATM    7 CL   LIG     1      29.341  26.598  34.467  1.00  0.00    -0.082 Cl
HETATM    8  C   LIG     1      27.744  28.050  36.179  1.00  0.00     0.078 A 
HETATM    9 CL   LIG     1      28.289  26.951  37.448  1.00  0.00    -0.081 Cl
ENDROOT
BRANCH   5  10
HETATM   10  C   LIG     1      28.203  28.627  32.447  1.00  0.00    -0.001 A 
HETATM   11  C   LIG     1      29.259  29.422  31.981  1.00  0.00     0.016 A 
HETATM   12  C   LIG     1      29.710  29.296  30.667  1.00  0.00     0.026 A 
HETATM   13  C   LIG     1      29.115  28.375  29.802  1.00  0.00     0.057 A 
HETATM   14  C   LIG     1      28.054  27.569  30.254  1.00  0.00     0.078 A 
HETATM   15 CL   LIG     1      29.720  28.253  28.155  1.00  0.00    -0.082 Cl
HETATM   16 CL   LIG     1      27.301  26.410  29.157  1.00  0.00    -0.081 Cl
HETATM   17  C   LIG     1      27.596  27.694  31.579  1.00  0.00     0.068 A 
HETATM   18 CL   LIG     1      26.243  26.706  32.141  1.00  0.00    -0.082 Cl
ENDBRANCH   5  10
TORSDOF 1
ENDMDL
MODEL 9
REMARK VINA RESULT:      -4.5      2.022      6.215
REMARK  1 active torsions:
REMARK  status: ('A' for Active; 'I' for Inactive)
REMARK    1  A    between atoms: C_5  and  C_6 
ROOT
HETATM    1 CL   LIG     1      29.570  28.268  28.058  1.00  0.00    -0.082 Cl
HETATM    2  C   LIG     1      29.014  28.382  29.723  1.00  0.00     0.057 A 
HETATM    3  C   LIG     1      29.596  29.335  30.560  1.00  0.00     0.026 A 
HETATM    4  C   LIG     1      29.183  29.455  31.887  1.00  0.00     0.016 A 
HETATM    5  C   LIG     1      28.178  28.621  32.395  1.00  0.00    -0.001 A 
HETATM    6  C   LIG     1      27.583  27.655  31.556  1.00  0.00     0.068 A 
HETATM    7 CL   LIG     1      26.292  26.617  32.170  1.00  0.00    -0.082 Cl
HETATM    8  C   LIG     1      28.004  27.536  30.217  1.00  0.00     0.078 A 
HETATM    9 CL   LIG     1      27.266  26.335  29.156  1.00  0.00    -0.081 Cl
ENDROOT
BRANCH   5  10
HETATM   10  C   LIG     1      27.772  28.765  33.810  1.00  0.00    -0.001 A 
HETATM   11  C   LIG     1      26.883  29.790  34.161  1.00  0.00     0.016 A 
HETATM   12  C   LIG     1      26.472  29.943  35.485  1.00  0.00     0.026 A 
HETATM   13  C   LIG     1      26.939  29.075  36.475  1.00  0.00     0.057 A 
HETATM   14  C   LIG     1      27.832  28.040  36.138  1.00  0.00     0.078 A 
HETATM   15 CL   LIG     1      26.390  29.308  38.129  1.00  0.00    -0.082 Cl
HETATM   16 CL   LIG     1      28.425  26.949  37.391  1.00  0.00    -0.081 Cl
HETATM   17  C   LIG     1      28.250  27.883  34.803  1.00  0.00     0.068 A 
HETATM   18 CL   LIG     1      29.395  26.605  34.382  1.00  0.00    -0.082 Cl
ENDBRANCH   5  10
TORSDOF 1
ENDMDL
MODEL 10
REMARK VINA RESULT:      -4.5     11.547     15.040
REMARK  1 active torsions:
REMARK  status: ('A' for Active; 'I' for Inactive)
REMARK    1  A    between atoms: C_5  and  C_6 
ROOT
HETATM    1 CL   LIG     1      23.803  22.251  18.133  1.00  0.00    -0.082 Cl
HETATM    2  C   LIG     1      23.731  21.811  19.835  1.00  0.00     0.057 A 
HETATM    3  C   LIG     1      22.688  22.316  20.613  1.00  0.00     0.026 A 
HETATM    4  C   LIG     1      22.598  21.992  21.967  1.00  0.00     0.016 A 
HETATM    5  C   LIG     1      23.551  21.153  22.560  1.00  0.00    -0.001 A 
HETATM    6  C   LIG     1      24.608  20.637  21.781  1.00  0.00     0.068 A 
HETATM    7 CL   LIG     1      25.801  19.553  22.504  1.00  0.00    -0.082 Cl
HETATM    8  C   LIG     1      24.697  20.968  20.415  1.00  0.00     0.078 A 
HETATM    9 CL   LIG     1      26.011  20.327  19.427  1.00  0.00    -0.081 Cl
ENDROOT
BRANCH   5  10
HETATM   10  C   LIG     1      23.434  20.839  24.001  1.00  0.00    -0.001 A 
HETATM   11  C   LIG     1      22.676  19.728  24.395  1.00  0.00     0.016 A 
HETATM   12  C   LIG     1      22.558  19.398  25.745  1.00  0.00     0.026 A 
HETATM   13  C   LIG     1      23.196  20.171  26.719  1.00  0.00     0.057 A 
HETATM   14  C   LIG     1      23.961  21.289  26.340  1.00  0.00     0.078 A 
HETATM   15 CL   LIG     1      23.018  19.714  28.408  1.00  0.00    -0.082 Cl
HETATM   16 CL   LIG     1      24.761  22.266  27.572  1.00  0.00    -0.081 Cl
HETATM   17  C   LIG     1      24.082  21.625  24.978  1.00  0.00     0.068 A 
HETATM   18 CL   LIG     1      25.015  23.047  24.500  1.00  0.00    -0.082 Cl
ENDBRANCH   5  10
TORSDOF 1
ENDMDL
MODEL 11
REMARK VINA RESULT:      -4.5     13.991     15.390
REMARK  1 active torsions:
REMARK  status: ('A' for Active; 'I' for Inactive)
REMARK    1  A    between atoms: C_5  and  C_6 
ROOT
HETATM    1 CL   LIG     1      28.733  26.834  18.081  1.00  0.00    -0.082 Cl
HETATM    2  C   LIG     1      27.752  25.645  18.928  1.00  0.00     0.057 A 
HETATM    3  C   LIG     1      26.680  25.058  18.254  1.00  0.00     0.026 A 
HETATM    4  C   LIG     1      25.879  24.111  18.894  1.00  0.00     0.016 A 
HETATM    5  C   LIG     1      26.143  23.737  20.218  1.00  0.00    -0.001 A 
HETATM    6  C   LIG     1      27.225  24.325  20.907  1.00  0.00     0.068 A 
HETATM    7 CL   LIG     1      27.592  23.843  22.567  1.00  0.00    -0.082 Cl
HETATM    8  C   LIG     1      28.031  25.281  20.259  1.00  0.00     0.078 A 
HETATM    9 CL   LIG     1      29.391  26.021  21.106  1.00  0.00    -0.081 Cl
ENDROOT
BRANCH   5  10
HETATM   10  C   LIG     1      25.266  22.741  20.871  1.00  0.00    -0.001 A 
HETATM   11  C   LIG     1      24.096  23.178  21.507  1.00  0.00     0.016 A 
HETATM   12  C   LIG     1      23.242  22.262  22.121  1.00  0.00     0.026 A 
HETATM   13  C   LIG     1      23.543  20.898  22.106  1.00  0.00     0.057 A 
HETATM   14  C   LIG     1      24.713  20.442  21.472  1.00  0.00     0.078 A 
HETATM   15 CL   LIG     1      22.434  19.781  22.892  1.00  0.00    -0.082 Cl
HETATM   16 CL   LIG     1      25.093  18.720  21.459  1.00  0.00    -0.081 Cl
HETATM   17  C   LIG     1      25.578  21.365  20.852  1.00  0.00     0.068 A 
HETATM   18 CL   LIG     1      27.065  20.800  20.082  1.00  0.00    -0.082 Cl
ENDBRANCH   5  10
TORSDOF 1
ENDMDL
MODEL 12
REMARK VINA RESULT:      -4.4     22.078     23.604
REMARK  1 active torsions:
REMARK  status: ('A' for Active; 'I' for Inactive)
REMARK    1  A    between atoms: C_5  and  C_6 
ROOT
HETATM    1 CL   LIG     1      21.033  35.564  10.272  1.00  0.00    -0.082 Cl
HETATM    2  C   LIG     1      19.868  34.780  11.332  1.00  0.00     0.057 A 
HETATM    3  C   LIG     1      18.517  34.813  10.983  1.00  0.00     0.026 A 
HETATM    4  C   LIG     1      17.564  34.204  11.798  1.00  0.00     0.016 A 
HETATM    5  C   LIG     1      17.951  33.551  12.976  1.00  0.00    -0.001 A 
HETATM    6  C   LIG     1      19.314  33.513  13.337  1.00  0.00     0.068 A 
HETATM    7 CL   LIG     1      19.824  32.666  14.802  1.00  0.00    -0.082 Cl
HETATM    8  C   LIG     1      20.274  34.129  12.511  1.00  0.00     0.078 A 
HETATM    9 CL   LIG     1      21.984  34.085  12.948  1.00  0.00    -0.081 Cl
ENDROOT
BRANCH   5  10
HETATM   10  C   LIG     1      16.913  32.927  13.826  1.00  0.00    -0.001 A 
HETATM   11  C   LIG     1      16.305  31.740  13.395  1.00  0.00     0.016 A 
HETATM   12  C   LIG     1      15.333  31.120  14.180  1.00  0.00     0.026 A 
HETATM   13  C   LIG     1      14.956  31.675  15.405  1.00  0.00     0.057 A 
HETATM   14  C   LIG     1      15.557  32.866  15.852  1.00  0.00     0.078 A 
HETATM   15 CL   LIG     1      13.726  30.856  16.360  1.00  0.00    -0.082 Cl
HETATM   16 CL   LIG     1      15.075  33.567  17.398  1.00  0.00    -0.081 Cl
HETATM   17  C   LIG     1      16.538  33.495  15.062  1.00  0.00     0.068 A 
HETATM   18 CL   LIG     1      17.272  35.007  15.606  1.00  0.00    -0.082 Cl
ENDBRANCH   5  10
TORSDOF 1
ENDMDL
MODEL 13
REMARK VINA RESULT:      -4.4     19.834     22.351
REMARK  1 active torsions:
REMARK  status: ('A' for Active; 'I' for Inactive)
REMARK    1  A    between atoms: C_5  and  C_6 
ROOT
HETATM    1 CL   LIG     1      12.755  28.739  13.820  1.00  0.00    -0.082 Cl
HETATM    2  C   LIG     1      13.428  29.947  14.907  1.00  0.00     0.057 A 
HETATM    3  C   LIG     1      12.664  30.368  15.996  1.00  0.00     0.026 A 
HETATM    4  C   LIG     1      13.163  31.326  16.879  1.00  0.00     0.016 A 
HETATM    5  C   LIG     1      14.438  31.874  16.684  1.00  0.00    -0.001 A 
HETATM    6  C   LIG     1      15.218  31.453  15.587  1.00  0.00     0.068 A 
HETATM    7 CL   LIG     1      16.840  32.110  15.344  1.00  0.00    -0.082 Cl
HETATM    8  C   LIG     1      14.710  30.487  14.697  1.00  0.00     0.078 A 
HETATM    9 CL   LIG     1      15.677  29.949  13.322  1.00  0.00    -0.081 Cl
ENDROOT
BRANCH   5  10
HETATM   10  C   LIG     1      14.932  32.897  17.632  1.00  0.00    -0.001 A 
HETATM   11  C   LIG     1      15.326  34.148  17.136  1.00  0.00     0.016 A 
HETATM   12  C   LIG     1      15.783  35.138  18.006  1.00  0.00     0.026 A 
HETATM   13  C   LIG     1      15.853  34.894  19.379  1.00  0.00     0.057 A 
HETATM   14  C   LIG     1      15.461  33.644  19.893  1.00  0.00     0.078 A 
HETATM   15 CL   LIG     1      16.436  36.175  20.435  1.00  0.00    -0.082 Cl
HETATM   16 CL   LIG     1      15.554  33.337  21.628  1.00  0.00    -0.081 Cl
HETATM   17  C   LIG     1      14.999  32.642  19.018  1.00  0.00     0.068 A 
HETATM   18 CL   LIG     1      14.536  31.060  19.655  1.00  0.00    -0.082 Cl
ENDBRANCH   5  10
TORSDOF 1
ENDMDL
MODEL 14
REMARK VINA RESULT:      -4.3      9.827     14.410
REMARK  1 active torsions:
REMARK  status: ('A' for Active; 'I' for Inactive)
REMARK    1  A    between atoms: C_5  and  C_6 
ROOT
HETATM    1 CL   LIG     1      22.810  20.855  18.556  1.00  0.00    -0.082 Cl
HETATM    2  C   LIG     1      23.418  21.273  20.152  1.00  0.00     0.057 A 
HETATM    3  C   LIG     1      22.970  22.451  20.752  1.00  0.00     0.026 A 
HETATM    4  C   LIG     1      23.431  22.817  22.017  1.00  0.00     0.016 A 
HETATM    5  C   LIG     1      24.347  22.006  22.701  1.00  0.00    -0.001 A 
HETATM    6  C   LIG     1      24.804  20.813  22.102  1.00  0.00     0.068 A 
HETATM    7 CL   LIG     1      25.934  19.761  22.962  1.00  0.00    -0.082 Cl
HETATM    8  C   LIG     1      24.337  20.447  20.825  1.00  0.00     0.078 A 
HETATM    9 CL   LIG     1      24.898  18.956  20.066  1.00  0.00    -0.081 Cl
ENDROOT
BRANCH   5  10
HETATM   10  C   LIG     1      24.826  22.429  24.034  1.00  0.00    -0.001 A 
HETATM   11  C   LIG     1      24.092  22.058  25.170  1.00  0.00     0.016 A 
HETATM   12  C   LIG     1      24.525  22.431  26.442  1.00  0.00     0.026 A 
HETATM   13  C   LIG     1      25.696  23.176  26.599  1.00  0.00     0.057 A 
HETATM   14  C   LIG     1      26.444  23.556  25.470  1.00  0.00     0.078 A 
HETATM   15 CL   LIG     1      26.202  23.621  28.224  1.00  0.00    -0.082 Cl
HETATM   16 CL   LIG     1      27.920  24.502  25.671  1.00  0.00    -0.081 Cl
HETATM   17  C   LIG     1      26.010  23.182  24.184  1.00  0.00     0.068 A 
HETATM   18 CL   LIG     1      26.930  23.685  22.761  1.00  0.00    -0.082 Cl
ENDBRANCH   5  10
TORSDOF 1
ENDMDL
MODEL 15
REMARK VINA RESULT:      -4.3     21.566     23.620
REMARK  1 active torsions:
REMARK  status: ('A' for Active; 'I' for Inactive)
REMARK    1  A    between atoms: C_5  and  C_6 
ROOT
HETATM    1 CL   LIG     1      15.406  34.451  18.154  1.00  0.00    -0.082 Cl
HETATM    2  C   LIG     1      15.143  33.081  17.081  1.00  0.00     0.057 A 
HETATM    3  C   LIG     1      14.294  32.056  17.501  1.00  0.00     0.026 A 
HETATM    4  C   LIG     1      14.062  30.952  16.679  1.00  0.00     0.016 A 
HETATM    5  C   LIG     1      14.676  30.862  15.423  1.00  0.00    -0.001 A 
HETATM    6  C   LIG     1      15.535  31.895  14.990  1.00  0.00     0.068 A 
HETATM    7 CL   LIG     1      16.293  31.813  13.396  1.00  0.00    -0.082 Cl
HETATM    8  C   LIG     1      15.768  33.006  15.823  1.00  0.00     0.078 A 
HETATM    9 CL   LIG     1      16.836  34.307  15.293  1.00  0.00    -0.081 Cl
ENDROOT
BRANCH   5  10
HETATM   10  C   LIG     1      14.419  29.673  14.581  1.00  0.00    -0.001 A 
HETATM   11  C   LIG     1      15.505  28.902  14.144  1.00  0.00     0.016 A 
HETATM   12  C   LIG     1      15.295  27.768  13.361  1.00  0.00     0.026 A 
HETATM   13  C   LIG     1      13.999  27.386  13.005  1.00  0.00     0.057 A 
HETATM   14  C   LIG     1      12.898  28.149  13.436  1.00  0.00     0.078 A 
HETATM   15 CL   LIG     1      13.785  25.947  12.017  1.00  0.00    -0.082 Cl
HETATM   16 CL   LIG     1      11.263  27.667  12.980  1.00  0.00    -0.081 Cl
HETATM   17  C   LIG     1      13.107  29.295  14.226  1.00  0.00     0.068 A 
HETATM   18 CL   LIG     1      11.729  30.273  14.742  1.00  0.00    -0.082 Cl
ENDBRANCH   5  10
TORSDOF 1
ENDMDL
MODEL 16
REMARK VINA RESULT:      -4.2     11.653     14.962
REMARK  1 active torsions:
REMARK  status: ('A' for Active; 'I' for Inactive)
REMARK    1  A    between atoms: C_5  and  C_6 
ROOT
HETATM    1 CL   LIG     1      23.687  22.054  27.641  1.00  0.00    -0.082 Cl
HETATM    2  C   LIG     1      23.884  21.696  25.930  1.00  0.00     0.057 A 
HETATM    3  C   LIG     1      24.756  22.484  25.177  1.00  0.00     0.026 A 
HETATM    4  C   LIG     1      24.938  22.231  23.817  1.00  0.00     0.016 A 
HETATM    5  C   LIG     1      24.250  21.183  23.192  1.00  0.00    -0.001 A 
HETATM    6  C   LIG     1      23.367  20.381  23.946  1.00  0.00     0.068 A 
HETATM    7 CL   LIG     1      22.514  19.035  23.181  1.00  0.00    -0.082 Cl
HETATM    8  C   LIG     1      23.185  20.639  25.318  1.00  0.00     0.078 A 
HETATM    9 CL   LIG     1      22.087  19.642  26.274  1.00  0.00    -0.081 Cl
ENDROOT
BRANCH   5  10
HETATM   10  C   LIG     1      24.455  20.950  21.746  1.00  0.00    -0.001 A 
HETATM   11  C   LIG     1      25.488  20.097  21.334  1.00  0.00     0.016 A 
HETATM   12  C   LIG     1      25.698  19.847  19.978  1.00  0.00     0.026 A 
HETATM   13  C   LIG     1      24.880  20.443  19.016  1.00  0.00     0.057 A 
HETATM   14  C   LIG     1      23.839  21.301  19.412  1.00  0.00     0.078 A 
HETATM   15 CL   LIG     1      25.184  20.096  17.318  1.00  0.00    -0.082 Cl
HETATM   16 CL   LIG     1      22.810  22.057  18.194  1.00  0.00    -0.081 Cl
HETATM   17  C   LIG     1      23.624  21.557  20.780  1.00  0.00     0.068 A 
HETATM   18 CL   LIG     1      22.337  22.659  21.280  1.00  0.00    -0.082 Cl
ENDBRANCH   5  10
TORSDOF 1
ENDMDL
MODEL 17
REMARK VINA RESULT:      -4.2      4.066      8.673
REMARK  1 active torsions:
REMARK  status: ('A' for Active; 'I' for Inactive)
REMARK    1  A    between atoms: C_5  and  C_6 
ROOT
HETATM    1 CL   LIG     1      27.382  24.161  23.941  1.00  0.00    -0.082 Cl
HETATM    2  C   LIG     1      27.461  24.633  25.634  1.00  0.00     0.057 A 
HETATM    3  C   LIG     1      26.306  24.534  26.411  1.00  0.00     0.026 A 
HETATM    4  C   LIG     1      26.329  24.900  27.757  1.00  0.00     0.016 A 
HETATM    5  C   LIG     1      27.512  25.369  28.344  1.00  0.00    -0.001 A 
HETATM    6  C   LIG     1      28.684  25.472  27.566  1.00  0.00     0.068 A 
HETATM    7 CL   LIG     1      30.192  26.031  28.297  1.00  0.00    -0.082 Cl
HETATM    8  C   LIG     1      28.657  25.102  26.207  1.00  0.00     0.078 A 
HETATM    9 CL   LIG     1      30.117  25.222  25.223  1.00  0.00    -0.081 Cl
ENDROOT
BRANCH   5  10
HETATM   10  C   LIG     1      27.499  25.761  29.770  1.00  0.00    -0.001 A 
HETATM   11  C   LIG     1      27.155  27.077  30.110  1.00  0.00     0.016 A 
HETATM   12  C   LIG     1      27.121  27.474  31.447  1.00  0.00     0.026 A 
HETATM   13  C   LIG     1      27.428  26.564  32.461  1.00  0.00     0.057 A 
HETATM   14  C   LIG     1      27.774  25.240  32.138  1.00  0.00     0.078 A 
HETATM   15 CL   LIG     1      27.370  27.112  34.132  1.00  0.00    -0.082 Cl
HETATM   16 CL   LIG     1      28.166  24.094  33.421  1.00  0.00    -0.081 Cl
HETATM   17  C   LIG     1      27.810  24.836  30.789  1.00  0.00     0.068 A 
HETATM   18 CL   LIG     1      28.276  23.182  30.376  1.00  0.00    -0.082 Cl
ENDBRANCH   5  10
TORSDOF 1
ENDMDL
MODEL 18
REMARK VINA RESULT:      -4.1      4.374      6.475
REMARK  1 active torsions:
REMARK  status: ('A' for Active; 'I' for Inactive)
REMARK    1  A    between atoms: C_5  and  C_6 
ROOT
HETATM    1 CL   LIG     1      26.504  26.282  34.433  1.00  0.00    -0.082 Cl
HETATM    2  C   LIG     1      27.083  26.173  32.775  1.00  0.00     0.057 A 
HETATM    3  C   LIG     1      26.707  27.165  31.868  1.00  0.00     0.026 A 
HETATM    4  C   LIG     1      27.144  27.113  30.545  1.00  0.00     0.016 A 
HETATM    5  C   LIG     1      27.969  26.066  30.111  1.00  0.00    -0.001 A 
HETATM    6  C   LIG     1      28.355  25.060  31.022  1.00  0.00     0.068 A 
HETATM    7 CL   LIG     1      29.420  23.749  30.501  1.00  0.00    -0.082 Cl
HETATM    8  C   LIG     1      27.910  25.115  32.357  1.00  0.00     0.078 A 
HETATM    9 CL   LIG     1      28.389  23.865  33.507  1.00  0.00    -0.081 Cl
ENDROOT
BRANCH   5  10
HETATM   10  C   LIG     1      28.405  26.033  28.698  1.00  0.00    -0.001 A 
HETATM   11  C   LIG     1      29.532  26.774  28.317  1.00  0.00     0.016 A 
HETATM   12  C   LIG     1      29.975  26.752  26.995  1.00  0.00     0.026 A 
HETATM   13  C   LIG     1      29.303  25.990  26.037  1.00  0.00     0.057 A 
HETATM   14  C   LIG     1      28.170  25.240  26.403  1.00  0.00     0.078 A 
HETATM   15 CL   LIG     1      29.901  25.994  24.383  1.00  0.00    -0.082 Cl
HETATM   16 CL   LIG     1      27.320  24.282  25.190  1.00  0.00    -0.081 Cl
HETATM   17  C   LIG     1      27.719  25.260  27.737  1.00  0.00     0.068 A 
HETATM   18 CL   LIG     1      26.279  24.344  28.195  1.00  0.00    -0.082 Cl
ENDBRANCH   5  10
TORSDOF 1
ENDMDL
MODEL 19
REMARK VINA RESULT:      -3.8      5.455      8.306
REMARK  1 active torsions:
REMARK  status: ('A' for Active; 'I' for Inactive)
REMARK    1  A    between atoms: C_5  and  C_6 
ROOT
HETATM    1 CL   LIG     1      28.409  26.081  32.497  1.00  0.00    -0.082 Cl
HETATM    2  C   LIG     1      27.850  25.417  30.967  1.00  0.00     0.057 A 
HETATM    3  C   LIG     1      27.239  26.273  30.049  1.00  0.00     0.026 A 
HETATM    4  C   LIG     1      26.781  25.784  28.826  1.00  0.00     0.016 A 
HETATM    5  C   LIG     1      26.931  24.429  28.503  1.00  0.00    -0.001 A 
HETATM    6  C   LIG     1      27.549  23.556  29.424  1.00  0.00     0.068 A 
HETATM    7 CL   LIG     1      27.776  21.851  29.021  1.00  0.00    -0.082 Cl
HETATM    8  C   LIG     1      28.009  24.054  30.659  1.00  0.00     0.078 A 
HETATM    9 CL   LIG     1      28.787  22.975  31.819  1.00  0.00    -0.081 Cl
ENDROOT
BRANCH   5  10
HETATM   10  C   LIG     1      26.423  23.939  27.203  1.00  0.00    -0.001 A 
HETATM   11  C   LIG     1      25.201  23.254  27.165  1.00  0.00     0.016 A 
HETATM   12  C   LIG     1      24.688  22.792  25.953  1.00  0.00     0.026 A 
HETATM   13  C   LIG     1      25.387  23.009  24.763  1.00  0.00     0.057 A 
HETATM   14  C   LIG     1      26.615  23.694  24.783  1.00  0.00     0.078 A 
HETATM   15 CL   LIG     1      24.700  22.408  23.260  1.00  0.00    -0.082 Cl
HETATM   16 CL   LIG     1      27.498  23.961  23.280  1.00  0.00    -0.081 Cl
HETATM   17  C   LIG     1      27.136  24.162  26.006  1.00  0.00     0.068 A 
HETATM   18 CL   LIG     1      28.693  24.996  26.039  1.00  0.00    -0.082 Cl
ENDBRANCH   5  10
TORSDOF 1
ENDMDL
