MODEL 1
REMARK VINA RESULT:      -6.4      0.000      0.000
REMARK  1 active torsions:
REMARK  status: ('A' for Active; 'I' for Inactive)
REMARK    1  A    between atoms: C_7  and  C_8 
ROOT
HETATM    1  C   LIG     1      16.654  35.952  22.055  1.00  0.00    -0.001 A 
HETATM    2  C   LIG     1      15.594  35.050  21.895  1.00  0.00     0.016 A 
HETATM    3  C   LIG     1      15.237  34.599  20.625  1.00  0.00     0.026 A 
HETATM    4  C   LIG     1      15.936  35.039  19.499  1.00  0.00     0.057 A 
HETATM    5 CL   LIG     1      15.448  34.444  17.917  1.00  0.00    -0.082 Cl
HETATM    6  C   LIG     1      17.011  35.935  19.643  1.00  0.00     0.078 A 
HETATM    7 CL   LIG     1      17.900  36.480  18.220  1.00  0.00    -0.081 Cl
HETATM    8  C   LIG     1      17.375  36.391  20.924  1.00  0.00     0.068 A 
HETATM    9 CL   LIG     1      18.748  37.487  21.116  1.00  0.00    -0.082 Cl
ENDROOT
BRANCH   1  10
HETATM   10  C   LIG     1      17.002  36.413  23.414  1.00  0.00    -0.001 A 
HETATM   11  C   LIG     1      16.813  37.755  23.803  1.00  0.00     0.045 A 
HETATM   12  C   LIG     1      17.154  38.159  25.099  1.00  0.00     0.026 A 
HETATM   13 CL   LIG     1      16.126  38.943  22.700  1.00  0.00    -0.083 Cl
HETATM   14  C   LIG     1      17.675  37.237  26.011  1.00  0.00     0.025 A 
HETATM   15  C   LIG     1      17.855  35.904  25.633  1.00  0.00     0.035 A 
HETATM   16 CL   LIG     1      18.505  34.747  26.780  1.00  0.00    -0.084 Cl
HETATM   17  C   LIG     1      17.517  35.491  24.340  1.00  0.00     0.038 A 
ENDBRANCH   1  10
TORSDOF 1
ENDMDL
MODEL 2
REMARK VINA RESULT:      -5.1      1.422      5.626
REMARK  1 active torsions:
REMARK  status: ('A' for Active; 'I' for Inactive)
REMARK    1  A    between atoms: C_7  and  C_8 
ROOT
HETATM    1  C   LIG     1      17.007  35.590  23.236  1.00  0.00    -0.001 A 
HETATM    2  C   LIG     1      17.586  34.627  24.072  1.00  0.00     0.016 A 
HETATM    3  C   LIG     1      18.021  34.972  25.351  1.00  0.00     0.026 A 
HETATM    4  C   LIG     1      17.877  36.282  25.814  1.00  0.00     0.057 A 
HETATM    5 CL   LIG     1      18.442  36.671  27.435  1.00  0.00    -0.082 Cl
HETATM    6  C   LIG     1      17.287  37.259  24.992  1.00  0.00     0.078 A 
HETATM    7 CL   LIG     1      17.096  38.909  25.584  1.00  0.00    -0.081 Cl
HETATM    8  C   LIG     1      16.846  36.913  23.700  1.00  0.00     0.068 A 
HETATM    9 CL   LIG     1      16.068  38.125  22.677  1.00  0.00    -0.082 Cl
ENDROOT
BRANCH   1  10
HETATM   10  C   LIG     1      16.563  35.191  21.885  1.00  0.00    -0.001 A 
HETATM   11  C   LIG     1      16.955  35.916  20.742  1.00  0.00     0.045 A 
HETATM   12  C   LIG     1      16.515  35.511  19.476  1.00  0.00     0.026 A 
HETATM   13 CL   LIG     1      18.015  37.316  20.860  1.00  0.00    -0.083 Cl
HETATM   14  C   LIG     1      15.695  34.387  19.340  1.00  0.00     0.025 A 
HETATM   15  C   LIG     1      15.313  33.659  20.470  1.00  0.00     0.035 A 
HETATM   16 CL   LIG     1      14.288  32.246  20.298  1.00  0.00    -0.084 Cl
HETATM   17  C   LIG     1      15.748  34.057  21.739  1.00  0.00     0.038 A 
ENDBRANCH   1  10
TORSDOF 1
ENDMDL
MODEL 3
REMARK VINA RESULT:      -5.0     15.607     17.423
REMARK  1 active torsions:
REMARK  status: ('A' for Active; 'I' for Inactive)
REMARK    1  A    between atoms: C_7  and  C_8 
ROOT
HETATM    1  C   LIG     1      24.172  21.651  22.665  1.00  0.00    -0.001 A 
HETATM    2  C   LIG     1      24.970  22.690  23.161  1.00  0.00     0.016 A 
HETATM    3  C   LIG     1      25.102  22.883  24.536  1.00  0.00     0.026 A 
HETATM    4  C   LIG     1      24.444  22.039  25.433  1.00  0.00     0.057 A 
HETATM    5 CL   LIG     1      24.639  22.323  27.158  1.00  0.00    -0.082 Cl
HETATM    6  C   LIG     1      23.648  20.983  24.952  1.00  0.00     0.078 A 
HETATM    7 CL   LIG     1      22.827  19.912  26.086  1.00  0.00    -0.081 Cl
HETATM    8  C   LIG     1      23.513  20.785  23.564  1.00  0.00     0.068 A 
HETATM    9 CL   LIG     1      22.547  19.438  22.953  1.00  0.00    -0.082 Cl
ENDROOT
BRANCH   1  10
HETATM   10  C   LIG     1      24.050  21.478  21.204  1.00  0.00    -0.001 A 
HETATM   11  C   LIG     1      22.983  22.055  20.485  1.00  0.00     0.045 A 
HETATM   12  C   LIG     1      22.896  21.871  19.100  1.00  0.00     0.026 A 
HETATM   13 CL   LIG     1      21.758  23.033  21.285  1.00  0.00    -0.083 Cl
HETATM   14  C   LIG     1      23.866  21.124  18.426  1.00  0.00     0.025 A 
HETATM   15  C   LIG     1      24.932  20.559  19.133  1.00  0.00     0.035 A 
HETATM   16 CL   LIG     1      26.151  19.626  18.285  1.00  0.00    -0.084 Cl
HETATM   17  C   LIG     1      25.026  20.738  20.517  1.00  0.00     0.038 A 
ENDBRANCH   1  10
TORSDOF 1
ENDMDL
MODEL 4
REMARK VINA RESULT:      -5.0     15.521     16.472
REMARK  1 active torsions:
REMARK  status: ('A' for Active; 'I' for Inactive)
REMARK    1  A    between atoms: C_7  and  C_8 
ROOT
HETATM    1  C   LIG     1      25.956  23.444  19.567  1.00  0.00    -0.001 A 
HETATM    2  C   LIG     1      25.991  24.835  19.407  1.00  0.00     0.016 A 
HETATM    3  C   LIG     1      26.892  25.421  18.517  1.00  0.00     0.026 A 
HETATM    4  C   LIG     1      27.765  24.624  17.773  1.00  0.00     0.057 A 
HETATM    5 CL   LIG     1      28.885  25.408  16.665  1.00  0.00    -0.082 Cl
HETATM    6  C   LIG     1      27.735  23.225  17.913  1.00  0.00     0.078 A 
HETATM    7 CL   LIG     1      28.830  22.221  16.963  1.00  0.00    -0.081 Cl
HETATM    8  C   LIG     1      26.825  22.631  18.809  1.00  0.00     0.068 A 
HETATM    9 CL   LIG     1      26.754  20.872  18.962  1.00  0.00    -0.082 Cl
ENDROOT
BRANCH   1  10
HETATM   10  C   LIG     1      24.993  22.859  20.521  1.00  0.00    -0.001 A 
HETATM   11  C   LIG     1      23.807  22.239  20.078  1.00  0.00     0.045 A 
HETATM   12  C   LIG     1      22.915  21.695  21.009  1.00  0.00     0.026 A 
HETATM   13 CL   LIG     1      23.425  22.106  18.364  1.00  0.00    -0.083 Cl
HETATM   14  C   LIG     1      23.199  21.757  22.376  1.00  0.00     0.025 A 
HETATM   15  C   LIG     1      24.379  22.360  22.820  1.00  0.00     0.035 A 
HETATM   16 CL   LIG     1      24.736  22.433  24.536  1.00  0.00    -0.084 Cl
HETATM   17  C   LIG     1      25.275  22.907  21.896  1.00  0.00     0.038 A 
ENDBRANCH   1  10
TORSDOF 1
ENDMDL
MODEL 5
REMARK VINA RESULT:      -4.9     15.385     16.343
REMARK  1 active torsions:
REMARK  status: ('A' for Active; 'I' for Inactive)
REMARK    1  A    between atoms: C_7  and  C_8 
ROOT
HETATM    1  C   LIG     1      26.772  24.210  19.739  1.00  0.00    -0.001 A 
HETATM    2  C   LIG     1      27.012  25.589  19.796  1.00  0.00     0.016 A 
HETATM    3  C   LIG     1      27.798  26.209  18.825  1.00  0.00     0.026 A 
HETATM    4  C   LIG     1      28.350  25.461  17.782  1.00  0.00     0.057 A 
HETATM    5 CL   LIG     1      29.337  26.286  16.582  1.00  0.00    -0.082 Cl
HETATM    6  C   LIG     1      28.109  24.077  17.704  1.00  0.00     0.078 A 
HETATM    7 CL   LIG     1      28.798  23.137  16.380  1.00  0.00    -0.081 Cl
HETATM    8  C   LIG     1      27.315  23.448  18.682  1.00  0.00     0.068 A 
HETATM    9 CL   LIG     1      26.976  21.718  18.569  1.00  0.00    -0.082 Cl
ENDROOT
BRANCH   1  10
HETATM   10  C   LIG     1      25.939  23.586  20.787  1.00  0.00    -0.001 A 
HETATM   11  C   LIG     1      26.514  23.056  21.960  1.00  0.00     0.045 A 
HETATM   12  C   LIG     1      25.696  22.470  22.933  1.00  0.00     0.026 A 
HETATM   13 CL   LIG     1      28.248  23.136  22.251  1.00  0.00    -0.083 Cl
HETATM   14  C   LIG     1      24.311  22.414  22.749  1.00  0.00     0.025 A 
HETATM   15  C   LIG     1      23.736  22.947  21.592  1.00  0.00     0.035 A 
HETATM   16 CL   LIG     1      21.998  22.880  21.366  1.00  0.00    -0.084 Cl
HETATM   17  C   LIG     1      24.546  23.534  20.615  1.00  0.00     0.038 A 
ENDBRANCH   1  10
TORSDOF 1
ENDMDL
MODEL 6
REMARK VINA RESULT:      -4.9     15.392     16.415
REMARK  1 active torsions:
REMARK  status: ('A' for Active; 'I' for Inactive)
REMARK    1  A    between atoms: C_7  and  C_8 
ROOT
HETATM    1  C   LIG     1      24.019  21.885  22.537  1.00  0.00    -0.001 A 
HETATM    2  C   LIG     1      22.889  22.497  21.983  1.00  0.00     0.016 A 
HETATM    3  C   LIG     1      22.614  22.372  20.621  1.00  0.00     0.026 A 
HETATM    4  C   LIG     1      23.462  21.628  19.797  1.00  0.00     0.057 A 
HETATM    5 CL   LIG     1      23.076  21.499  18.085  1.00  0.00    -0.082 Cl
HETATM    6  C   LIG     1      24.596  20.997  20.340  1.00  0.00     0.078 A 
HETATM    7 CL   LIG     1      25.659  20.050  19.299  1.00  0.00    -0.081 Cl
HETATM    8  C   LIG     1      24.875  21.121  21.715  1.00  0.00     0.068 A 
HETATM    9 CL   LIG     1      26.276  20.300  22.411  1.00  0.00    -0.082 Cl
ENDROOT
BRANCH   1  10
HETATM   10  C   LIG     1      24.283  22.044  23.981  1.00  0.00    -0.001 A 
HETATM   11  C   LIG     1      23.744  21.148  24.927  1.00  0.00     0.045 A 
HETATM   12  C   LIG     1      24.012  21.328  26.289  1.00  0.00     0.026 A 
HETATM   13 CL   LIG     1      22.754  19.778  24.435  1.00  0.00    -0.083 Cl
HETATM   14  C   LIG     1      24.818  22.387  26.715  1.00  0.00     0.025 A 
HETATM   15  C   LIG     1      25.363  23.272  25.780  1.00  0.00     0.035 A 
HETATM   16 CL   LIG     1      26.378  24.599  26.315  1.00  0.00    -0.084 Cl
HETATM   17  C   LIG     1      25.100  23.100  24.417  1.00  0.00     0.038 A 
ENDBRANCH   1  10
TORSDOF 1
ENDMDL
MODEL 7
REMARK VINA RESULT:      -4.9     15.502     16.888
REMARK  1 active torsions:
REMARK  status: ('A' for Active; 'I' for Inactive)
REMARK    1  A    between atoms: C_7  and  C_8 
ROOT
HETATM    1  C   LIG     1      26.011  23.084  20.185  1.00  0.00    -0.001 A 
HETATM    2  C   LIG     1      26.484  22.772  21.466  1.00  0.00     0.016 A 
HETATM    3  C   LIG     1      27.388  23.616  22.110  1.00  0.00     0.026 A 
HETATM    4  C   LIG     1      27.827  24.785  21.485  1.00  0.00     0.057 A 
HETATM    5 CL   LIG     1      28.970  25.819  22.335  1.00  0.00    -0.082 Cl
HETATM    6  C   LIG     1      27.353  25.120  20.203  1.00  0.00     0.078 A 
HETATM    7 CL   LIG     1      27.901  26.602  19.421  1.00  0.00    -0.081 Cl
HETATM    8  C   LIG     1      26.439  24.269  19.551  1.00  0.00     0.068 A 
HETATM    9 CL   LIG     1      25.810  24.702  17.958  1.00  0.00    -0.082 Cl
ENDROOT
BRANCH   1  10
HETATM   10  C   LIG     1      25.058  22.164  19.531  1.00  0.00    -0.001 A 
HETATM   11  C   LIG     1      23.717  22.075  19.956  1.00  0.00     0.045 A 
HETATM   12  C   LIG     1      22.841  21.192  19.314  1.00  0.00     0.026 A 
HETATM   13 CL   LIG     1      23.100  23.074  21.268  1.00  0.00    -0.083 Cl
HETATM   14  C   LIG     1      23.287  20.404  18.250  1.00  0.00     0.025 A 
HETATM   15  C   LIG     1      24.614  20.497  17.819  1.00  0.00     0.035 A 
HETATM   16 CL   LIG     1      25.172  19.510  16.480  1.00  0.00    -0.084 Cl
HETATM   17  C   LIG     1      25.496  21.376  18.454  1.00  0.00     0.038 A 
ENDBRANCH   1  10
TORSDOF 1
ENDMDL
MODEL 8
REMARK VINA RESULT:      -4.8     15.725     16.616
REMARK  1 active torsions:
REMARK  status: ('A' for Active; 'I' for Inactive)
REMARK    1  A    between atoms: C_7  and  C_8 
ROOT
HETATM    1  C   LIG     1      26.323  22.672  19.216  1.00  0.00    -0.001 A 
HETATM    2  C   LIG     1      26.909  21.486  18.757  1.00  0.00     0.016 A 
HETATM    3  C   LIG     1      27.941  21.525  17.820  1.00  0.00     0.026 A 
HETATM    4  C   LIG     1      28.405  22.750  17.334  1.00  0.00     0.057 A 
HETATM    5 CL   LIG     1      29.707  22.750  16.152  1.00  0.00    -0.082 Cl
HETATM    6  C   LIG     1      27.835  23.951  17.793  1.00  0.00     0.078 A 
HETATM    7 CL   LIG     1      28.430  25.497  17.186  1.00  0.00    -0.081 Cl
HETATM    8  C   LIG     1      26.793  23.915  18.740  1.00  0.00     0.068 A 
HETATM    9 CL   LIG     1      26.099  25.420  19.351  1.00  0.00    -0.082 Cl
ENDROOT
BRANCH   1  10
HETATM   10  C   LIG     1      25.228  22.593  20.204  1.00  0.00    -0.001 A 
HETATM   11  C   LIG     1      23.900  22.334  19.807  1.00  0.00     0.045 A 
HETATM   12  C   LIG     1      22.886  22.268  20.769  1.00  0.00     0.026 A 
HETATM   13 CL   LIG     1      23.482  22.064  18.118  1.00  0.00    -0.083 Cl
HETATM   14  C   LIG     1      23.185  22.449  22.122  1.00  0.00     0.025 A 
HETATM   15  C   LIG     1      24.501  22.695  22.522  1.00  0.00     0.035 A 
HETATM   16 CL   LIG     1      24.876  22.918  24.221  1.00  0.00    -0.084 Cl
HETATM   17  C   LIG     1      25.521  22.764  21.567  1.00  0.00     0.038 A 
ENDBRANCH   1  10
TORSDOF 1
ENDMDL
MODEL 9
REMARK VINA RESULT:      -4.8     15.650     16.642
REMARK  1 active torsions:
REMARK  status: ('A' for Active; 'I' for Inactive)
REMARK    1  A    between atoms: C_7  and  C_8 
ROOT
HETATM    1  C   LIG     1      24.762  21.388  21.998  1.00  0.00    -0.001 A 
HETATM    2  C   LIG     1      25.927  20.726  21.590  1.00  0.00     0.016 A 
HETATM    3  C   LIG     1      26.135  20.429  20.244  1.00  0.00     0.026 A 
HETATM    4  C   LIG     1      25.185  20.793  19.286  1.00  0.00     0.057 A 
HETATM    5 CL   LIG     1      25.489  20.394  17.600  1.00  0.00    -0.082 Cl
HETATM    6  C   LIG     1      24.014  21.468  19.678  1.00  0.00     0.078 A 
HETATM    7 CL   LIG     1      22.821  21.936  18.466  1.00  0.00    -0.081 Cl
HETATM    8  C   LIG     1      23.802  21.771  21.037  1.00  0.00     0.068 A 
HETATM    9 CL   LIG     1      22.353  22.653  21.531  1.00  0.00    -0.082 Cl
ENDROOT
BRANCH   1  10
HETATM   10  C   LIG     1      24.572  21.682  23.432  1.00  0.00    -0.001 A 
HETATM   11  C   LIG     1      23.734  20.885  24.239  1.00  0.00     0.045 A 
HETATM   12  C   LIG     1      23.574  21.192  25.595  1.00  0.00     0.026 A 
HETATM   13 CL   LIG     1      22.894  19.482  23.586  1.00  0.00    -0.083 Cl
HETATM   14  C   LIG     1      24.248  22.282  26.155  1.00  0.00     0.025 A 
HETATM   15  C   LIG     1      25.088  23.068  25.362  1.00  0.00     0.035 A 
HETATM   16 CL   LIG     1      25.936  24.432  26.067  1.00  0.00    -0.084 Cl
HETATM   17  C   LIG     1      25.252  22.768  24.006  1.00  0.00     0.038 A 
ENDBRANCH   1  10
TORSDOF 1
ENDMDL
MODEL 10
REMARK VINA RESULT:      -4.7      7.035     11.186
REMARK  1 active torsions:
REMARK  status: ('A' for Active; 'I' for Inactive)
REMARK    1  A    between atoms: C_7  and  C_8 
ROOT
HETATM    1  C   LIG     1      14.239  30.683  15.349  1.00  0.00    -0.001 A 
HETATM    2  C   LIG     1      13.681  30.882  16.617  1.00  0.00     0.016 A 
HETATM    3  C   LIG     1      14.082  31.963  17.403  1.00  0.00     0.026 A 
HETATM    4  C   LIG     1      15.041  32.860  16.929  1.00  0.00     0.057 A 
HETATM    5 CL   LIG     1      15.517  34.207  17.956  1.00  0.00    -0.082 Cl
HETATM    6  C   LIG     1      15.603  32.681  15.652  1.00  0.00     0.078 A 
HETATM    7 CL   LIG     1      16.806  33.823  15.051  1.00  0.00    -0.081 Cl
HETATM    8  C   LIG     1      15.199  31.592  14.856  1.00  0.00     0.068 A 
HETATM    9 CL   LIG     1      15.872  31.382  13.236  1.00  0.00    -0.082 Cl
ENDROOT
BRANCH   1  10
HETATM   10  C   LIG     1      13.795  29.525  14.546  1.00  0.00    -0.001 A 
HETATM   11  C   LIG     1      14.694  28.506  14.172  1.00  0.00     0.045 A 
HETATM   12  C   LIG     1      14.241  27.423  13.410  1.00  0.00     0.026 A 
HETATM   13 CL   LIG     1      16.384  28.544  14.664  1.00  0.00    -0.083 Cl
HETATM   14  C   LIG     1      12.900  27.344  13.024  1.00  0.00     0.025 A 
HETATM   15  C   LIG     1      12.002  28.347  13.403  1.00  0.00     0.035 A 
HETATM   16 CL   LIG     1      10.319  28.244  12.922  1.00  0.00    -0.084 Cl
HETATM   17  C   LIG     1      12.447  29.432  14.164  1.00  0.00     0.038 A 
ENDBRANCH   1  10
TORSDOF 1
ENDMDL
MODEL 11
REMARK VINA RESULT:      -4.6     15.814     17.000
REMARK  1 active torsions:
REMARK  status: ('A' for Active; 'I' for Inactive)
REMARK    1  A    between atoms: C_7  and  C_8 
ROOT
HETATM    1  C   LIG     1      24.612  21.963  21.090  1.00  0.00    -0.001 A 
HETATM    2  C   LIG     1      23.352  22.292  21.606  1.00  0.00     0.016 A 
HETATM    3  C   LIG     1      22.611  21.348  22.316  1.00  0.00     0.026 A 
HETATM    4  C   LIG     1      23.121  20.065  22.526  1.00  0.00     0.057 A 
HETATM    5 CL   LIG     1      22.150  18.907  23.427  1.00  0.00    -0.082 Cl
HETATM    6  C   LIG     1      24.390  19.721  22.025  1.00  0.00     0.078 A 
HETATM    7 CL   LIG     1      25.037  18.104  22.301  1.00  0.00    -0.081 Cl
HETATM    8  C   LIG     1      25.141  20.673  21.308  1.00  0.00     0.068 A 
HETATM    9 CL   LIG     1      26.752  20.261  20.710  1.00  0.00    -0.082 Cl
ENDROOT
BRANCH   1  10
HETATM   10  C   LIG     1      25.366  22.985  20.338  1.00  0.00    -0.001 A 
HETATM   11  C   LIG     1      25.166  23.173  18.955  1.00  0.00     0.045 A 
HETATM   12  C   LIG     1      25.899  24.151  18.272  1.00  0.00     0.026 A 
HETATM   13 CL   LIG     1      23.987  22.221  18.059  1.00  0.00    -0.083 Cl
HETATM   14  C   LIG     1      26.823  24.945  18.955  1.00  0.00     0.025 A 
HETATM   15  C   LIG     1      27.017  24.770  20.328  1.00  0.00     0.035 A 
HETATM   16 CL   LIG     1      28.174  25.771  21.186  1.00  0.00    -0.084 Cl
HETATM   17  C   LIG     1      26.289  23.796  21.019  1.00  0.00     0.038 A 
ENDBRANCH   1  10
TORSDOF 1
ENDMDL
MODEL 12
REMARK VINA RESULT:      -4.5      7.713     10.155
REMARK  1 active torsions:
REMARK  status: ('A' for Active; 'I' for Inactive)
REMARK    1  A    between atoms: C_7  and  C_8 
ROOT
HETATM    1  C   LIG     1      16.967  32.993  13.801  1.00  0.00    -0.001 A 
HETATM    2  C   LIG     1      16.373  31.812  13.340  1.00  0.00     0.016 A 
HETATM    3  C   LIG     1      15.407  31.162  14.108  1.00  0.00     0.026 A 
HETATM    4  C   LIG     1      15.019  31.685  15.343  1.00  0.00     0.057 A 
HETATM    5 CL   LIG     1      13.799  30.829  16.277  1.00  0.00    -0.082 Cl
HETATM    6  C   LIG     1      15.598  32.877  15.816  1.00  0.00     0.078 A 
HETATM    7 CL   LIG     1      15.098  33.542  17.371  1.00  0.00    -0.081 Cl
HETATM    8  C   LIG     1      16.573  33.537  15.042  1.00  0.00     0.068 A 
HETATM    9 CL   LIG     1      17.275  35.054  15.611  1.00  0.00    -0.082 Cl
ENDROOT
BRANCH   1  10
HETATM   10  C   LIG     1      17.991  33.653  12.965  1.00  0.00    -0.001 A 
HETATM   11  C   LIG     1      17.629  34.478  11.881  1.00  0.00     0.045 A 
HETATM   12  C   LIG     1      18.625  35.087  11.107  1.00  0.00     0.026 A 
HETATM   13 CL   LIG     1      15.943  34.789  11.484  1.00  0.00    -0.083 Cl
HETATM   14  C   LIG     1      19.974  34.886  11.410  1.00  0.00     0.025 A 
HETATM   15  C   LIG     1      20.337  34.077  12.490  1.00  0.00     0.035 A 
HETATM   16 CL   LIG     1      22.031  33.830  12.871  1.00  0.00    -0.084 Cl
HETATM   17  C   LIG     1      19.349  33.465  13.268  1.00  0.00     0.038 A 
ENDBRANCH   1  10
TORSDOF 1
ENDMDL
MODEL 13
REMARK VINA RESULT:      -4.5     15.618     17.634
REMARK  1 active torsions:
REMARK  status: ('A' for Active; 'I' for Inactive)
REMARK    1  A    between atoms: C_7  and  C_8 
ROOT
HETATM    1  C   LIG     1      27.482  25.649  29.299  1.00  0.00    -0.001 A 
HETATM    2  C   LIG     1      27.156  26.968  29.641  1.00  0.00     0.016 A 
HETATM    3  C   LIG     1      27.148  27.370  30.976  1.00  0.00     0.026 A 
HETATM    4  C   LIG     1      27.471  26.461  31.987  1.00  0.00     0.057 A 
HETATM    5 CL   LIG     1      27.446  27.014  33.657  1.00  0.00    -0.082 Cl
HETATM    6  C   LIG     1      27.812  25.136  31.661  1.00  0.00     0.078 A 
HETATM    7 CL   LIG     1      28.230  23.994  32.938  1.00  0.00    -0.081 Cl
HETATM    8  C   LIG     1      27.822  24.728  30.313  1.00  0.00     0.068 A 
HETATM    9 CL   LIG     1      28.287  23.076  29.892  1.00  0.00    -0.082 Cl
ENDROOT
BRANCH   1  10
HETATM   10  C   LIG     1      27.475  25.257  27.876  1.00  0.00    -0.001 A 
HETATM   11  C   LIG     1      28.582  25.511  27.040  1.00  0.00     0.045 A 
HETATM   12  C   LIG     1      28.542  25.127  25.695  1.00  0.00     0.026 A 
HETATM   13 CL   LIG     1      30.039  26.283  27.655  1.00  0.00    -0.083 Cl
HETATM   14  C   LIG     1      27.412  24.486  25.178  1.00  0.00     0.025 A 
HETATM   15  C   LIG     1      26.317  24.222  26.005  1.00  0.00     0.035 A 
HETATM   16 CL   LIG     1      24.902  23.413  25.356  1.00  0.00    -0.084 Cl
HETATM   17  C   LIG     1      26.348  24.603  27.350  1.00  0.00     0.038 A 
ENDBRANCH   1  10
TORSDOF 1
ENDMDL
MODEL 14
REMARK VINA RESULT:      -4.4     15.955     16.941
REMARK  1 active torsions:
REMARK  status: ('A' for Active; 'I' for Inactive)
REMARK    1  A    between atoms: C_7  and  C_8 
ROOT
HETATM    1  C   LIG     1      23.630  21.181  22.556  1.00  0.00    -0.001 A 
HETATM    2  C   LIG     1      22.666  21.971  21.918  1.00  0.00     0.016 A 
HETATM    3  C   LIG     1      22.797  22.290  20.566  1.00  0.00     0.026 A 
HETATM    4  C   LIG     1      23.891  21.820  19.835  1.00  0.00     0.057 A 
HETATM    5 CL   LIG     1      24.015  22.251  18.133  1.00  0.00    -0.082 Cl
HETATM    6  C   LIG     1      24.862  21.017  20.458  1.00  0.00     0.078 A 
HETATM    7 CL   LIG     1      26.236  20.416  19.530  1.00  0.00    -0.081 Cl
HETATM    8  C   LIG     1      24.731  20.692  21.823  1.00  0.00     0.068 A 
HETATM    9 CL   LIG     1      25.927  19.651  22.603  1.00  0.00    -0.082 Cl
ENDROOT
BRANCH   1  10
HETATM   10  C   LIG     1      23.462  20.868  23.990  1.00  0.00    -0.001 A 
HETATM   11  C   LIG     1      24.082  21.647  24.988  1.00  0.00     0.045 A 
HETATM   12  C   LIG     1      23.903  21.321  26.337  1.00  0.00     0.026 A 
HETATM   13 CL   LIG     1      25.064  23.050  24.580  1.00  0.00    -0.083 Cl
HETATM   14  C   LIG     1      23.107  20.231  26.700  1.00  0.00     0.025 A 
HETATM   15  C   LIG     1      22.482  19.462  25.714  1.00  0.00     0.035 A 
HETATM   16 CL   LIG     1      21.479  18.097  26.171  1.00  0.00    -0.084 Cl
HETATM   17  C   LIG     1      22.655  19.780  24.364  1.00  0.00     0.038 A 
ENDBRANCH   1  10
TORSDOF 1
ENDMDL
MODEL 15
REMARK VINA RESULT:      -4.4     15.123     17.008
REMARK  1 active torsions:
REMARK  status: ('A' for Active; 'I' for Inactive)
REMARK    1  A    between atoms: C_7  and  C_8 
ROOT
HETATM    1  C   LIG     1      25.719  23.063  24.571  1.00  0.00    -0.001 A 
HETATM    2  C   LIG     1      25.351  23.687  25.769  1.00  0.00     0.016 A 
HETATM    3  C   LIG     1      26.270  24.465  26.471  1.00  0.00     0.026 A 
HETATM    4  C   LIG     1      27.568  24.635  25.982  1.00  0.00     0.057 A 
HETATM    5 CL   LIG     1      28.694  25.624  26.903  1.00  0.00    -0.082 Cl
HETATM    6  C   LIG     1      27.951  24.024  24.774  1.00  0.00     0.078 A 
HETATM    7 CL   LIG     1      29.586  24.249  24.153  1.00  0.00    -0.081 Cl
HETATM    8  C   LIG     1      27.023  23.239  24.062  1.00  0.00     0.068 A 
HETATM    9 CL   LIG     1      27.485  22.501  22.525  1.00  0.00    -0.082 Cl
ENDROOT
BRANCH   1  10
HETATM   10  C   LIG     1      24.721  22.241  23.857  1.00  0.00    -0.001 A 
HETATM   11  C   LIG     1      24.512  20.888  24.191  1.00  0.00     0.045 A 
HETATM   12  C   LIG     1      23.559  20.137  23.493  1.00  0.00     0.026 A 
HETATM   13 CL   LIG     1      25.408  20.114  25.495  1.00  0.00    -0.083 Cl
HETATM   14  C   LIG     1      22.809  20.724  22.471  1.00  0.00     0.025 A 
HETATM   15  C   LIG     1      23.005  22.069  22.143  1.00  0.00     0.035 A 
HETATM   16 CL   LIG     1      22.059  22.807  20.863  1.00  0.00    -0.084 Cl
HETATM   17  C   LIG     1      23.955  22.826  22.835  1.00  0.00     0.038 A 
ENDBRANCH   1  10
TORSDOF 1
ENDMDL
MODEL 16
REMARK VINA RESULT:      -4.4     15.534     16.469
REMARK  1 active torsions:
REMARK  status: ('A' for Active; 'I' for Inactive)
REMARK    1  A    between atoms: C_7  and  C_8 
ROOT
HETATM    1  C   LIG     1      24.481  21.986  22.116  1.00  0.00    -0.001 A 
HETATM    2  C   LIG     1      23.401  22.681  21.558  1.00  0.00     0.016 A 
HETATM    3  C   LIG     1      22.872  22.292  20.328  1.00  0.00     0.026 A 
HETATM    4  C   LIG     1      23.411  21.201  19.642  1.00  0.00     0.057 A 
HETATM    5 CL   LIG     1      22.711  20.749  18.092  1.00  0.00    -0.082 Cl
HETATM    6  C   LIG     1      24.488  20.485  20.194  1.00  0.00     0.078 A 
HETATM    7 CL   LIG     1      25.160  19.101  19.332  1.00  0.00    -0.081 Cl
HETATM    8  C   LIG     1      25.024  20.874  21.437  1.00  0.00     0.068 A 
HETATM    9 CL   LIG     1      26.351  19.956  22.155  1.00  0.00    -0.082 Cl
ENDROOT
BRANCH   1  10
HETATM   10  C   LIG     1      25.020  22.428  23.418  1.00  0.00    -0.001 A 
HETATM   11  C   LIG     1      26.201  23.194  23.500  1.00  0.00     0.045 A 
HETATM   12  C   LIG     1      26.685  23.596  24.750  1.00  0.00     0.026 A 
HETATM   13 CL   LIG     1      27.078  23.687  22.055  1.00  0.00    -0.083 Cl
HETATM   14  C   LIG     1      26.000  23.247  25.917  1.00  0.00     0.025 A 
HETATM   15  C   LIG     1      24.823  22.497  25.840  1.00  0.00     0.035 A 
HETATM   16 CL   LIG     1      23.961  22.065  27.305  1.00  0.00    -0.084 Cl
HETATM   17  C   LIG     1      24.332  22.091  24.595  1.00  0.00     0.038 A 
ENDBRANCH   1  10
TORSDOF 1
ENDMDL
MODEL 17
REMARK VINA RESULT:      -4.4     15.997     17.364
REMARK  1 active torsions:
REMARK  status: ('A' for Active; 'I' for Inactive)
REMARK    1  A    between atoms: C_7  and  C_8 
ROOT
HETATM    1  C   LIG     1      26.637  23.115  19.766  1.00  0.00    -0.001 A 
HETATM    2  C   LIG     1      27.295  23.178  21.000  1.00  0.00     0.016 A 
HETATM    3  C   LIG     1      26.594  22.960  22.186  1.00  0.00     0.026 A 
HETATM    4  C   LIG     1      25.227  22.672  22.153  1.00  0.00     0.057 A 
HETATM    5 CL   LIG     1      24.384  22.407  23.674  1.00  0.00    -0.082 Cl
HETATM    6  C   LIG     1      24.553  22.594  20.921  1.00  0.00     0.078 A 
HETATM    7 CL   LIG     1      22.830  22.218  20.882  1.00  0.00    -0.081 Cl
HETATM    8  C   LIG     1      25.259  22.811  19.722  1.00  0.00     0.068 A 
HETATM    9 CL   LIG     1      24.428  22.676  18.169  1.00  0.00    -0.082 Cl
ENDROOT
BRANCH   1  10
HETATM   10  C   LIG     1      27.410  23.356  18.531  1.00  0.00    -0.001 A 
HETATM   11  C   LIG     1      27.638  24.663  18.053  1.00  0.00     0.045 A 
HETATM   12  C   LIG     1      28.374  24.856  16.878  1.00  0.00     0.026 A 
HETATM   13 CL   LIG     1      27.040  26.075  18.918  1.00  0.00    -0.083 Cl
HETATM   14  C   LIG     1      28.888  23.760  16.180  1.00  0.00     0.025 A 
HETATM   15  C   LIG     1      28.674  22.463  16.656  1.00  0.00     0.035 A 
HETATM   16 CL   LIG     1      29.324  21.089  15.781  1.00  0.00    -0.084 Cl
HETATM   17  C   LIG     1      27.939  22.261  17.829  1.00  0.00     0.038 A 
ENDBRANCH   1  10
TORSDOF 1
ENDMDL
MODEL 18
REMARK VINA RESULT:      -4.3     17.535     19.206
REMARK  1 active torsions:
REMARK  status: ('A' for Active; 'I' for Inactive)
REMARK    1  A    between atoms: C_7  and  C_8 
ROOT
HETATM    1  C   LIG     1      20.239  20.572  31.983  1.00  0.00    -0.001 A 
HETATM    2  C   LIG     1      19.321  21.190  31.126  1.00  0.00     0.016 A 
HETATM    3  C   LIG     1      19.324  20.902  29.762  1.00  0.00     0.026 A 
HETATM    4  C   LIG     1      20.241  19.988  29.237  1.00  0.00     0.057 A 
HETATM    5 CL   LIG     1      20.209  19.658  27.509  1.00  0.00    -0.082 Cl
HETATM    6  C   LIG     1      21.164  19.350  30.086  1.00  0.00     0.078 A 
HETATM    7 CL   LIG     1      22.313  18.188  29.422  1.00  0.00    -0.081 Cl
HETATM    8  C   LIG     1      21.162  19.638  31.464  1.00  0.00     0.068 A 
HETATM    9 CL   LIG     1      22.291  18.811  32.542  1.00  0.00    -0.082 Cl
ENDROOT
BRANCH   1  10
HETATM   10  C   LIG     1      20.211  20.905  33.422  1.00  0.00    -0.001 A 
HETATM   11  C   LIG     1      19.585  20.057  34.357  1.00  0.00     0.045 A 
HETATM   12  C   LIG     1      19.575  20.403  35.714  1.00  0.00     0.026 A 
HETATM   13 CL   LIG     1      18.828  18.545  33.866  1.00  0.00    -0.083 Cl
HETATM   14  C   LIG     1      20.190  21.581  36.145  1.00  0.00     0.025 A 
HETATM   15  C   LIG     1      20.822  22.419  35.222  1.00  0.00     0.035 A 
HETATM   16 CL   LIG     1      21.599  23.896  35.766  1.00  0.00    -0.084 Cl
HETATM   17  C   LIG     1      20.836  22.081  33.865  1.00  0.00     0.038 A 
ENDBRANCH   1  10
TORSDOF 1
ENDMDL
MODEL 19
REMARK VINA RESULT:      -4.2     15.770     17.203
REMARK  1 active torsions:
REMARK  status: ('A' for Active; 'I' for Inactive)
REMARK    1  A    between atoms: C_7  and  C_8 
ROOT
HETATM    1  C   LIG     1      26.766  23.439  19.879  1.00  0.00    -0.001 A 
HETATM    2  C   LIG     1      27.366  23.415  21.144  1.00  0.00     0.016 A 
HETATM    3  C   LIG     1      26.619  23.080  22.273  1.00  0.00     0.026 A 
HETATM    4  C   LIG     1      25.265  22.759  22.153  1.00  0.00     0.057 A 
HETATM    5 CL   LIG     1      24.363  22.344  23.605  1.00  0.00    -0.082 Cl
HETATM    6  C   LIG     1      24.649  22.767  20.887  1.00  0.00     0.078 A 
HETATM    7 CL   LIG     1      22.942  22.350  20.736  1.00  0.00    -0.081 Cl
HETATM    8  C   LIG     1      25.401  23.104  19.745  1.00  0.00     0.068 A 
HETATM    9 CL   LIG     1      24.645  23.078  18.149  1.00  0.00    -0.082 Cl
ENDROOT
BRANCH   1  10
HETATM   10  C   LIG     1      27.585  23.804  18.706  1.00  0.00    -0.001 A 
HETATM   11  C   LIG     1      28.031  22.828  17.792  1.00  0.00     0.045 A 
HETATM   12  C   LIG     1      28.807  23.208  16.691  1.00  0.00     0.026 A 
HETATM   13 CL   LIG     1      27.611  21.129  17.984  1.00  0.00    -0.083 Cl
HETATM   14  C   LIG     1      29.136  24.551  16.490  1.00  0.00     0.025 A 
HETATM   15  C   LIG     1      28.688  25.524  17.388  1.00  0.00     0.035 A 
HETATM   16 CL   LIG     1      29.098  27.210  17.132  1.00  0.00    -0.084 Cl
HETATM   17  C   LIG     1      27.912  25.153  18.491  1.00  0.00     0.038 A 
ENDBRANCH   1  10
TORSDOF 1
ENDMDL
MODEL 20
REMARK VINA RESULT:      -4.1     15.761     16.866
REMARK  1 active torsions:
REMARK  status: ('A' for Active; 'I' for Inactive)
REMARK    1  A    between atoms: C_7  and  C_8 
ROOT
HETATM    1  C   LIG     1      26.143  23.358  19.914  1.00  0.00    -0.001 A 
HETATM    2  C   LIG     1      25.753  24.000  18.732  1.00  0.00     0.016 A 
HETATM    3  C   LIG     1      26.348  25.203  18.353  1.00  0.00     0.026 A 
HETATM    4  C   LIG     1      27.344  25.777  19.147  1.00  0.00     0.057 A 
HETATM    5 CL   LIG     1      28.064  27.297  18.629  1.00  0.00    -0.082 Cl
HETATM    6  C   LIG     1      27.755  25.139  20.331  1.00  0.00     0.078 A 
HETATM    7 CL   LIG     1      29.021  25.860  21.326  1.00  0.00    -0.081 Cl
HETATM    8  C   LIG     1      27.157  23.924  20.716  1.00  0.00     0.068 A 
HETATM    9 CL   LIG     1      27.696  23.097  22.181  1.00  0.00    -0.082 Cl
ENDROOT
BRANCH   1  10
HETATM   10  C   LIG     1      25.487  22.089  20.288  1.00  0.00    -0.001 A 
HETATM   11  C   LIG     1      25.927  20.856  19.764  1.00  0.00     0.045 A 
HETATM   12  C   LIG     1      25.282  19.671  20.138  1.00  0.00     0.026 A 
HETATM   13 CL   LIG     1      27.296  20.761  18.661  1.00  0.00    -0.083 Cl
HETATM   14  C   LIG     1      24.210  19.704  21.033  1.00  0.00     0.025 A 
HETATM   15  C   LIG     1      23.777  20.923  21.563  1.00  0.00     0.035 A 
HETATM   16 CL   LIG     1      22.434  20.962  22.691  1.00  0.00    -0.084 Cl
HETATM   17  C   LIG     1      24.415  22.111  21.195  1.00  0.00     0.038 A 
ENDBRANCH   1  10
TORSDOF 1
ENDMDL
