REMARK  1 active torsions:
REMARK  status: ('A' for Active; 'I' for Inactive)
REMARK    1  A    between atoms: C_5  and  C_6 
ROOT
HETATM    1 CL   LIG     1       5.277  -0.448   0.353  1.00  0.00    -0.082 Cl
HETATM    2  C   LIG     1       3.532  -0.269   0.221  1.00  0.00     0.057 A 
HETATM    3  C   LIG     1       2.720  -1.351   0.565  1.00  0.00     0.026 A 
HETATM    4  C   LIG     1       1.332  -1.248   0.472  1.00  0.00     0.016 A 
HETATM    5  C   LIG     1       0.737  -0.057   0.035  1.00  0.00    -0.001 A 
HETATM    6  C   LIG     1       1.550   1.042  -0.314  1.00  0.00     0.068 A 
HETATM    7 CL   LIG     1       0.816   2.562  -0.837  1.00  0.00    -0.082 Cl
HETATM    8  C   LIG     1       2.951   0.934  -0.220  1.00  0.00     0.078 A 
HETATM    9 CL   LIG     1       3.980   2.302  -0.649  1.00  0.00    -0.081 Cl
ENDROOT
BRANCH   5  10
HETATM   10  C   LIG     1      -0.737   0.015  -0.065  1.00  0.00    -0.001 A 
HETATM   11  C   LIG     1      -1.332   0.038  -1.334  1.00  0.00     0.016 A 
HETATM   12  C   LIG     1      -2.720   0.092  -1.461  1.00  0.00     0.026 A 
HETATM   13  C   LIG     1      -3.532   0.122  -0.325  1.00  0.00     0.057 A 
HETATM   14  C   LIG     1      -2.951   0.099   0.956  1.00  0.00     0.078 A 
HETATM   15 CL   LIG     1      -5.277   0.189  -0.537  1.00  0.00    -0.082 Cl
HETATM   16 CL   LIG     1      -3.979   0.142   2.389  1.00  0.00    -0.081 Cl
HETATM   17  C   LIG     1      -1.550   0.045   1.088  1.00  0.00     0.068 A 
HETATM   18 CL   LIG     1      -0.815   0.048   2.695  1.00  0.00    -0.082 Cl
ENDBRANCH   5  10
TORSDOF 1
