REMARK  1 active torsions:
REMARK  status: ('A' for Active; 'I' for Inactive)
REMARK    1  A    between atoms: C_7  and  C_8 
ROOT
HETATM    1  C   LIG     1       0.709   0.006  -0.024  1.00  0.00    -0.001 A 
HETATM    2  C   LIG     1       1.445  -1.159   0.225  1.00  0.00     0.016 A 
HETATM    3  C   LIG     1       2.839  -1.132   0.200  1.00  0.00     0.026 A 
HETATM    4  C   LIG     1       3.516   0.060  -0.069  1.00  0.00     0.057 A 
HETATM    5 CL   LIG     1       5.275   0.045  -0.092  1.00  0.00    -0.082 Cl
HETATM    6  C   LIG     1       2.792   1.242  -0.310  1.00  0.00     0.078 A 
HETATM    7 CL   LIG     1       3.649   2.748  -0.638  1.00  0.00    -0.081 Cl
HETATM    8  C   LIG     1       1.384   1.218  -0.284  1.00  0.00     0.068 A 
HETATM    9 CL   LIG     1       0.469   2.706  -0.547  1.00  0.00    -0.082 Cl
ENDROOT
BRANCH   1  10
HETATM   10  C   LIG     1      -0.766  -0.060   0.005  1.00  0.00    -0.001 A 
HETATM   11  C   LIG     1      -1.524  -0.027  -1.183  1.00  0.00     0.045 A 
HETATM   12  C   LIG     1      -2.921  -0.090  -1.120  1.00  0.00     0.026 A 
HETATM   13 CL   LIG     1      -0.753   0.066  -2.763  1.00  0.00    -0.083 Cl
HETATM   14  C   LIG     1      -3.567  -0.193   0.115  1.00  0.00     0.025 A 
HETATM   15  C   LIG     1      -2.819  -0.237   1.295  1.00  0.00     0.035 A 
HETATM   16 CL   LIG     1      -3.631  -0.371   2.844  1.00  0.00    -0.084 Cl
HETATM   17  C   LIG     1      -1.423  -0.174   1.241  1.00  0.00     0.038 A 
ENDBRANCH   1  10
TORSDOF 1
