MODEL 1
REMARK VINA RESULT:      -7.3      0.000      0.000
REMARK  1 active torsions:
REMARK  status: ('A' for Active; 'I' for Inactive)
REMARK    1  A    between atoms: C_7  and  C_11 
ROOT
HETATM    1 CL   LIG     1      14.446  35.656  21.952  1.00  0.00    -0.082 Cl
HETATM    2  C   LIG     1      15.996  36.233  21.331  1.00  0.00     0.068 A 
HETATM    3  C   LIG     1      16.663  37.284  21.991  1.00  0.00     0.080 A 
HETATM    4 CL   LIG     1      15.981  37.975  23.466  1.00  0.00    -0.081 Cl
HETATM    5  C   LIG     1      17.870  37.790  21.472  1.00  0.00     0.079 A 
HETATM    6 CL   LIG     1      18.710  39.106  22.295  1.00  0.00    -0.081 Cl
HETATM    7  C   LIG     1      16.546  35.683  20.152  1.00  0.00    -0.001 A 
HETATM    8  C   LIG     1      17.742  36.206  19.640  1.00  0.00     0.039 A 
HETATM    9  C   LIG     1      18.403  37.248  20.293  1.00  0.00     0.058 A 
HETATM   10 CL   LIG     1      19.905  37.854  19.606  1.00  0.00    -0.082 Cl
ENDROOT
BRANCH   7  11
HETATM   11  C   LIG     1      15.892  34.566  19.436  1.00  0.00    -0.022 A 
HETATM   12  C   LIG     1      15.515  34.715  18.092  1.00  0.00     0.014 A 
HETATM   13  C   LIG     1      14.913  33.656  17.407  1.00  0.00     0.026 A 
HETATM   14  C   LIG     1      14.686  32.435  18.053  1.00  0.00     0.055 A 
HETATM   15  C   LIG     1      15.072  32.273  19.394  1.00  0.00     0.056 A 
HETATM   16 CL   LIG     1      13.925  31.127  17.158  1.00  0.00    -0.083 Cl
HETATM   17 CL   LIG     1      14.816  30.753  20.240  1.00  0.00    -0.083 Cl
HETATM   18  C   LIG     1      15.677  33.336  20.077  1.00  0.00     0.038 A 
ENDBRANCH   7  11
TORSDOF 1
ENDMDL
MODEL 2
REMARK VINA RESULT:      -6.1      5.223      8.247
REMARK  1 active torsions:
REMARK  status: ('A' for Active; 'I' for Inactive)
REMARK    1  A    between atoms: C_7  and  C_11 
ROOT
HETATM    1 CL   LIG     1      16.159  31.063  12.782  1.00  0.00    -0.082 Cl
HETATM    2  C   LIG     1      15.999  32.011  14.265  1.00  0.00     0.068 A 
HETATM    3  C   LIG     1      15.087  31.603  15.258  1.00  0.00     0.080 A 
HETATM    4 CL   LIG     1      14.156  30.117  15.046  1.00  0.00    -0.081 Cl
HETATM    5  C   LIG     1      14.909  32.382  16.417  1.00  0.00     0.079 A 
HETATM    6 CL   LIG     1      13.768  31.874  17.664  1.00  0.00    -0.081 Cl
HETATM    7  C   LIG     1      16.741  33.200  14.440  1.00  0.00    -0.001 A 
HETATM    8  C   LIG     1      16.544  33.972  15.594  1.00  0.00     0.039 A 
HETATM    9  C   LIG     1      15.640  33.569  16.577  1.00  0.00     0.058 A 
HETATM   10 CL   LIG     1      15.445  34.576  18.006  1.00  0.00    -0.082 Cl
ENDROOT
BRANCH   7  11
HETATM   11  C   LIG     1      17.725  33.658  13.434  1.00  0.00    -0.022 A 
HETATM   12  C   LIG     1      17.290  34.312  12.270  1.00  0.00     0.014 A 
HETATM   13  C   LIG     1      18.218  34.762  11.326  1.00  0.00     0.026 A 
HETATM   14  C   LIG     1      19.588  34.570  11.535  1.00  0.00     0.055 A 
HETATM   15  C   LIG     1      20.032  33.929  12.704  1.00  0.00     0.056 A 
HETATM   16 CL   LIG     1      20.723  35.150  10.324  1.00  0.00    -0.083 Cl
HETATM   17 CL   LIG     1      21.745  33.679  13.012  1.00  0.00    -0.083 Cl
HETATM   18  C   LIG     1      19.100  33.480  13.649  1.00  0.00     0.038 A 
ENDBRANCH   7  11
TORSDOF 1
ENDMDL
MODEL 3
REMARK VINA RESULT:      -6.1      5.354      7.755
REMARK  1 active torsions:
REMARK  status: ('A' for Active; 'I' for Inactive)
REMARK    1  A    between atoms: C_7  and  C_11 
ROOT
HETATM    1 CL   LIG     1      13.444  30.694  16.893  1.00  0.00    -0.082 Cl
HETATM    2  C   LIG     1      14.651  31.365  15.790  1.00  0.00     0.068 A 
HETATM    3  C   LIG     1      15.382  32.508  16.169  1.00  0.00     0.080 A 
HETATM    4 CL   LIG     1      15.135  33.226  17.764  1.00  0.00    -0.081 Cl
HETATM    5  C   LIG     1      16.304  33.085  15.276  1.00  0.00     0.079 A 
HETATM    6 CL   LIG     1      17.223  34.517  15.746  1.00  0.00    -0.081 Cl
HETATM    7  C   LIG     1      14.852  30.794  14.514  1.00  0.00    -0.001 A 
HETATM    8  C   LIG     1      15.765  31.388  13.630  1.00  0.00     0.039 A 
HETATM    9  C   LIG     1      16.489  32.521  14.004  1.00  0.00     0.058 A 
HETATM   10 CL   LIG     1      17.626  33.213  12.854  1.00  0.00    -0.082 Cl
ENDROOT
BRANCH   7  11
HETATM   11  C   LIG     1      14.123  29.583  14.079  1.00  0.00    -0.022 A 
HETATM   12  C   LIG     1      14.802  28.361  13.946  1.00  0.00     0.014 A 
HETATM   13  C   LIG     1      14.112  27.211  13.552  1.00  0.00     0.026 A 
HETATM   14  C   LIG     1      12.738  27.265  13.295  1.00  0.00     0.055 A 
HETATM   15  C   LIG     1      12.048  28.480  13.440  1.00  0.00     0.056 A 
HETATM   16 CL   LIG     1      11.905  25.796  12.801  1.00  0.00    -0.083 Cl
HETATM   17 CL   LIG     1      10.319  28.589  13.139  1.00  0.00    -0.083 Cl
HETATM   18  C   LIG     1      12.741  29.631  13.836  1.00  0.00     0.038 A 
ENDBRANCH   7  11
TORSDOF 1
ENDMDL
MODEL 4
REMARK VINA RESULT:      -5.3     14.859     16.315
REMARK  1 active torsions:
REMARK  status: ('A' for Active; 'I' for Inactive)
REMARK    1  A    between atoms: C_7  and  C_11 
ROOT
HETATM    1 CL   LIG     1      27.623  24.205  21.554  1.00  0.00    -0.082 Cl
HETATM    2  C   LIG     1      26.259  23.508  20.672  1.00  0.00     0.068 A 
HETATM    3  C   LIG     1      25.222  22.871  21.382  1.00  0.00     0.080 A 
HETATM    4 CL   LIG     1      25.257  22.828  23.148  1.00  0.00    -0.081 Cl
HETATM    5  C   LIG     1      24.161  22.262  20.687  1.00  0.00     0.079 A 
HETATM    6 CL   LIG     1      22.859  21.464  21.572  1.00  0.00    -0.081 Cl
HETATM    7  C   LIG     1      26.226  23.540  19.261  1.00  0.00    -0.001 A 
HETATM    8  C   LIG     1      25.169  22.918  18.581  1.00  0.00     0.039 A 
HETATM    9  C   LIG     1      24.141  22.286  19.284  1.00  0.00     0.058 A 
HETATM   10 CL   LIG     1      22.838  21.532  18.375  1.00  0.00    -0.082 Cl
ENDROOT
BRANCH   7  11
HETATM   11  C   LIG     1      27.282  24.214  18.473  1.00  0.00    -0.022 A 
HETATM   12  C   LIG     1      28.020  23.492  17.522  1.00  0.00     0.014 A 
HETATM   13  C   LIG     1      29.006  24.129  16.763  1.00  0.00     0.026 A 
HETATM   14  C   LIG     1      29.262  25.493  16.940  1.00  0.00     0.055 A 
HETATM   15  C   LIG     1      28.517  26.226  17.880  1.00  0.00     0.056 A 
HETATM   16 CL   LIG     1      30.511  26.259  15.967  1.00  0.00    -0.083 Cl
HETATM   17 CL   LIG     1      28.798  27.945  18.125  1.00  0.00    -0.083 Cl
HETATM   18  C   LIG     1      27.529  25.586  18.638  1.00  0.00     0.038 A 
ENDBRANCH   7  11
TORSDOF 1
ENDMDL
MODEL 5
REMARK VINA RESULT:      -5.1     14.847     16.155
REMARK  1 active torsions:
REMARK  status: ('A' for Active; 'I' for Inactive)
REMARK    1  A    between atoms: C_7  and  C_11 
ROOT
HETATM    1 CL   LIG     1      27.845  21.717  17.254  1.00  0.00    -0.082 Cl
HETATM    2  C   LIG     1      28.082  23.457  17.451  1.00  0.00     0.068 A 
HETATM    3  C   LIG     1      29.102  24.107  16.730  1.00  0.00     0.080 A 
HETATM    4 CL   LIG     1      30.095  23.197  15.588  1.00  0.00    -0.081 Cl
HETATM    5  C   LIG     1      29.337  25.482  16.923  1.00  0.00     0.079 A 
HETATM    6 CL   LIG     1      30.614  26.302  16.021  1.00  0.00    -0.081 Cl
HETATM    7  C   LIG     1      27.290  24.190  18.362  1.00  0.00    -0.001 A 
HETATM    8  C   LIG     1      27.544  25.556  18.554  1.00  0.00     0.039 A 
HETATM    9  C   LIG     1      28.555  26.201  17.840  1.00  0.00     0.058 A 
HETATM   10 CL   LIG     1      28.819  27.918  18.118  1.00  0.00    -0.082 Cl
ENDROOT
BRANCH   7  11
HETATM   11  C   LIG     1      26.194  23.554  19.127  1.00  0.00    -0.022 A 
HETATM   12  C   LIG     1      26.172  23.639  20.529  1.00  0.00     0.014 A 
HETATM   13  C   LIG     1      25.129  23.055  21.253  1.00  0.00     0.026 A 
HETATM   14  C   LIG     1      24.095  22.386  20.589  1.00  0.00     0.055 A 
HETATM   15  C   LIG     1      24.103  22.309  19.186  1.00  0.00     0.056 A 
HETATM   16 CL   LIG     1      22.801  21.663  21.536  1.00  0.00    -0.083 Cl
HETATM   17 CL   LIG     1      22.816  21.489  18.311  1.00  0.00    -0.083 Cl
HETATM   18  C   LIG     1      25.148  22.896  18.462  1.00  0.00     0.038 A 
ENDBRANCH   7  11
TORSDOF 1
ENDMDL
MODEL 6
REMARK VINA RESULT:      -5.0     14.860     16.239
REMARK  1 active torsions:
REMARK  status: ('A' for Active; 'I' for Inactive)
REMARK    1  A    between atoms: C_7  and  C_11 
ROOT
HETATM    1 CL   LIG     1      22.809  20.086  24.689  1.00  0.00    -0.082 Cl
HETATM    2  C   LIG     1      24.011  21.344  24.999  1.00  0.00     0.068 A 
HETATM    3  C   LIG     1      24.446  21.581  26.318  1.00  0.00     0.080 A 
HETATM    4 CL   LIG     1      23.838  20.583  27.643  1.00  0.00    -0.081 Cl
HETATM    5  C   LIG     1      25.359  22.618  26.584  1.00  0.00     0.079 A 
HETATM    6 CL   LIG     1      25.908  22.920  28.235  1.00  0.00    -0.081 Cl
HETATM    7  C   LIG     1      24.501  22.144  23.944  1.00  0.00    -0.001 A 
HETATM    8  C   LIG     1      25.400  23.182  24.226  1.00  0.00     0.039 A 
HETATM    9  C   LIG     1      25.831  23.419  25.532  1.00  0.00     0.058 A 
HETATM   10 CL   LIG     1      26.968  24.730  25.820  1.00  0.00    -0.082 Cl
ENDROOT
BRANCH   7  11
HETATM   11  C   LIG     1      24.088  21.919  22.541  1.00  0.00    -0.022 A 
HETATM   12  C   LIG     1      23.002  22.629  22.004  1.00  0.00     0.014 A 
HETATM   13  C   LIG     1      22.621  22.432  20.674  1.00  0.00     0.026 A 
HETATM   14  C   LIG     1      23.321  21.532  19.863  1.00  0.00     0.055 A 
HETATM   15  C   LIG     1      24.418  20.828  20.390  1.00  0.00     0.056 A 
HETATM   16 CL   LIG     1      22.810  21.311  18.196  1.00  0.00    -0.083 Cl
HETATM   17 CL   LIG     1      25.333  19.696  19.403  1.00  0.00    -0.083 Cl
HETATM   18  C   LIG     1      24.799  21.028  21.723  1.00  0.00     0.038 A 
ENDBRANCH   7  11
TORSDOF 1
ENDMDL
MODEL 7
REMARK VINA RESULT:      -4.8     14.483     16.484
REMARK  1 active torsions:
REMARK  status: ('A' for Active; 'I' for Inactive)
REMARK    1  A    between atoms: C_7  and  C_11 
ROOT
HETATM    1 CL   LIG     1      26.820  23.188  22.095  1.00  0.00    -0.082 Cl
HETATM    2  C   LIG     1      25.660  22.527  20.937  1.00  0.00     0.068 A 
HETATM    3  C   LIG     1      24.821  21.463  21.322  1.00  0.00     0.080 A 
HETATM    4 CL   LIG     1      24.886  20.838  22.973  1.00  0.00    -0.081 Cl
HETATM    5  C   LIG     1      23.934  20.891  20.391  1.00  0.00     0.079 A 
HETATM    6 CL   LIG     1      22.880  19.558  20.869  1.00  0.00    -0.081 Cl
HETATM    7  C   LIG     1      25.603  23.023  19.617  1.00  0.00    -0.001 A 
HETATM    8  C   LIG     1      24.724  22.434  18.696  1.00  0.00     0.039 A 
HETATM    9  C   LIG     1      23.892  21.380  19.076  1.00  0.00     0.058 A 
HETATM   10 CL   LIG     1      22.804  20.690  17.879  1.00  0.00    -0.082 Cl
ENDROOT
BRANCH   7  11
HETATM   11  C   LIG     1      26.451  24.151  19.172  1.00  0.00    -0.022 A 
HETATM   12  C   LIG     1      26.252  25.435  19.705  1.00  0.00     0.014 A 
HETATM   13  C   LIG     1      27.062  26.499  19.300  1.00  0.00     0.026 A 
HETATM   14  C   LIG     1      28.083  26.294  18.366  1.00  0.00     0.055 A 
HETATM   15  C   LIG     1      28.298  25.010  17.838  1.00  0.00     0.056 A 
HETATM   16 CL   LIG     1      29.081  27.659  17.881  1.00  0.00    -0.083 Cl
HETATM   17 CL   LIG     1      29.578  24.706  16.671  1.00  0.00    -0.083 Cl
HETATM   18  C   LIG     1      27.485  23.945  18.246  1.00  0.00     0.038 A 
ENDBRANCH   7  11
TORSDOF 1
ENDMDL
MODEL 8
REMARK VINA RESULT:      -4.8     14.675     16.390
REMARK  1 active torsions:
REMARK  status: ('A' for Active; 'I' for Inactive)
REMARK    1  A    between atoms: C_7  and  C_11 
ROOT
HETATM    1 CL   LIG     1      24.666  22.213  17.880  1.00  0.00    -0.082 Cl
HETATM    2  C   LIG     1      24.710  22.233  19.646  1.00  0.00     0.068 A 
HETATM    3  C   LIG     1      23.863  21.374  20.374  1.00  0.00     0.080 A 
HETATM    4 CL   LIG     1      22.810  20.241  19.521  1.00  0.00    -0.081 Cl
HETATM    5  C   LIG     1      23.848  21.423  21.780  1.00  0.00     0.079 A 
HETATM    6 CL   LIG     1      22.789  20.349  22.697  1.00  0.00    -0.081 Cl
HETATM    7  C   LIG     1      25.551  23.136  20.332  1.00  0.00    -0.001 A 
HETATM    8  C   LIG     1      25.516  23.182  21.734  1.00  0.00     0.039 A 
HETATM    9  C   LIG     1      24.676  22.333  22.455  1.00  0.00     0.058 A 
HETATM   10 CL   LIG     1      24.685  22.432  24.211  1.00  0.00    -0.082 Cl
ENDROOT
BRANCH   7  11
HETATM   11  C   LIG     1      26.472  24.043  19.611  1.00  0.00    -0.022 A 
HETATM   12  C   LIG     1      26.278  25.433  19.666  1.00  0.00     0.014 A 
HETATM   13  C   LIG     1      27.156  26.293  19.001  1.00  0.00     0.026 A 
HETATM   14  C   LIG     1      28.240  25.778  18.281  1.00  0.00     0.055 A 
HETATM   15  C   LIG     1      28.448  24.389  18.233  1.00  0.00     0.056 A 
HETATM   16 CL   LIG     1      29.322  26.892  17.457  1.00  0.00    -0.083 Cl
HETATM   17 CL   LIG     1      29.804  23.701  17.350  1.00  0.00    -0.083 Cl
HETATM   18  C   LIG     1      27.568  23.529  18.901  1.00  0.00     0.038 A 
ENDBRANCH   7  11
TORSDOF 1
ENDMDL
MODEL 9
REMARK VINA RESULT:      -4.8      5.336     10.288
REMARK  1 active torsions:
REMARK  status: ('A' for Active; 'I' for Inactive)
REMARK    1  A    between atoms: C_7  and  C_11 
ROOT
HETATM    1 CL   LIG     1      11.734  29.566  14.616  1.00  0.00    -0.082 Cl
HETATM    2  C   LIG     1      13.132  28.783  13.871  1.00  0.00     0.068 A 
HETATM    3  C   LIG     1      12.947  27.627  13.087  1.00  0.00     0.080 A 
HETATM    4 CL   LIG     1      11.319  27.004  12.800  1.00  0.00    -0.081 Cl
HETATM    5  C   LIG     1      14.058  26.962  12.537  1.00  0.00     0.079 A 
HETATM    6 CL   LIG     1      13.833  25.514  11.553  1.00  0.00    -0.081 Cl
HETATM    7  C   LIG     1      14.435  29.277  14.097  1.00  0.00    -0.001 A 
HETATM    8  C   LIG     1      15.534  28.596  13.553  1.00  0.00     0.039 A 
HETATM    9  C   LIG     1      15.352  27.451  12.776  1.00  0.00     0.058 A 
HETATM   10 CL   LIG     1      16.770  26.648  12.114  1.00  0.00    -0.082 Cl
ENDROOT
BRANCH   7  11
HETATM   11  C   LIG     1      14.677  30.498  14.897  1.00  0.00    -0.022 A 
HETATM   12  C   LIG     1      13.882  30.772  16.022  1.00  0.00     0.014 A 
HETATM   13  C   LIG     1      14.119  31.915  16.790  1.00  0.00     0.026 A 
HETATM   14  C   LIG     1      15.154  32.793  16.450  1.00  0.00     0.055 A 
HETATM   15  C   LIG     1      15.963  32.518  15.334  1.00  0.00     0.056 A 
HETATM   16 CL   LIG     1      15.420  34.221  17.441  1.00  0.00    -0.083 Cl
HETATM   17 CL   LIG     1      17.282  33.588  14.879  1.00  0.00    -0.083 Cl
HETATM   18  C   LIG     1      15.724  31.371  14.566  1.00  0.00     0.038 A 
ENDBRANCH   7  11
TORSDOF 1
ENDMDL
MODEL 10
REMARK VINA RESULT:      -4.7     15.059     16.264
REMARK  1 active torsions:
REMARK  status: ('A' for Active; 'I' for Inactive)
REMARK    1  A    between atoms: C_7  and  C_11 
ROOT
HETATM    1 CL   LIG     1      26.778  23.573  22.492  1.00  0.00    -0.082 Cl
HETATM    2  C   LIG     1      25.795  23.023  23.853  1.00  0.00     0.068 A 
HETATM    3  C   LIG     1      26.180  23.350  25.168  1.00  0.00     0.080 A 
HETATM    4 CL   LIG     1      27.603  24.359  25.447  1.00  0.00    -0.081 Cl
HETATM    5  C   LIG     1      25.437  22.869  26.262  1.00  0.00     0.079 A 
HETATM    6 CL   LIG     1      25.914  23.277  27.912  1.00  0.00    -0.081 Cl
HETATM    7  C   LIG     1      24.656  22.217  23.636  1.00  0.00    -0.001 A 
HETATM    8  C   LIG     1      23.933  21.734  24.736  1.00  0.00     0.039 A 
HETATM    9  C   LIG     1      24.314  22.057  26.039  1.00  0.00     0.058 A 
HETATM   10 CL   LIG     1      23.360  21.429  27.376  1.00  0.00    -0.082 Cl
ENDROOT
BRANCH   7  11
HETATM   11  C   LIG     1      24.202  21.863  22.272  1.00  0.00    -0.022 A 
HETATM   12  C   LIG     1      23.228  22.644  21.629  1.00  0.00     0.014 A 
HETATM   13  C   LIG     1      22.810  22.323  20.335  1.00  0.00     0.026 A 
HETATM   14  C   LIG     1      23.362  21.226  19.665  1.00  0.00     0.055 A 
HETATM   15  C   LIG     1      24.348  20.448  20.297  1.00  0.00     0.056 A 
HETATM   16 CL   LIG     1      22.810  20.853  18.038  1.00  0.00    -0.083 Cl
HETATM   17 CL   LIG     1      25.078  19.068  19.487  1.00  0.00    -0.083 Cl
HETATM   18  C   LIG     1      24.766  20.772  21.593  1.00  0.00     0.038 A 
ENDBRANCH   7  11
TORSDOF 1
ENDMDL
MODEL 11
REMARK VINA RESULT:      -4.6     14.622     16.972
REMARK  1 active torsions:
REMARK  status: ('A' for Active; 'I' for Inactive)
REMARK    1  A    between atoms: C_7  and  C_11 
ROOT
HETATM    1 CL   LIG     1      27.775  21.773  17.810  1.00  0.00    -0.082 Cl
HETATM    2  C   LIG     1      26.288  21.991  18.740  1.00  0.00     0.068 A 
HETATM    3  C   LIG     1      25.223  21.084  18.574  1.00  0.00     0.080 A 
HETATM    4 CL   LIG     1      25.401  19.701  17.489  1.00  0.00    -0.081 Cl
HETATM    5  C   LIG     1      24.013  21.280  19.266  1.00  0.00     0.079 A 
HETATM    6 CL   LIG     1      22.676  20.146  19.062  1.00  0.00    -0.081 Cl
HETATM    7  C   LIG     1      26.141  23.094  19.609  1.00  0.00    -0.001 A 
HETATM    8  C   LIG     1      24.925  23.284  20.282  1.00  0.00     0.039 A 
HETATM    9  C   LIG     1      23.869  22.387  20.118  1.00  0.00     0.058 A 
HETATM   10 CL   LIG     1      22.373  22.674  20.997  1.00  0.00    -0.082 Cl
ENDROOT
BRANCH   7  11
HETATM   11  C   LIG     1      27.238  24.062  19.831  1.00  0.00    -0.022 A 
HETATM   12  C   LIG     1      28.213  23.810  20.808  1.00  0.00     0.014 A 
HETATM   13  C   LIG     1      29.261  24.713  21.008  1.00  0.00     0.026 A 
HETATM   14  C   LIG     1      29.351  25.874  20.231  1.00  0.00     0.055 A 
HETATM   15  C   LIG     1      28.386  26.126  19.241  1.00  0.00     0.056 A 
HETATM   16 CL   LIG     1      30.682  26.987  20.513  1.00  0.00    -0.083 Cl
HETATM   17 CL   LIG     1      28.468  27.566  18.234  1.00  0.00    -0.083 Cl
HETATM   18  C   LIG     1      27.338  25.219  19.042  1.00  0.00     0.038 A 
ENDBRANCH   7  11
TORSDOF 1
ENDMDL
MODEL 12
REMARK VINA RESULT:      -4.6     14.895     16.215
REMARK  1 active torsions:
REMARK  status: ('A' for Active; 'I' for Inactive)
REMARK    1  A    between atoms: C_7  and  C_11 
ROOT
HETATM    1 CL   LIG     1      23.949  22.438  19.642  1.00  0.00    -0.082 Cl
HETATM    2  C   LIG     1      24.813  22.570  21.178  1.00  0.00     0.068 A 
HETATM    3  C   LIG     1      24.212  22.092  22.359  1.00  0.00     0.080 A 
HETATM    4 CL   LIG     1      22.631  21.307  22.290  1.00  0.00    -0.081 Cl
HETATM    5  C   LIG     1      24.866  22.244  23.596  1.00  0.00     0.079 A 
HETATM    6 CL   LIG     1      24.118  21.645  25.078  1.00  0.00    -0.081 Cl
HETATM    7  C   LIG     1      26.078  23.196  21.238  1.00  0.00    -0.001 A 
HETATM    8  C   LIG     1      26.712  23.352  22.479  1.00  0.00     0.039 A 
HETATM    9  C   LIG     1      26.117  22.879  23.650  1.00  0.00     0.058 A 
HETATM   10 CL   LIG     1      26.967  23.096  25.174  1.00  0.00    -0.082 Cl
ENDROOT
BRANCH   7  11
HETATM   11  C   LIG     1      26.757  23.696  20.022  1.00  0.00    -0.022 A 
HETATM   12  C   LIG     1      27.080  22.812  18.981  1.00  0.00     0.014 A 
HETATM   13  C   LIG     1      27.706  23.284  17.824  1.00  0.00     0.026 A 
HETATM   14  C   LIG     1      28.009  24.643  17.689  1.00  0.00     0.055 A 
HETATM   15  C   LIG     1      27.676  25.538  18.721  1.00  0.00     0.056 A 
HETATM   16 CL   LIG     1      28.797  25.199  16.219  1.00  0.00    -0.083 Cl
HETATM   17 CL   LIG     1      28.027  27.255  18.588  1.00  0.00    -0.083 Cl
HETATM   18  C   LIG     1      27.048  25.062  19.879  1.00  0.00     0.038 A 
ENDBRANCH   7  11
TORSDOF 1
ENDMDL
MODEL 13
REMARK VINA RESULT:      -4.5     15.349     17.183
REMARK  1 active torsions:
REMARK  status: ('A' for Active; 'I' for Inactive)
REMARK    1  A    between atoms: C_7  and  C_11 
ROOT
HETATM    1 CL   LIG     1      22.422  22.633  21.335  1.00  0.00    -0.082 Cl
HETATM    2  C   LIG     1      23.860  21.771  20.777  1.00  0.00     0.068 A 
HETATM    3  C   LIG     1      24.014  21.488  19.406  1.00  0.00     0.080 A 
HETATM    4 CL   LIG     1      22.805  22.048  18.247  1.00  0.00    -0.081 Cl
HETATM    5  C   LIG     1      25.127  20.752  18.958  1.00  0.00     0.079 A 
HETATM    6 CL   LIG     1      25.325  20.394  17.241  1.00  0.00    -0.081 Cl
HETATM    7  C   LIG     1      24.829  21.322  21.701  1.00  0.00    -0.001 A 
HETATM    8  C   LIG     1      25.926  20.578  21.241  1.00  0.00     0.039 A 
HETATM    9  C   LIG     1      26.079  20.296  19.883  1.00  0.00     0.058 A 
HETATM   10 CL   LIG     1      27.481  19.367  19.368  1.00  0.00    -0.082 Cl
ENDROOT
BRANCH   7  11
HETATM   11  C   LIG     1      24.720  21.612  23.147  1.00  0.00    -0.022 A 
HETATM   12  C   LIG     1      23.977  20.763  23.982  1.00  0.00     0.014 A 
HETATM   13  C   LIG     1      23.887  21.024  25.352  1.00  0.00     0.026 A 
HETATM   14  C   LIG     1      24.541  22.131  25.905  1.00  0.00     0.055 A 
HETATM   15  C   LIG     1      25.298  22.978  25.078  1.00  0.00     0.056 A 
HETATM   16 CL   LIG     1      24.402  22.427  27.633  1.00  0.00    -0.083 Cl
HETATM   17 CL   LIG     1      26.145  24.372  25.734  1.00  0.00    -0.083 Cl
HETATM   18  C   LIG     1      25.388  22.713  23.706  1.00  0.00     0.038 A 
ENDBRANCH   7  11
TORSDOF 1
ENDMDL
MODEL 14
REMARK VINA RESULT:      -4.5     14.960     17.146
REMARK  1 active torsions:
REMARK  status: ('A' for Active; 'I' for Inactive)
REMARK    1  A    between atoms: C_7  and  C_11 
ROOT
HETATM    1 CL   LIG     1      28.139  22.262  22.904  1.00  0.00    -0.082 Cl
HETATM    2  C   LIG     1      26.434  22.358  22.452  1.00  0.00     0.068 A 
HETATM    3  C   LIG     1      26.047  22.071  21.128  1.00  0.00     0.080 A 
HETATM    4 CL   LIG     1      27.254  21.556  19.946  1.00  0.00    -0.081 Cl
HETATM    5  C   LIG     1      24.699  22.200  20.743  1.00  0.00     0.079 A 
HETATM    6 CL   LIG     1      24.208  21.841  19.086  1.00  0.00    -0.081 Cl
HETATM    7  C   LIG     1      25.465  22.769  23.394  1.00  0.00    -0.001 A 
HETATM    8  C   LIG     1      24.128  22.906  22.992  1.00  0.00     0.039 A 
HETATM    9  C   LIG     1      23.743  22.622  21.681  1.00  0.00     0.058 A 
HETATM   10 CL   LIG     1      22.050  22.804  21.241  1.00  0.00    -0.082 Cl
ENDROOT
BRANCH   7  11
HETATM   11  C   LIG     1      25.821  23.063  24.799  1.00  0.00    -0.022 A 
HETATM   12  C   LIG     1      26.535  24.229  25.116  1.00  0.00     0.014 A 
HETATM   13  C   LIG     1      26.858  24.518  26.445  1.00  0.00     0.026 A 
HETATM   14  C   LIG     1      26.466  23.652  27.472  1.00  0.00     0.055 A 
HETATM   15  C   LIG     1      25.739  22.490  27.164  1.00  0.00     0.056 A 
HETATM   16 CL   LIG     1      26.892  24.050  29.131  1.00  0.00    -0.083 Cl
HETATM   17 CL   LIG     1      25.217  21.380  28.425  1.00  0.00    -0.083 Cl
HETATM   18  C   LIG     1      25.416  22.203  25.832  1.00  0.00     0.038 A 
ENDBRANCH   7  11
TORSDOF 1
ENDMDL
MODEL 15
REMARK VINA RESULT:      -4.4     15.013     17.151
REMARK  1 active torsions:
REMARK  status: ('A' for Active; 'I' for Inactive)
REMARK    1  A    between atoms: C_7  and  C_11 
ROOT
HETATM    1 CL   LIG     1      28.205  22.646  22.849  1.00  0.00    -0.082 Cl
HETATM    2  C   LIG     1      26.511  22.621  22.347  1.00  0.00     0.068 A 
HETATM    3  C   LIG     1      26.191  22.645  20.975  1.00  0.00     0.080 A 
HETATM    4 CL   LIG     1      27.478  22.636  19.767  1.00  0.00    -0.081 Cl
HETATM    5  C   LIG     1      24.845  22.684  20.565  1.00  0.00     0.079 A 
HETATM    6 CL   LIG     1      24.438  22.714  18.848  1.00  0.00    -0.081 Cl
HETATM    7  C   LIG     1      25.478  22.628  23.309  1.00  0.00    -0.001 A 
HETATM    8  C   LIG     1      24.142  22.680  22.886  1.00  0.00     0.039 A 
HETATM    9  C   LIG     1      23.823  22.704  21.528  1.00  0.00     0.058 A 
HETATM   10 CL   LIG     1      22.128  22.759  21.060  1.00  0.00    -0.082 Cl
ENDROOT
BRANCH   7  11
HETATM   11  C   LIG     1      25.766  22.583  24.760  1.00  0.00    -0.022 A 
HETATM   12  C   LIG     1      25.907  21.348  25.413  1.00  0.00     0.014 A 
HETATM   13  C   LIG     1      26.196  21.303  26.780  1.00  0.00     0.026 A 
HETATM   14  C   LIG     1      26.354  22.487  27.508  1.00  0.00     0.055 A 
HETATM   15  C   LIG     1      26.228  23.727  26.859  1.00  0.00     0.056 A 
HETATM   16 CL   LIG     1      26.717  22.388  29.226  1.00  0.00    -0.083 Cl
HETATM   17 CL   LIG     1      26.432  25.239  27.734  1.00  0.00    -0.083 Cl
HETATM   18  C   LIG     1      25.940  23.770  25.489  1.00  0.00     0.038 A 
ENDBRANCH   7  11
TORSDOF 1
ENDMDL
MODEL 16
REMARK VINA RESULT:      -4.4     14.972     16.238
REMARK  1 active torsions:
REMARK  status: ('A' for Active; 'I' for Inactive)
REMARK    1  A    between atoms: C_7  and  C_11 
ROOT
HETATM    1 CL   LIG     1      27.785  24.139  22.178  1.00  0.00    -0.082 Cl
HETATM    2  C   LIG     1      27.294  24.087  23.875  1.00  0.00     0.068 A 
HETATM    3  C   LIG     1      27.990  24.858  24.826  1.00  0.00     0.080 A 
HETATM    4 CL   LIG     1      29.305  25.920  24.312  1.00  0.00    -0.081 Cl
HETATM    5  C   LIG     1      27.645  24.780  26.188  1.00  0.00     0.079 A 
HETATM    6 CL   LIG     1      28.513  25.745  27.384  1.00  0.00    -0.081 Cl
HETATM    7  C   LIG     1      26.243  23.240  24.291  1.00  0.00    -0.001 A 
HETATM    8  C   LIG     1      25.919  23.163  25.653  1.00  0.00     0.039 A 
HETATM    9  C   LIG     1      26.608  23.926  26.596  1.00  0.00     0.058 A 
HETATM   10 CL   LIG     1      26.148  23.792  28.289  1.00  0.00    -0.082 Cl
ENDROOT
BRANCH   7  11
HETATM   11  C   LIG     1      25.471  22.426  23.326  1.00  0.00    -0.022 A 
HETATM   12  C   LIG     1      25.917  21.143  22.971  1.00  0.00     0.014 A 
HETATM   13  C   LIG     1      25.181  20.365  22.074  1.00  0.00     0.026 A 
HETATM   14  C   LIG     1      23.990  20.854  21.526  1.00  0.00     0.055 A 
HETATM   15  C   LIG     1      23.530  22.132  21.887  1.00  0.00     0.056 A 
HETATM   16 CL   LIG     1      23.092  19.845  20.400  1.00  0.00    -0.083 Cl
HETATM   17 CL   LIG     1      22.032  22.780  21.232  1.00  0.00    -0.083 Cl
HETATM   18  C   LIG     1      24.268  22.909  22.787  1.00  0.00     0.038 A 
ENDBRANCH   7  11
TORSDOF 1
ENDMDL
MODEL 17
REMARK VINA RESULT:      -4.3     15.300     16.911
REMARK  1 active torsions:
REMARK  status: ('A' for Active; 'I' for Inactive)
REMARK    1  A    between atoms: C_7  and  C_11 
ROOT
HETATM    1 CL   LIG     1      22.877  21.246  22.683  1.00  0.00    -0.082 Cl
HETATM    2  C   LIG     1      24.244  22.114  21.975  1.00  0.00     0.068 A 
HETATM    3  C   LIG     1      24.239  22.418  20.600  1.00  0.00     0.080 A 
HETATM    4 CL   LIG     1      22.844  21.990  19.605  1.00  0.00    -0.081 Cl
HETATM    5  C   LIG     1      25.348  23.057  20.015  1.00  0.00     0.079 A 
HETATM    6 CL   LIG     1      25.347  23.442  18.292  1.00  0.00    -0.081 Cl
HETATM    7  C   LIG     1      25.361  22.459  22.767  1.00  0.00    -0.001 A 
HETATM    8  C   LIG     1      26.465  23.083  22.167  1.00  0.00     0.039 A 
HETATM    9  C   LIG     1      26.461  23.385  20.804  1.00  0.00     0.058 A 
HETATM   10 CL   LIG     1      27.871  24.178  20.113  1.00  0.00    -0.082 Cl
ENDROOT
BRANCH   7  11
HETATM   11  C   LIG     1      25.404  22.177  24.219  1.00  0.00    -0.022 A 
HETATM   12  C   LIG     1      24.972  23.146  25.138  1.00  0.00     0.014 A 
HETATM   13  C   LIG     1      24.994  22.877  26.509  1.00  0.00     0.026 A 
HETATM   14  C   LIG     1      25.439  21.636  26.978  1.00  0.00     0.055 A 
HETATM   15  C   LIG     1      25.860  20.655  26.064  1.00  0.00     0.056 A 
HETATM   16 CL   LIG     1      25.453  21.335  28.710  1.00  0.00    -0.083 Cl
HETATM   17 CL   LIG     1      26.415  19.078  26.610  1.00  0.00    -0.083 Cl
HETATM   18  C   LIG     1      25.835  20.927  24.690  1.00  0.00     0.038 A 
ENDBRANCH   7  11
TORSDOF 1
ENDMDL
