REMARK  1 active torsions:
REMARK  status: ('A' for Active; 'I' for Inactive)
REMARK    1  A    between atoms: C_7  and  C_10 
ROOT
HETATM    1 CL   LIG     1      -3.983  -2.367   0.205  1.00  0.00    -0.083 Cl
HETATM    2  C   LIG     1      -2.937  -0.971  -0.024  1.00  0.00     0.056 A 
HETATM    3  C   LIG     1      -3.520   0.260  -0.335  1.00  0.00     0.027 A 
HETATM    4  C   LIG     1      -2.723   1.389  -0.523  1.00  0.00     0.026 A 
HETATM    5  C   LIG     1      -1.334   1.300  -0.403  1.00  0.00     0.047 A 
HETATM    6 CL   LIG     1      -0.371   2.754  -0.650  1.00  0.00    -0.083 Cl
HETATM    7  C   LIG     1      -0.732   0.065  -0.090  1.00  0.00     0.023 A 
HETATM    8  C   LIG     1      -1.540  -1.077   0.101  1.00  0.00     0.068 A 
HETATM    9 CL   LIG     1      -0.805  -2.633   0.494  1.00  0.00    -0.082 Cl
ENDROOT
BRANCH   7  10
HETATM   10  C   LIG     1       0.739  -0.032   0.038  1.00  0.00     0.023 A 
HETATM   11  C   LIG     1       1.527  -0.337  -1.090  1.00  0.00     0.047 A 
HETATM   12  C   LIG     1       2.916  -0.427  -0.967  1.00  0.00     0.026 A 
HETATM   13 CL   LIG     1       0.800  -0.611  -2.670  1.00  0.00    -0.083 Cl
HETATM   14  C   LIG     1       3.529  -0.217   0.268  1.00  0.00     0.027 A 
HETATM   15  C   LIG     1       2.760   0.086   1.395  1.00  0.00     0.056 A 
HETATM   16 CL   LIG     1       3.578   0.343   2.931  1.00  0.00    -0.083 Cl
HETATM   17  C   LIG     1       1.361   0.181   1.287  1.00  0.00     0.068 A 
HETATM   18 CL   LIG     1       0.391   0.564   2.712  1.00  0.00    -0.082 Cl
ENDBRANCH   7  10
TORSDOF 1
