MODEL 1
REMARK VINA RESULT:      -4.6      0.000      0.000
REMARK  1 active torsions:
REMARK  status: ('A' for Active; 'I' for Inactive)
REMARK    1  A    between atoms: C_7  and  C_10 
ROOT
HETATM    1 CL   LIG     1      24.727  22.826  24.217  1.00  0.00    -0.083 Cl
HETATM    2  C   LIG     1      24.420  22.612  22.498  1.00  0.00     0.056 A 
HETATM    3  C   LIG     1      23.100  22.457  22.067  1.00  0.00     0.027 A 
HETATM    4  C   LIG     1      22.818  22.287  20.711  1.00  0.00     0.026 A 
HETATM    5  C   LIG     1      23.851  22.268  19.772  1.00  0.00     0.047 A 
HETATM    6 CL   LIG     1      23.443  22.049  18.073  1.00  0.00    -0.083 Cl
HETATM    7  C   LIG     1      25.187  22.423  20.192  1.00  0.00     0.023 A 
HETATM    8  C   LIG     1      25.472  22.596  21.564  1.00  0.00     0.068 A 
HETATM    9 CL   LIG     1      27.139  22.792  22.111  1.00  0.00    -0.082 Cl
ENDROOT
BRANCH   7  10
HETATM   10  C   LIG     1      26.284  22.404  19.199  1.00  0.00     0.023 A 
HETATM   11  C   LIG     1      26.873  21.180  18.822  1.00  0.00     0.047 A 
HETATM   12  C   LIG     1      27.908  21.164  17.883  1.00  0.00     0.026 A 
HETATM   13 CL   LIG     1      26.333  19.651  19.509  1.00  0.00    -0.083 Cl
HETATM   14  C   LIG     1      28.364  22.354  17.317  1.00  0.00     0.027 A 
HETATM   15  C   LIG     1      27.789  23.575  17.682  1.00  0.00     0.056 A 
HETATM   16 CL   LIG     1      28.397  25.050  16.940  1.00  0.00    -0.083 Cl
HETATM   17  C   LIG     1      26.746  23.607  18.625  1.00  0.00     0.068 A 
HETATM   18 CL   LIG     1      26.022  25.150  19.085  1.00  0.00    -0.082 Cl
ENDBRANCH   7  10
TORSDOF 1
ENDMDL
MODEL 2
REMARK VINA RESULT:      -4.6      3.059      4.407
REMARK  1 active torsions:
REMARK  status: ('A' for Active; 'I' for Inactive)
REMARK    1  A    between atoms: C_7  and  C_10 
ROOT
HETATM    1 CL   LIG     1      26.622  24.020  24.844  1.00  0.00    -0.083 Cl
HETATM    2  C   LIG     1      25.455  22.807  24.331  1.00  0.00     0.056 A 
HETATM    3  C   LIG     1      24.744  22.105  25.307  1.00  0.00     0.027 A 
HETATM    4  C   LIG     1      23.811  21.136  24.939  1.00  0.00     0.026 A 
HETATM    5  C   LIG     1      23.579  20.857  23.590  1.00  0.00     0.047 A 
HETATM    6 CL   LIG     1      22.390  19.625  23.176  1.00  0.00    -0.083 Cl
HETATM    7  C   LIG     1      24.289  21.557  22.594  1.00  0.00     0.023 A 
HETATM    8  C   LIG     1      25.233  22.538  22.968  1.00  0.00     0.068 A 
HETATM    9 CL   LIG     1      26.132  23.425  21.736  1.00  0.00    -0.082 Cl
ENDROOT
BRANCH   7  10
HETATM   10  C   LIG     1      24.045  21.264  21.164  1.00  0.00     0.023 A 
HETATM   11  C   LIG     1      23.020  21.939  20.470  1.00  0.00     0.047 A 
HETATM   12  C   LIG     1      22.792  21.661  19.120  1.00  0.00     0.026 A 
HETATM   13 CL   LIG     1      22.008  23.138  21.268  1.00  0.00    -0.083 Cl
HETATM   14  C   LIG     1      23.573  20.717  18.453  1.00  0.00     0.027 A 
HETATM   15  C   LIG     1      24.592  20.040  19.129  1.00  0.00     0.056 A 
HETATM   16 CL   LIG     1      25.551  18.859  18.245  1.00  0.00    -0.083 Cl
HETATM   17  C   LIG     1      24.835  20.309  20.488  1.00  0.00     0.068 A 
HETATM   18 CL   LIG     1      26.123  19.453  21.340  1.00  0.00    -0.082 Cl
ENDBRANCH   7  10
TORSDOF 1
ENDMDL
MODEL 3
REMARK VINA RESULT:      -4.6      3.067      5.291
REMARK  1 active torsions:
REMARK  status: ('A' for Active; 'I' for Inactive)
REMARK    1  A    between atoms: C_7  and  C_10 
ROOT
HETATM    1 CL   LIG     1      25.542  18.878  18.227  1.00  0.00    -0.083 Cl
HETATM    2  C   LIG     1      24.586  20.056  19.118  1.00  0.00     0.056 A 
HETATM    3  C   LIG     1      23.581  20.753  18.442  1.00  0.00     0.027 A 
HETATM    4  C   LIG     1      22.802  21.694  19.115  1.00  0.00     0.026 A 
HETATM    5  C   LIG     1      23.019  21.949  20.471  1.00  0.00     0.047 A 
HETATM    6 CL   LIG     1      22.009  23.147  21.276  1.00  0.00    -0.083 Cl
HETATM    7  C   LIG     1      24.029  21.253  21.166  1.00  0.00     0.023 A 
HETATM    8  C   LIG     1      24.816  20.300  20.484  1.00  0.00     0.068 A 
HETATM    9 CL   LIG     1      26.086  19.419  21.336  1.00  0.00    -0.082 Cl
ENDROOT
BRANCH   7  10
HETATM   10  C   LIG     1      24.261  21.522  22.603  1.00  0.00     0.023 A 
HETATM   11  C   LIG     1      23.548  20.798  23.580  1.00  0.00     0.047 A 
HETATM   12  C   LIG     1      23.769  21.052  24.936  1.00  0.00     0.026 A 
HETATM   13 CL   LIG     1      22.371  19.566  23.132  1.00  0.00    -0.083 Cl
HETATM   14  C   LIG     1      24.692  22.020  25.330  1.00  0.00     0.027 A 
HETATM   15  C   LIG     1      25.406  22.745  24.372  1.00  0.00     0.056 A 
HETATM   16 CL   LIG     1      26.560  23.956  24.917  1.00  0.00    -0.083 Cl
HETATM   17  C   LIG     1      25.195  22.500  23.003  1.00  0.00     0.068 A 
HETATM   18 CL   LIG     1      26.098  23.418  21.794  1.00  0.00    -0.082 Cl
ENDBRANCH   7  10
TORSDOF 1
ENDMDL
MODEL 4
REMARK VINA RESULT:      -4.5      0.248      5.247
REMARK  1 active torsions:
REMARK  status: ('A' for Active; 'I' for Inactive)
REMARK    1  A    between atoms: C_7  and  C_10 
ROOT
HETATM    1 CL   LIG     1      28.436  25.430  17.157  1.00  0.00    -0.083 Cl
HETATM    2  C   LIG     1      27.864  23.899  17.808  1.00  0.00     0.056 A 
HETATM    3  C   LIG     1      28.473  22.718  17.378  1.00  0.00     0.027 A 
HETATM    4  C   LIG     1      28.047  21.485  17.872  1.00  0.00     0.026 A 
HETATM    5  C   LIG     1      27.006  21.420  18.802  1.00  0.00     0.047 A 
HETATM    6 CL   LIG     1      26.504  19.840  19.396  1.00  0.00    -0.083 Cl
HETATM    7  C   LIG     1      26.382  22.603  19.244  1.00  0.00     0.023 A 
HETATM    8  C   LIG     1      26.815  23.850  18.744  1.00  0.00     0.068 A 
HETATM    9 CL   LIG     1      26.046  25.344  19.286  1.00  0.00    -0.082 Cl
ENDROOT
BRANCH   7  10
HETATM   10  C   LIG     1      25.279  22.537  20.229  1.00  0.00     0.023 A 
HETATM   11  C   LIG     1      23.959  22.306  19.795  1.00  0.00     0.047 A 
HETATM   12  C   LIG     1      22.919  22.242  20.727  1.00  0.00     0.026 A 
HETATM   13 CL   LIG     1      23.578  22.091  18.090  1.00  0.00    -0.083 Cl
HETATM   14  C   LIG     1      23.181  22.408  22.087  1.00  0.00     0.027 A 
HETATM   15  C   LIG     1      24.486  22.638  22.531  1.00  0.00     0.056 A 
HETATM   16 CL   LIG     1      24.767  22.839  24.256  1.00  0.00    -0.083 Cl
HETATM   17  C   LIG     1      25.543  22.703  21.606  1.00  0.00     0.068 A 
HETATM   18 CL   LIG     1      27.191  22.994  22.169  1.00  0.00    -0.082 Cl
ENDBRANCH   7  10
TORSDOF 1
ENDMDL
MODEL 5
REMARK VINA RESULT:      -4.5      3.042      5.874
REMARK  1 active torsions:
REMARK  status: ('A' for Active; 'I' for Inactive)
REMARK    1  A    between atoms: C_7  and  C_10 
ROOT
HETATM    1 CL   LIG     1      25.624  18.972  18.206  1.00  0.00    -0.083 Cl
HETATM    2  C   LIG     1      24.636  20.123  19.098  1.00  0.00     0.056 A 
HETATM    3  C   LIG     1      23.598  20.776  18.429  1.00  0.00     0.027 A 
HETATM    4  C   LIG     1      22.793  21.694  19.103  1.00  0.00     0.026 A 
HETATM    5  C   LIG     1      23.018  21.971  20.454  1.00  0.00     0.047 A 
HETATM    6 CL   LIG     1      21.975  23.139  21.261  1.00  0.00    -0.083 Cl
HETATM    7  C   LIG     1      24.062  21.320  21.142  1.00  0.00     0.023 A 
HETATM    8  C   LIG     1      24.875  20.390  20.458  1.00  0.00     0.068 A 
HETATM    9 CL   LIG     1      26.187  19.565  21.302  1.00  0.00    -0.082 Cl
ENDROOT
BRANCH   7  10
HETATM   10  C   LIG     1      24.302  21.612  22.572  1.00  0.00     0.023 A 
HETATM   11  C   LIG     1      25.252  22.583  22.945  1.00  0.00     0.047 A 
HETATM   12  C   LIG     1      25.477  22.857  24.297  1.00  0.00     0.026 A 
HETATM   13 CL   LIG     1      26.176  23.473  21.739  1.00  0.00    -0.083 Cl
HETATM   14  C   LIG     1      24.765  22.173  25.282  1.00  0.00     0.027 A 
HETATM   15  C   LIG     1      23.820  21.207  24.927  1.00  0.00     0.056 A 
HETATM   16 CL   LIG     1      22.946  20.371  26.205  1.00  0.00    -0.083 Cl
HETATM   17  C   LIG     1      23.582  20.921  23.571  1.00  0.00     0.068 A 
HETATM   18 CL   LIG     1      22.387  19.700  23.124  1.00  0.00    -0.082 Cl
ENDBRANCH   7  10
TORSDOF 1
ENDMDL
MODEL 6
REMARK VINA RESULT:      -4.5      0.969      5.261
REMARK  1 active torsions:
REMARK  status: ('A' for Active; 'I' for Inactive)
REMARK    1  A    between atoms: C_7  and  C_10 
ROOT
HETATM    1 CL   LIG     1      29.061  20.456  17.187  1.00  0.00    -0.083 Cl
HETATM    2  C   LIG     1      28.130  21.837  17.755  1.00  0.00     0.056 A 
HETATM    3  C   LIG     1      28.415  23.099  17.229  1.00  0.00     0.027 A 
HETATM    4  C   LIG     1      27.697  24.217  17.654  1.00  0.00     0.026 A 
HETATM    5  C   LIG     1      26.687  24.086  18.610  1.00  0.00     0.047 A 
HETATM    6 CL   LIG     1      25.810  25.527  19.114  1.00  0.00    -0.083 Cl
HETATM    7  C   LIG     1      26.389  22.818  19.149  1.00  0.00     0.023 A 
HETATM    8  C   LIG     1      27.115  21.687  18.718  1.00  0.00     0.068 A 
HETATM    9 CL   LIG     1      26.757  20.091  19.381  1.00  0.00    -0.082 Cl
ENDROOT
BRANCH   7  10
HETATM   10  C   LIG     1      25.319  22.676  20.162  1.00  0.00     0.023 A 
HETATM   11  C   LIG     1      24.005  22.363  19.761  1.00  0.00     0.047 A 
HETATM   12  C   LIG     1      22.997  22.228  20.719  1.00  0.00     0.026 A 
HETATM   13 CL   LIG     1      23.593  22.134  18.065  1.00  0.00    -0.083 Cl
HETATM   14  C   LIG     1      23.284  22.402  22.073  1.00  0.00     0.027 A 
HETATM   15  C   LIG     1      24.582  22.713  22.485  1.00  0.00     0.056 A 
HETATM   16 CL   LIG     1      24.896  22.923  24.203  1.00  0.00    -0.083 Cl
HETATM   17  C   LIG     1      25.608  22.852  21.533  1.00  0.00     0.068 A 
HETATM   18 CL   LIG     1      27.248  23.245  22.055  1.00  0.00    -0.082 Cl
ENDBRANCH   7  10
TORSDOF 1
ENDMDL
MODEL 7
REMARK VINA RESULT:      -4.5      2.087      3.634
REMARK  1 active torsions:
REMARK  status: ('A' for Active; 'I' for Inactive)
REMARK    1  A    between atoms: C_7  and  C_10 
ROOT
HETATM    1 CL   LIG     1      24.823  19.394  16.916  1.00  0.00    -0.083 Cl
HETATM    2  C   LIG     1      24.459  20.541  18.199  1.00  0.00     0.056 A 
HETATM    3  C   LIG     1      23.171  20.557  18.739  1.00  0.00     0.027 A 
HETATM    4  C   LIG     1      22.845  21.452  19.758  1.00  0.00     0.026 A 
HETATM    5  C   LIG     1      23.804  22.341  20.249  1.00  0.00     0.047 A 
HETATM    6 CL   LIG     1      23.344  23.452  21.537  1.00  0.00    -0.083 Cl
HETATM    7  C   LIG     1      25.108  22.337  19.714  1.00  0.00     0.023 A 
HETATM    8  C   LIG     1      25.436  21.430  18.683  1.00  0.00     0.068 A 
HETATM    9 CL   LIG     1      27.064  21.408  18.000  1.00  0.00    -0.082 Cl
ENDROOT
BRANCH   7  10
HETATM   10  C   LIG     1      26.126  23.277  20.233  1.00  0.00     0.023 A 
HETATM   11  C   LIG     1      26.788  23.003  21.446  1.00  0.00     0.047 A 
HETATM   12  C   LIG     1      27.749  23.892  21.933  1.00  0.00     0.026 A 
HETATM   13 CL   LIG     1      26.432  21.551  22.377  1.00  0.00    -0.083 Cl
HETATM   14  C   LIG     1      28.058  25.053  21.224  1.00  0.00     0.027 A 
HETATM   15  C   LIG     1      27.410  25.338  20.020  1.00  0.00     0.056 A 
HETATM   16 CL   LIG     1      27.833  26.814  19.162  1.00  0.00    -0.083 Cl
HETATM   17  C   LIG     1      26.440  24.452  19.516  1.00  0.00     0.068 A 
HETATM   18 CL   LIG     1      25.621  24.814  17.994  1.00  0.00    -0.082 Cl
ENDBRANCH   7  10
TORSDOF 1
ENDMDL
MODEL 8
REMARK VINA RESULT:      -4.5      2.069      3.117
REMARK  1 active torsions:
REMARK  status: ('A' for Active; 'I' for Inactive)
REMARK    1  A    between atoms: C_7  and  C_10 
ROOT
HETATM    1 CL   LIG     1      25.287  17.933  22.637  1.00  0.00    -0.083 Cl
HETATM    2  C   LIG     1      24.535  19.483  22.282  1.00  0.00     0.056 A 
HETATM    3  C   LIG     1      23.265  19.748  22.800  1.00  0.00     0.027 A 
HETATM    4  C   LIG     1      22.638  20.966  22.540  1.00  0.00     0.026 A 
HETATM    5  C   LIG     1      23.274  21.934  21.759  1.00  0.00     0.047 A 
HETATM    6 CL   LIG     1      22.441  23.457  21.459  1.00  0.00    -0.083 Cl
HETATM    7  C   LIG     1      24.555  21.682  21.229  1.00  0.00     0.023 A 
HETATM    8  C   LIG     1      25.189  20.448  21.494  1.00  0.00     0.068 A 
HETATM    9 CL   LIG     1      26.794  20.113  20.840  1.00  0.00    -0.082 Cl
ENDROOT
BRANCH   7  10
HETATM   10  C   LIG     1      25.231  22.706  20.402  1.00  0.00     0.023 A 
HETATM   11  C   LIG     1      24.953  22.794  19.023  1.00  0.00     0.047 A 
HETATM   12  C   LIG     1      25.592  23.762  18.244  1.00  0.00     0.026 A 
HETATM   13 CL   LIG     1      23.810  21.704  18.245  1.00  0.00    -0.083 Cl
HETATM   14  C   LIG     1      26.504  24.644  18.823  1.00  0.00     0.027 A 
HETATM   15  C   LIG     1      26.789  24.567  20.189  1.00  0.00     0.056 A 
HETATM   16 CL   LIG     1      27.947  25.701  20.875  1.00  0.00    -0.083 Cl
HETATM   17  C   LIG     1      26.154  23.599  20.987  1.00  0.00     0.068 A 
HETATM   18 CL   LIG     1      26.515  23.504  22.713  1.00  0.00    -0.082 Cl
ENDBRANCH   7  10
TORSDOF 1
ENDMDL
MODEL 9
REMARK VINA RESULT:      -4.4      0.872      2.467
REMARK  1 active torsions:
REMARK  status: ('A' for Active; 'I' for Inactive)
REMARK    1  A    between atoms: C_7  and  C_10 
ROOT
HETATM    1 CL   LIG     1      24.778  22.806  24.202  1.00  0.00    -0.083 Cl
HETATM    2  C   LIG     1      24.474  22.622  22.479  1.00  0.00     0.056 A 
HETATM    3  C   LIG     1      23.168  22.372  22.052  1.00  0.00     0.027 A 
HETATM    4  C   LIG     1      22.888  22.221  20.693  1.00  0.00     0.026 A 
HETATM    5  C   LIG     1      23.912  22.319  19.748  1.00  0.00     0.047 A 
HETATM    6 CL   LIG     1      23.508  22.121  18.044  1.00  0.00    -0.083 Cl
HETATM    7  C   LIG     1      25.234  22.571  20.164  1.00  0.00     0.023 A 
HETATM    8  C   LIG     1      25.515  22.724  21.539  1.00  0.00     0.068 A 
HETATM    9 CL   LIG     1      27.165  23.040  22.081  1.00  0.00    -0.082 Cl
ENDROOT
BRANCH   7  10
HETATM   10  C   LIG     1      26.320  22.675  19.164  1.00  0.00     0.023 A 
HETATM   11  C   LIG     1      26.700  23.936  18.663  1.00  0.00     0.047 A 
HETATM   12  C   LIG     1      27.726  24.032  17.720  1.00  0.00     0.026 A 
HETATM   13 CL   LIG     1      25.906  25.413  19.201  1.00  0.00    -0.083 Cl
HETATM   14  C   LIG     1      28.378  22.885  17.269  1.00  0.00     0.027 A 
HETATM   15  C   LIG     1      28.012  21.627  17.757  1.00  0.00     0.056 A 
HETATM   16 CL   LIG     1      28.863  20.209  17.159  1.00  0.00    -0.083 Cl
HETATM   17  C   LIG     1      26.981  21.514  18.708  1.00  0.00     0.068 A 
HETATM   18 CL   LIG     1      26.520  19.925  19.323  1.00  0.00    -0.082 Cl
ENDBRANCH   7  10
TORSDOF 1
ENDMDL
MODEL 10
REMARK VINA RESULT:      -4.4      2.140      4.044
REMARK  1 active torsions:
REMARK  status: ('A' for Active; 'I' for Inactive)
REMARK    1  A    between atoms: C_7  and  C_10 
ROOT
HETATM    1 CL   LIG     1      28.661  22.791  23.766  1.00  0.00    -0.083 Cl
HETATM    2  C   LIG     1      27.867  23.413  22.324  1.00  0.00     0.056 A 
HETATM    3  C   LIG     1      28.185  24.701  21.886  1.00  0.00     0.027 A 
HETATM    4  C   LIG     1      27.576  25.227  20.747  1.00  0.00     0.026 A 
HETATM    5  C   LIG     1      26.641  24.473  20.034  1.00  0.00     0.047 A 
HETATM    6 CL   LIG     1      25.899  25.182  18.603  1.00  0.00    -0.083 Cl
HETATM    7  C   LIG     1      26.310  23.172  20.465  1.00  0.00     0.023 A 
HETATM    8  C   LIG     1      26.928  22.640  21.617  1.00  0.00     0.068 A 
HETATM    9 CL   LIG     1      26.527  21.014  22.173  1.00  0.00    -0.082 Cl
ENDROOT
BRANCH   7  10
HETATM   10  C   LIG     1      25.320  22.371  19.712  1.00  0.00     0.023 A 
HETATM   11  C   LIG     1      23.962  22.389  20.090  1.00  0.00     0.047 A 
HETATM   12  C   LIG     1      23.029  21.632  19.376  1.00  0.00     0.026 A 
HETATM   13 CL   LIG     1      23.403  23.352  21.454  1.00  0.00    -0.083 Cl
HETATM   14  C   LIG     1      23.434  20.856  18.290  1.00  0.00     0.027 A 
HETATM   15  C   LIG     1      24.777  20.829  17.904  1.00  0.00     0.056 A 
HETATM   16 CL   LIG     1      25.239  19.836  16.528  1.00  0.00    -0.083 Cl
HETATM   17  C   LIG     1      25.728  21.586  18.612  1.00  0.00     0.068 A 
HETATM   18 CL   LIG     1      27.424  21.550  18.123  1.00  0.00    -0.082 Cl
ENDBRANCH   7  10
TORSDOF 1
ENDMDL
MODEL 11
REMARK VINA RESULT:      -4.3      3.286      6.075
REMARK  1 active torsions:
REMARK  status: ('A' for Active; 'I' for Inactive)
REMARK    1  A    between atoms: C_7  and  C_10 
ROOT
HETATM    1 CL   LIG     1      22.801  21.806  18.515  1.00  0.00    -0.083 Cl
HETATM    2  C   LIG     1      23.748  21.064  19.799  1.00  0.00     0.056 A 
HETATM    3  C   LIG     1      24.653  20.053  19.466  1.00  0.00     0.027 A 
HETATM    4  C   LIG     1      25.422  19.442  20.456  1.00  0.00     0.026 A 
HETATM    5  C   LIG     1      25.294  19.835  21.791  1.00  0.00     0.047 A 
HETATM    6 CL   LIG     1      26.287  19.033  23.005  1.00  0.00    -0.083 Cl
HETATM    7  C   LIG     1      24.386  20.853  22.142  1.00  0.00     0.023 A 
HETATM    8  C   LIG     1      23.609  21.472  21.138  1.00  0.00     0.068 A 
HETATM    9 CL   LIG     1      22.466  22.750  21.557  1.00  0.00    -0.082 Cl
ENDROOT
BRANCH   7  10
HETATM   10  C   LIG     1      24.250  21.271  23.554  1.00  0.00     0.023 A 
HETATM   11  C   LIG     1      23.330  20.617  24.398  1.00  0.00     0.047 A 
HETATM   12  C   LIG     1      23.203  21.013  25.733  1.00  0.00     0.026 A 
HETATM   13 CL   LIG     1      22.323  19.298  23.810  1.00  0.00    -0.083 Cl
HETATM   14  C   LIG     1      23.983  22.054  26.235  1.00  0.00     0.027 A 
HETATM   15  C   LIG     1      24.899  22.712  25.410  1.00  0.00     0.056 A 
HETATM   16 CL   LIG     1      25.860  24.019  26.089  1.00  0.00    -0.083 Cl
HETATM   17  C   LIG     1      25.038  22.325  24.065  1.00  0.00     0.068 A 
HETATM   18 CL   LIG     1      26.196  23.157  23.024  1.00  0.00    -0.082 Cl
ENDBRANCH   7  10
TORSDOF 1
ENDMDL
MODEL 12
REMARK VINA RESULT:      -4.2      3.223      4.282
REMARK  1 active torsions:
REMARK  status: ('A' for Active; 'I' for Inactive)
REMARK    1  A    between atoms: C_7  and  C_10 
ROOT
HETATM    1 CL   LIG     1      26.476  24.341  25.555  1.00  0.00    -0.083 Cl
HETATM    2  C   LIG     1      25.400  23.042  25.057  1.00  0.00     0.056 A 
HETATM    3  C   LIG     1      24.528  22.494  26.002  1.00  0.00     0.027 A 
HETATM    4  C   LIG     1      23.659  21.463  25.643  1.00  0.00     0.026 A 
HETATM    5  C   LIG     1      23.653  20.968  24.337  1.00  0.00     0.047 A 
HETATM    6 CL   LIG     1      22.538  19.665  23.934  1.00  0.00    -0.083 Cl
HETATM    7  C   LIG     1      24.527  21.510  23.374  1.00  0.00     0.023 A 
HETATM    8  C   LIG     1      25.405  22.554  23.738  1.00  0.00     0.068 A 
HETATM    9 CL   LIG     1      26.507  23.248  22.546  1.00  0.00    -0.082 Cl
ENDROOT
BRANCH   7  10
HETATM   10  C   LIG     1      24.523  20.987  21.990  1.00  0.00     0.023 A 
HETATM   11  C   LIG     1      25.370  19.918  21.636  1.00  0.00     0.047 A 
HETATM   12  C   LIG     1      25.363  19.425  20.329  1.00  0.00     0.026 A 
HETATM   13 CL   LIG     1      26.450  19.176  22.812  1.00  0.00    -0.083 Cl
HETATM   14  C   LIG     1      24.521  19.987  19.369  1.00  0.00     0.027 A 
HETATM   15  C   LIG     1      23.676  21.048  19.705  1.00  0.00     0.056 A 
HETATM   16 CL   LIG     1      22.632  21.723  18.461  1.00  0.00    -0.083 Cl
HETATM   17  C   LIG     1      23.671  21.554  21.017  1.00  0.00     0.068 A 
HETATM   18 CL   LIG     1      22.602  22.894  21.440  1.00  0.00    -0.082 Cl
ENDBRANCH   7  10
TORSDOF 1
ENDMDL
MODEL 13
REMARK VINA RESULT:      -4.2      2.182      4.482
REMARK  1 active torsions:
REMARK  status: ('A' for Active; 'I' for Inactive)
REMARK    1  A    between atoms: C_7  and  C_10 
ROOT
HETATM    1 CL   LIG     1      28.513  25.883  21.081  1.00  0.00    -0.083 Cl
HETATM    2  C   LIG     1      27.331  24.889  20.237  1.00  0.00     0.056 A 
HETATM    3  C   LIG     1      26.843  25.329  19.005  1.00  0.00     0.027 A 
HETATM    4  C   LIG     1      25.906  24.568  18.306  1.00  0.00     0.026 A 
HETATM    5  C   LIG     1      25.446  23.358  18.833  1.00  0.00     0.047 A 
HETATM    6 CL   LIG     1      24.262  22.434  17.914  1.00  0.00    -0.083 Cl
HETATM    7  C   LIG     1      25.929  22.902  20.076  1.00  0.00     0.023 A 
HETATM    8  C   LIG     1      26.879  23.673  20.781  1.00  0.00     0.068 A 
HETATM    9 CL   LIG     1      27.497  23.119  22.339  1.00  0.00    -0.082 Cl
ENDROOT
BRANCH   7  10
HETATM   10  C   LIG     1      25.444  21.622  20.636  1.00  0.00     0.023 A 
HETATM   11  C   LIG     1      26.105  20.418  20.320  1.00  0.00     0.047 A 
HETATM   12  C   LIG     1      25.646  19.209  20.851  1.00  0.00     0.026 A 
HETATM   13 CL   LIG     1      27.513  20.394  19.263  1.00  0.00    -0.083 Cl
HETATM   14  C   LIG     1      24.534  19.187  21.693  1.00  0.00     0.027 A 
HETATM   15  C   LIG     1      23.868  20.373  22.014  1.00  0.00     0.056 A 
HETATM   16 CL   LIG     1      22.471  20.295  23.080  1.00  0.00    -0.083 Cl
HETATM   17  C   LIG     1      24.319  21.597  21.488  1.00  0.00     0.068 A 
HETATM   18 CL   LIG     1      23.477  23.095  21.895  1.00  0.00    -0.082 Cl
ENDBRANCH   7  10
TORSDOF 1
ENDMDL
MODEL 14
REMARK VINA RESULT:      -4.1      2.303      4.286
REMARK  1 active torsions:
REMARK  status: ('A' for Active; 'I' for Inactive)
REMARK    1  A    between atoms: C_7  and  C_10 
ROOT
HETATM    1 CL   LIG     1      28.480  25.493  22.075  1.00  0.00    -0.083 Cl
HETATM    2  C   LIG     1      27.487  24.049  22.233  1.00  0.00     0.056 A 
HETATM    3  C   LIG     1      27.575  23.300  23.409  1.00  0.00     0.027 A 
HETATM    4  C   LIG     1      26.803  22.150  23.571  1.00  0.00     0.026 A 
HETATM    5  C   LIG     1      25.935  21.735  22.558  1.00  0.00     0.047 A 
HETATM    6 CL   LIG     1      24.981  20.276  22.810  1.00  0.00    -0.083 Cl
HETATM    7  C   LIG     1      25.836  22.481  21.366  1.00  0.00     0.023 A 
HETATM    8  C   LIG     1      26.617  23.645  21.204  1.00  0.00     0.068 A 
HETATM    9 CL   LIG     1      26.507  24.593  19.719  1.00  0.00    -0.082 Cl
ENDROOT
BRANCH   7  10
HETATM   10  C   LIG     1      24.917  22.044  20.292  1.00  0.00     0.023 A 
HETATM   11  C   LIG     1      23.561  22.427  20.324  1.00  0.00     0.047 A 
HETATM   12  C   LIG     1      22.695  22.014  19.308  1.00  0.00     0.026 A 
HETATM   13 CL   LIG     1      22.920  23.425  21.625  1.00  0.00    -0.083 Cl
HETATM   14  C   LIG     1      23.165  21.223  18.260  1.00  0.00     0.027 A 
HETATM   15  C   LIG     1      24.507  20.835  18.216  1.00  0.00     0.056 A 
HETATM   16 CL   LIG     1      25.053  19.836  16.874  1.00  0.00    -0.083 Cl
HETATM   17  C   LIG     1      25.391  21.243  19.231  1.00  0.00     0.068 A 
HETATM   18 CL   LIG     1      27.086  20.752  19.173  1.00  0.00    -0.082 Cl
ENDBRANCH   7  10
TORSDOF 1
ENDMDL
MODEL 15
REMARK VINA RESULT:      -3.9      3.042      6.732
REMARK  1 active torsions:
REMARK  status: ('A' for Active; 'I' for Inactive)
REMARK    1  A    between atoms: C_7  and  C_10 
ROOT
HETATM    1 CL   LIG     1      23.527  22.022  18.744  1.00  0.00    -0.083 Cl
HETATM    2  C   LIG     1      24.321  21.231  20.101  1.00  0.00     0.056 A 
HETATM    3  C   LIG     1      25.223  20.197  19.840  1.00  0.00     0.027 A 
HETATM    4  C   LIG     1      25.872  19.547  20.889  1.00  0.00     0.026 A 
HETATM    5  C   LIG     1      25.625  19.922  22.212  1.00  0.00     0.047 A 
HETATM    6 CL   LIG     1      26.469  19.071  23.502  1.00  0.00    -0.083 Cl
HETATM    7  C   LIG     1      24.717  20.963  22.490  1.00  0.00     0.023 A 
HETATM    8  C   LIG     1      24.062  21.621  21.427  1.00  0.00     0.068 A 
HETATM    9 CL   LIG     1      22.921  22.928  21.755  1.00  0.00    -0.082 Cl
ENDROOT
BRANCH   7  10
HETATM   10  C   LIG     1      24.454  21.363  23.890  1.00  0.00     0.023 A 
HETATM   11  C   LIG     1      25.217  22.387  24.487  1.00  0.00     0.047 A 
HETATM   12  C   LIG     1      24.966  22.764  25.809  1.00  0.00     0.026 A 
HETATM   13 CL   LIG     1      26.494  23.215  23.601  1.00  0.00    -0.083 Cl
HETATM   14  C   LIG     1      23.963  22.132  26.544  1.00  0.00     0.027 A 
HETATM   15  C   LIG     1      23.199  21.115  25.965  1.00  0.00     0.056 A 
HETATM   16 CL   LIG     1      21.945  20.347  26.931  1.00  0.00    -0.083 Cl
HETATM   17  C   LIG     1      23.439  20.725  24.635  1.00  0.00     0.068 A 
HETATM   18 CL   LIG     1      22.472  19.440  23.905  1.00  0.00    -0.082 Cl
ENDBRANCH   7  10
TORSDOF 1
ENDMDL
MODEL 16
REMARK VINA RESULT:      -3.8      3.348      5.025
REMARK  1 active torsions:
REMARK  status: ('A' for Active; 'I' for Inactive)
REMARK    1  A    between atoms: C_7  and  C_10 
ROOT
HETATM    1 CL   LIG     1      24.286  22.257  27.216  1.00  0.00    -0.083 Cl
HETATM    2  C   LIG     1      25.014  22.508  25.634  1.00  0.00     0.056 A 
HETATM    3  C   LIG     1      26.091  23.392  25.525  1.00  0.00     0.027 A 
HETATM    4  C   LIG     1      26.694  23.616  24.287  1.00  0.00     0.026 A 
HETATM    5  C   LIG     1      26.228  22.961  23.146  1.00  0.00     0.047 A 
HETATM    6 CL   LIG     1      27.023  23.278  21.606  1.00  0.00    -0.083 Cl
HETATM    7  C   LIG     1      25.142  22.067  23.241  1.00  0.00     0.023 A 
HETATM    8  C   LIG     1      24.533  21.840  24.494  1.00  0.00     0.068 A 
HETATM    9 CL   LIG     1      23.173  20.724  24.635  1.00  0.00    -0.082 Cl
ENDROOT
BRANCH   7  10
HETATM   10  C   LIG     1      24.646  21.371  22.033  1.00  0.00     0.023 A 
HETATM   11  C   LIG     1      23.618  21.946  21.260  1.00  0.00     0.047 A 
HETATM   12  C   LIG     1      23.151  21.288  20.119  1.00  0.00     0.026 A 
HETATM   13 CL   LIG     1      22.895  23.492  21.697  1.00  0.00    -0.083 Cl
HETATM   14  C   LIG     1      23.698  20.062  19.740  1.00  0.00     0.027 A 
HETATM   15  C   LIG     1      24.718  19.480  20.498  1.00  0.00     0.056 A 
HETATM   16 CL   LIG     1      25.376  17.933  19.980  1.00  0.00    -0.083 Cl
HETATM   17  C   LIG     1      25.199  20.131  21.648  1.00  0.00     0.068 A 
HETATM   18 CL   LIG     1      26.487  19.394  22.604  1.00  0.00    -0.082 Cl
ENDBRANCH   7  10
TORSDOF 1
ENDMDL
MODEL 17
REMARK VINA RESULT:      -3.8      1.544      5.338
REMARK  1 active torsions:
REMARK  status: ('A' for Active; 'I' for Inactive)
REMARK    1  A    between atoms: C_7  and  C_10 
ROOT
HETATM    1 CL   LIG     1      29.721  20.549  17.332  1.00  0.00    -0.083 Cl
HETATM    2  C   LIG     1      28.795  21.951  17.854  1.00  0.00     0.056 A 
HETATM    3  C   LIG     1      29.010  23.173  17.211  1.00  0.00     0.027 A 
HETATM    4  C   LIG     1      28.294  24.307  17.596  1.00  0.00     0.026 A 
HETATM    5  C   LIG     1      27.356  24.232  18.629  1.00  0.00     0.047 A 
HETATM    6 CL   LIG     1      26.478  25.691  19.078  1.00  0.00    -0.083 Cl
HETATM    7  C   LIG     1      27.129  23.006  19.286  1.00  0.00     0.023 A 
HETATM    8  C   LIG     1      27.853  21.859  18.894  1.00  0.00     0.068 A 
HETATM    9 CL   LIG     1      27.583  20.315  19.705  1.00  0.00    -0.082 Cl
ENDROOT
BRANCH   7  10
HETATM   10  C   LIG     1      26.135  22.923  20.379  1.00  0.00     0.023 A 
HETATM   11  C   LIG     1      26.551  23.043  21.721  1.00  0.00     0.047 A 
HETATM   12  C   LIG     1      25.611  22.966  22.752  1.00  0.00     0.026 A 
HETATM   13 CL   LIG     1      28.243  23.291  22.138  1.00  0.00    -0.083 Cl
HETATM   14  C   LIG     1      24.261  22.770  22.461  1.00  0.00     0.027 A 
HETATM   15  C   LIG     1      23.835  22.650  21.135  1.00  0.00     0.056 A 
HETATM   16 CL   LIG     1      22.122  22.404  20.818  1.00  0.00    -0.083 Cl
HETATM   17  C   LIG     1      24.769  22.726  20.087  1.00  0.00     0.068 A 
HETATM   18 CL   LIG     1      24.228  22.573  18.413  1.00  0.00    -0.082 Cl
ENDBRANCH   7  10
TORSDOF 1
ENDMDL
MODEL 18
REMARK VINA RESULT:      -3.8      3.072      4.463
REMARK  1 active torsions:
REMARK  status: ('A' for Active; 'I' for Inactive)
REMARK    1  A    between atoms: C_7  and  C_10 
ROOT
HETATM    1 CL   LIG     1      24.349  22.414  27.274  1.00  0.00    -0.083 Cl
HETATM    2  C   LIG     1      25.194  22.708  25.759  1.00  0.00     0.056 A 
HETATM    3  C   LIG     1      26.193  23.685  25.727  1.00  0.00     0.027 A 
HETATM    4  C   LIG     1      26.885  23.946  24.545  1.00  0.00     0.026 A 
HETATM    5  C   LIG     1      26.586  23.234  23.381  1.00  0.00     0.047 A 
HETATM    6 CL   LIG     1      27.488  23.600  21.913  1.00  0.00    -0.083 Cl
HETATM    7  C   LIG     1      25.581  22.246  23.398  1.00  0.00     0.023 A 
HETATM    8  C   LIG     1      24.882  21.982  24.596  1.00  0.00     0.068 A 
HETATM    9 CL   LIG     1      23.620  20.749  24.638  1.00  0.00    -0.082 Cl
ENDROOT
BRANCH   7  10
HETATM   10  C   LIG     1      25.263  21.490  22.166  1.00  0.00     0.023 A 
HETATM   11  C   LIG     1      25.963  20.304  21.865  1.00  0.00     0.047 A 
HETATM   12  C   LIG     1      25.660  19.592  20.702  1.00  0.00     0.026 A 
HETATM   13 CL   LIG     1      27.225  19.689  22.927  1.00  0.00    -0.083 Cl
HETATM   14  C   LIG     1      24.667  20.047  19.835  1.00  0.00     0.027 A 
HETATM   15  C   LIG     1      23.965  21.221  20.121  1.00  0.00     0.056 A 
HETATM   16 CL   LIG     1      22.721  21.756  18.998  1.00  0.00    -0.083 Cl
HETATM   17  C   LIG     1      24.258  21.949  21.288  1.00  0.00     0.068 A 
HETATM   18 CL   LIG     1      23.369  23.432  21.648  1.00  0.00    -0.082 Cl
ENDBRANCH   7  10
TORSDOF 1
ENDMDL
MODEL 19
REMARK VINA RESULT:      -3.7      2.472      4.695
REMARK  1 active torsions:
REMARK  status: ('A' for Active; 'I' for Inactive)
REMARK    1  A    between atoms: C_7  and  C_10 
ROOT
HETATM    1 CL   LIG     1      25.803  23.266  24.656  1.00  0.00    -0.083 Cl
HETATM    2  C   LIG     1      26.225  22.360  23.209  1.00  0.00     0.056 A 
HETATM    3  C   LIG     1      27.538  21.907  23.060  1.00  0.00     0.027 A 
HETATM    4  C   LIG     1      27.910  21.184  21.926  1.00  0.00     0.026 A 
HETATM    5  C   LIG     1      26.972  20.907  20.928  1.00  0.00     0.047 A 
HETATM    6 CL   LIG     1      27.490  19.991  19.516  1.00  0.00    -0.083 Cl
HETATM    7  C   LIG     1      25.644  21.357  21.065  1.00  0.00     0.023 A 
HETATM    8  C   LIG     1      25.269  22.088  22.213  1.00  0.00     0.068 A 
HETATM    9 CL   LIG     1      23.610  22.661  22.403  1.00  0.00    -0.082 Cl
ENDROOT
BRANCH   7  10
HETATM   10  C   LIG     1      24.649  21.064  20.009  1.00  0.00     0.023 A 
HETATM   11  C   LIG     1      24.476  21.960  18.935  1.00  0.00     0.047 A 
HETATM   12  C   LIG     1      23.536  21.681  17.939  1.00  0.00     0.026 A 
HETATM   13 CL   LIG     1      25.422  23.440  18.812  1.00  0.00    -0.083 Cl
HETATM   14  C   LIG     1      22.767  20.519  18.001  1.00  0.00     0.027 A 
HETATM   15  C   LIG     1      22.929  19.622  19.061  1.00  0.00     0.056 A 
HETATM   16 CL   LIG     1      21.937  18.170  19.096  1.00  0.00    -0.083 Cl
HETATM   17  C   LIG     1      23.871  19.889  20.070  1.00  0.00     0.068 A 
HETATM   18 CL   LIG     1      24.074  18.754  21.408  1.00  0.00    -0.082 Cl
ENDBRANCH   7  10
TORSDOF 1
ENDMDL
MODEL 20
REMARK VINA RESULT:      -3.7      2.136      4.949
REMARK  1 active torsions:
REMARK  status: ('A' for Active; 'I' for Inactive)
REMARK    1  A    between atoms: C_7  and  C_10 
ROOT
HETATM    1 CL   LIG     1      28.164  25.826  21.035  1.00  0.00    -0.083 Cl
HETATM    2  C   LIG     1      26.983  24.779  20.257  1.00  0.00     0.056 A 
HETATM    3  C   LIG     1      26.701  24.977  18.903  1.00  0.00     0.027 A 
HETATM    4  C   LIG     1      25.771  24.166  18.252  1.00  0.00     0.026 A 
HETATM    5  C   LIG     1      25.112  23.150  18.947  1.00  0.00     0.047 A 
HETATM    6 CL   LIG     1      23.946  22.154  18.081  1.00  0.00    -0.083 Cl
HETATM    7  C   LIG     1      25.386  22.939  20.313  1.00  0.00     0.023 A 
HETATM    8  C   LIG     1      26.328  23.759  20.971  1.00  0.00     0.068 A 
HETATM    9 CL   LIG     1      26.686  23.511  22.682  1.00  0.00    -0.082 Cl
ENDROOT
BRANCH   7  10
HETATM   10  C   LIG     1      24.689  21.863  21.053  1.00  0.00     0.023 A 
HETATM   11  C   LIG     1      23.457  22.124  21.684  1.00  0.00     0.047 A 
HETATM   12  C   LIG     1      22.801  21.106  22.381  1.00  0.00     0.026 A 
HETATM   13 CL   LIG     1      22.712  23.718  21.619  1.00  0.00    -0.083 Cl
HETATM   14  C   LIG     1      23.359  19.830  22.455  1.00  0.00     0.027 A 
HETATM   15  C   LIG     1      24.580  19.557  21.834  1.00  0.00     0.056 A 
HETATM   16 CL   LIG     1      25.245  17.932  21.955  1.00  0.00    -0.083 Cl
HETATM   17  C   LIG     1      25.253  20.571  21.128  1.00  0.00     0.068 A 
HETATM   18 CL   LIG     1      26.796  20.224  20.344  1.00  0.00    -0.082 Cl
ENDBRANCH   7  10
TORSDOF 1
ENDMDL
