MODEL 1
REMARK VINA RESULT:      -7.4      0.000      0.000
REMARK  1 active torsions:
REMARK  status: ('A' for Active; 'I' for Inactive)
REMARK    1  A    between atoms: C_4  and  C_5 
ROOT
HETATM    1  C   LIG     1      17.084  36.278  23.481  1.00  0.00    -0.003 A 
HETATM    2  C   LIG     1      17.588  35.384  24.442  1.00  0.00     0.037 A 
HETATM    3  C   LIG     1      17.903  35.829  25.729  1.00  0.00     0.035 A 
HETATM    4 CL   LIG     1      18.524  34.700  26.920  1.00  0.00    -0.084 Cl
HETATM    5  C   LIG     1      17.723  37.171  26.068  1.00  0.00     0.025 A 
HETATM    6  C   LIG     1      17.233  38.072  25.120  1.00  0.00     0.026 A 
HETATM    7  C   LIG     1      16.915  37.638  23.827  1.00  0.00     0.045 A 
HETATM    8 CL   LIG     1      16.371  38.837  22.657  1.00  0.00    -0.083 Cl
ENDROOT
BRANCH   1   9
HETATM    9  C   LIG     1      16.749  35.771  22.131  1.00  0.00    -0.023 A 
HETATM   10  C   LIG     1      15.954  34.622  21.986  1.00  0.00     0.036 A 
HETATM   11  C   LIG     1      15.620  34.150  20.711  1.00  0.00     0.034 A 
HETATM   12 CL   LIG     1      14.637  32.709  20.538  1.00  0.00    -0.084 Cl
HETATM   13  C   LIG     1      16.071  34.829  19.575  1.00  0.00     0.024 A 
HETATM   14  C   LIG     1      16.850  35.981  19.712  1.00  0.00     0.003 A 
HETATM   15  C   LIG     1      17.186  36.455  20.983  1.00  0.00     0.012 A 
ENDBRANCH   1   9
TORSDOF 1
ENDMDL
MODEL 2
REMARK VINA RESULT:      -7.4      0.633      5.182
REMARK  1 active torsions:
REMARK  status: ('A' for Active; 'I' for Inactive)
REMARK    1  A    between atoms: C_4  and  C_5 
ROOT
HETATM    1  C   LIG     1      16.721  35.771  22.165  1.00  0.00    -0.003 A 
HETATM    2  C   LIG     1      15.940  34.614  22.007  1.00  0.00     0.037 A 
HETATM    3  C   LIG     1      15.615  34.146  20.729  1.00  0.00     0.035 A 
HETATM    4 CL   LIG     1      14.647  32.695  20.547  1.00  0.00    -0.084 Cl
HETATM    5  C   LIG     1      16.063  34.834  19.599  1.00  0.00     0.025 A 
HETATM    6  C   LIG     1      16.830  35.992  19.744  1.00  0.00     0.026 A 
HETATM    7  C   LIG     1      17.161  36.469  21.018  1.00  0.00     0.045 A 
HETATM    8 CL   LIG     1      18.069  37.974  21.132  1.00  0.00    -0.083 Cl
ENDROOT
BRANCH   1   9
HETATM    9  C   LIG     1      17.058  36.231  23.532  1.00  0.00    -0.023 A 
HETATM   10  C   LIG     1      17.607  35.335  24.464  1.00  0.00     0.036 A 
HETATM   11  C   LIG     1      17.943  35.771  25.751  1.00  0.00     0.034 A 
HETATM   12 CL   LIG     1      18.618  34.642  26.911  1.00  0.00    -0.084 Cl
HETATM   13  C   LIG     1      17.740  37.106  26.111  1.00  0.00     0.024 A 
HETATM   14  C   LIG     1      17.207  38.007  25.185  1.00  0.00     0.003 A 
HETATM   15  C   LIG     1      16.870  37.575  23.899  1.00  0.00     0.012 A 
ENDBRANCH   1   9
TORSDOF 1
ENDMDL
MODEL 3
REMARK VINA RESULT:      -7.4      1.573      1.987
REMARK  1 active torsions:
REMARK  status: ('A' for Active; 'I' for Inactive)
REMARK    1  A    between atoms: C_4  and  C_5 
ROOT
HETATM    1  C   LIG     1      17.141  36.491  23.560  1.00  0.00    -0.003 A 
HETATM    2  C   LIG     1      17.582  35.505  24.460  1.00  0.00     0.037 A 
HETATM    3  C   LIG     1      17.870  35.835  25.788  1.00  0.00     0.035 A 
HETATM    4 CL   LIG     1      18.411  34.592  26.902  1.00  0.00    -0.084 Cl
HETATM    5  C   LIG     1      17.724  37.152  26.229  1.00  0.00     0.025 A 
HETATM    6  C   LIG     1      17.298  38.142  25.341  1.00  0.00     0.026 A 
HETATM    7  C   LIG     1      17.007  37.824  24.009  1.00  0.00     0.045 A 
HETATM    8 CL   LIG     1      16.544  39.131  22.923  1.00  0.00    -0.083 Cl
ENDROOT
BRANCH   1   9
HETATM    9  C   LIG     1      16.833  36.105  22.164  1.00  0.00    -0.023 A 
HETATM   10  C   LIG     1      17.633  36.574  21.109  1.00  0.00     0.036 A 
HETATM   11  C   LIG     1      17.356  36.196  19.790  1.00  0.00     0.034 A 
HETATM   12 CL   LIG     1      18.353  36.794  18.478  1.00  0.00    -0.084 Cl
HETATM   13  C   LIG     1      16.283  35.341  19.519  1.00  0.00     0.024 A 
HETATM   14  C   LIG     1      15.491  34.860  20.565  1.00  0.00     0.003 A 
HETATM   15  C   LIG     1      15.765  35.235  21.883  1.00  0.00     0.012 A 
ENDBRANCH   1   9
TORSDOF 1
ENDMDL
MODEL 4
REMARK VINA RESULT:      -7.0      2.704      5.709
REMARK  1 active torsions:
REMARK  status: ('A' for Active; 'I' for Inactive)
REMARK    1  A    between atoms: C_4  and  C_5 
ROOT
HETATM    1  C   LIG     1      16.756  35.763  20.669  1.00  0.00    -0.003 A 
HETATM    2  C   LIG     1      16.315  35.473  19.366  1.00  0.00     0.037 A 
HETATM    3  C   LIG     1      15.562  34.323  19.111  1.00  0.00     0.035 A 
HETATM    4 CL   LIG     1      15.010  33.979  17.481  1.00  0.00    -0.084 Cl
HETATM    5  C   LIG     1      15.246  33.449  20.153  1.00  0.00     0.025 A 
HETATM    6  C   LIG     1      15.689  33.720  21.451  1.00  0.00     0.026 A 
HETATM    7  C   LIG     1      16.444  34.868  21.717  1.00  0.00     0.045 A 
HETATM    8 CL   LIG     1      17.032  35.114  23.359  1.00  0.00    -0.083 Cl
ENDROOT
BRANCH   1   9
HETATM    9  C   LIG     1      17.540  36.996  20.905  1.00  0.00    -0.023 A 
HETATM   10  C   LIG     1      18.630  37.310  20.076  1.00  0.00     0.036 A 
HETATM   11  C   LIG     1      19.362  38.484  20.286  1.00  0.00     0.034 A 
HETATM   12 CL   LIG     1      20.727  38.863  19.252  1.00  0.00    -0.084 Cl
HETATM   13  C   LIG     1      19.005  39.355  21.320  1.00  0.00     0.024 A 
HETATM   14  C   LIG     1      17.914  39.055  22.141  1.00  0.00     0.003 A 
HETATM   15  C   LIG     1      17.181  37.884  21.934  1.00  0.00     0.012 A 
ENDBRANCH   1   9
TORSDOF 1
ENDMDL
MODEL 5
REMARK VINA RESULT:      -6.8      2.728      3.899
REMARK  1 active torsions:
REMARK  status: ('A' for Active; 'I' for Inactive)
REMARK    1  A    between atoms: C_4  and  C_5 
ROOT
HETATM    1  C   LIG     1      17.423  37.022  20.979  1.00  0.00    -0.003 A 
HETATM    2  C   LIG     1      18.544  37.257  20.164  1.00  0.00     0.037 A 
HETATM    3  C   LIG     1      19.324  38.403  20.344  1.00  0.00     0.035 A 
HETATM    4 CL   LIG     1      20.726  38.679  19.326  1.00  0.00    -0.084 Cl
HETATM    5  C   LIG     1      18.989  39.328  21.336  1.00  0.00     0.025 A 
HETATM    6  C   LIG     1      17.871  39.111  22.144  1.00  0.00     0.026 A 
HETATM    7  C   LIG     1      17.082  37.967  21.972  1.00  0.00     0.045 A 
HETATM    8 CL   LIG     1      15.645  37.789  22.975  1.00  0.00    -0.083 Cl
ENDROOT
BRANCH   1   9
HETATM    9  C   LIG     1      16.626  35.792  20.769  1.00  0.00    -0.023 A 
HETATM   10  C   LIG     1      16.290  35.381  19.469  1.00  0.00     0.036 A 
HETATM   11  C   LIG     1      15.552  34.208  19.266  1.00  0.00     0.034 A 
HETATM   12 CL   LIG     1      15.127  33.709  17.640  1.00  0.00    -0.084 Cl
HETATM   13  C   LIG     1      15.155  33.436  20.362  1.00  0.00     0.024 A 
HETATM   14  C   LIG     1      15.498  33.830  21.657  1.00  0.00     0.003 A 
HETATM   15  C   LIG     1      16.234  35.001  21.863  1.00  0.00     0.012 A 
ENDBRANCH   1   9
TORSDOF 1
ENDMDL
MODEL 6
REMARK VINA RESULT:      -6.6      7.952     10.425
REMARK  1 active torsions:
REMARK  status: ('A' for Active; 'I' for Inactive)
REMARK    1  A    between atoms: C_4  and  C_5 
ROOT
HETATM    1  C   LIG     1      14.878  30.967  15.138  1.00  0.00    -0.003 A 
HETATM    2  C   LIG     1      15.959  31.721  14.650  1.00  0.00     0.037 A 
HETATM    3  C   LIG     1      16.301  32.940  15.245  1.00  0.00     0.035 A 
HETATM    4 CL   LIG     1      17.658  33.866  14.631  1.00  0.00    -0.084 Cl
HETATM    5  C   LIG     1      15.563  33.419  16.329  1.00  0.00     0.025 A 
HETATM    6  C   LIG     1      14.479  32.684  16.816  1.00  0.00     0.026 A 
HETATM    7  C   LIG     1      14.128  31.463  16.228  1.00  0.00     0.045 A 
HETATM    8 CL   LIG     1      12.708  30.621  16.842  1.00  0.00    -0.083 Cl
ENDROOT
BRANCH   1   9
HETATM    9  C   LIG     1      14.552  29.675  14.492  1.00  0.00    -0.023 A 
HETATM   10  C   LIG     1      13.224  29.373  14.148  1.00  0.00     0.036 A 
HETATM   11  C   LIG     1      12.915  28.160  13.521  1.00  0.00     0.034 A 
HETATM   12 CL   LIG     1      11.253  27.786  13.105  1.00  0.00    -0.084 Cl
HETATM   13  C   LIG     1      13.932  27.247  13.227  1.00  0.00     0.024 A 
HETATM   14  C   LIG     1      15.257  27.547  13.553  1.00  0.00     0.003 A 
HETATM   15  C   LIG     1      15.570  28.757  14.180  1.00  0.00     0.012 A 
ENDBRANCH   1   9
TORSDOF 1
ENDMDL
MODEL 7
REMARK VINA RESULT:      -6.4      8.000     10.611
REMARK  1 active torsions:
REMARK  status: ('A' for Active; 'I' for Inactive)
REMARK    1  A    between atoms: C_4  and  C_5 
ROOT
HETATM    1  C   LIG     1      15.198  31.151  14.824  1.00  0.00    -0.003 A 
HETATM    2  C   LIG     1      16.132  31.878  14.065  1.00  0.00     0.037 A 
HETATM    3  C   LIG     1      16.635  33.095  14.536  1.00  0.00     0.035 A 
HETATM    4 CL   LIG     1      17.807  33.987  13.583  1.00  0.00    -0.084 Cl
HETATM    5  C   LIG     1      16.207  33.599  15.766  1.00  0.00     0.025 A 
HETATM    6  C   LIG     1      15.270  32.891  16.524  1.00  0.00     0.026 A 
HETATM    7  C   LIG     1      14.759  31.672  16.062  1.00  0.00     0.045 A 
HETATM    8 CL   LIG     1      13.529  30.866  17.030  1.00  0.00    -0.083 Cl
ENDROOT
BRANCH   1   9
HETATM    9  C   LIG     1      14.695  29.860  14.301  1.00  0.00    -0.023 A 
HETATM   10  C   LIG     1      15.567  28.976  13.644  1.00  0.00     0.036 A 
HETATM   11  C   LIG     1      15.099  27.747  13.165  1.00  0.00     0.034 A 
HETATM   12 CL   LIG     1      16.192  26.655  12.335  1.00  0.00    -0.084 Cl
HETATM   13  C   LIG     1      13.759  27.391  13.347  1.00  0.00     0.024 A 
HETATM   14  C   LIG     1      12.889  28.259  14.012  1.00  0.00     0.003 A 
HETATM   15  C   LIG     1      13.353  29.487  14.492  1.00  0.00     0.012 A 
ENDBRANCH   1   9
TORSDOF 1
ENDMDL
MODEL 8
REMARK VINA RESULT:      -6.3      2.287      3.263
REMARK  1 active torsions:
REMARK  status: ('A' for Active; 'I' for Inactive)
REMARK    1  A    between atoms: C_4  and  C_5 
ROOT
HETATM    1  C   LIG     1      17.107  36.637  21.294  1.00  0.00    -0.003 A 
HETATM    2  C   LIG     1      16.808  36.963  22.629  1.00  0.00     0.037 A 
HETATM    3  C   LIG     1      17.419  38.058  23.247  1.00  0.00     0.035 A 
HETATM    4 CL   LIG     1      17.029  38.457  24.910  1.00  0.00    -0.084 Cl
HETATM    5  C   LIG     1      18.340  38.835  22.540  1.00  0.00     0.025 A 
HETATM    6  C   LIG     1      18.655  38.515  21.217  1.00  0.00     0.026 A 
HETATM    7  C   LIG     1      18.049  37.420  20.589  1.00  0.00     0.045 A 
HETATM    8 CL   LIG     1      18.543  37.027  18.944  1.00  0.00    -0.083 Cl
ENDROOT
BRANCH   1   9
HETATM    9  C   LIG     1      16.432  35.479  20.667  1.00  0.00    -0.023 A 
HETATM   10  C   LIG     1      16.141  35.490  19.293  1.00  0.00     0.036 A 
HETATM   11  C   LIG     1      15.519  34.389  18.693  1.00  0.00     0.034 A 
HETATM   12 CL   LIG     1      15.150  34.416  16.979  1.00  0.00    -0.084 Cl
HETATM   13  C   LIG     1      15.192  33.268  19.461  1.00  0.00     0.024 A 
HETATM   14  C   LIG     1      15.490  33.244  20.826  1.00  0.00     0.003 A 
HETATM   15  C   LIG     1      16.111  34.341  21.428  1.00  0.00     0.012 A 
ENDBRANCH   1   9
TORSDOF 1
ENDMDL
MODEL 9
REMARK VINA RESULT:      -6.1      2.957      4.015
REMARK  1 active torsions:
REMARK  status: ('A' for Active; 'I' for Inactive)
REMARK    1  A    between atoms: C_4  and  C_5 
ROOT
HETATM    1  C   LIG     1      16.589  35.758  20.216  1.00  0.00    -0.003 A 
HETATM    2  C   LIG     1      17.797  36.291  19.735  1.00  0.00     0.037 A 
HETATM    3  C   LIG     1      18.412  37.362  20.392  1.00  0.00     0.035 A 
HETATM    4 CL   LIG     1      19.925  38.011  19.785  1.00  0.00    -0.084 Cl
HETATM    5  C   LIG     1      17.823  37.913  21.532  1.00  0.00     0.025 A 
HETATM    6  C   LIG     1      16.617  37.400  22.013  1.00  0.00     0.026 A 
HETATM    7  C   LIG     1      15.992  36.328  21.363  1.00  0.00     0.045 A 
HETATM    8 CL   LIG     1      14.437  35.775  21.978  1.00  0.00    -0.083 Cl
ENDROOT
BRANCH   1   9
HETATM    9  C   LIG     1      15.972  34.616  19.504  1.00  0.00    -0.023 A 
HETATM   10  C   LIG     1      15.745  33.404  20.176  1.00  0.00     0.036 A 
HETATM   11  C   LIG     1      15.145  32.328  19.511  1.00  0.00     0.034 A 
HETATM   12 CL   LIG     1      14.876  30.815  20.354  1.00  0.00    -0.084 Cl
HETATM   13  C   LIG     1      14.761  32.461  18.173  1.00  0.00     0.024 A 
HETATM   14  C   LIG     1      14.971  33.669  17.502  1.00  0.00     0.003 A 
HETATM   15  C   LIG     1      15.570  34.745  18.163  1.00  0.00     0.012 A 
ENDBRANCH   1   9
TORSDOF 1
ENDMDL
MODEL 10
REMARK VINA RESULT:      -6.0      8.466     11.524
REMARK  1 active torsions:
REMARK  status: ('A' for Active; 'I' for Inactive)
REMARK    1  A    between atoms: C_4  and  C_5 
ROOT
HETATM    1  C   LIG     1      14.955  29.915  14.162  1.00  0.00    -0.003 A 
HETATM    2  C   LIG     1      15.703  28.995  13.406  1.00  0.00     0.037 A 
HETATM    3  C   LIG     1      15.154  27.760  13.045  1.00  0.00     0.035 A 
HETATM    4 CL   LIG     1      16.095  26.626  12.094  1.00  0.00    -0.084 Cl
HETATM    5  C   LIG     1      13.855  27.431  13.440  1.00  0.00     0.025 A 
HETATM    6  C   LIG     1      13.106  28.332  14.201  1.00  0.00     0.026 A 
HETATM    7  C   LIG     1      13.646  29.570  14.569  1.00  0.00     0.045 A 
HETATM    8 CL   LIG     1      12.678  30.630  15.589  1.00  0.00    -0.083 Cl
ENDROOT
BRANCH   1   9
HETATM    9  C   LIG     1      15.562  31.218  14.515  1.00  0.00    -0.023 A 
HETATM   10  C   LIG     1      16.339  31.914  13.574  1.00  0.00     0.036 A 
HETATM   11  C   LIG     1      16.899  33.155  13.899  1.00  0.00     0.034 A 
HETATM   12 CL   LIG     1      17.876  34.012  12.722  1.00  0.00    -0.084 Cl
HETATM   13  C   LIG     1      16.680  33.711  15.163  1.00  0.00     0.024 A 
HETATM   14  C   LIG     1      15.897  33.030  16.100  1.00  0.00     0.003 A 
HETATM   15  C   LIG     1      15.336  31.791  15.779  1.00  0.00     0.012 A 
ENDBRANCH   1   9
TORSDOF 1
ENDMDL
MODEL 11
REMARK VINA RESULT:      -6.0      2.112      3.265
REMARK  1 active torsions:
REMARK  status: ('A' for Active; 'I' for Inactive)
REMARK    1  A    between atoms: C_4  and  C_5 
ROOT
HETATM    1  C   LIG     1      16.729  35.884  20.731  1.00  0.00    -0.003 A 
HETATM    2  C   LIG     1      16.329  36.046  22.068  1.00  0.00     0.037 A 
HETATM    3  C   LIG     1      16.883  37.060  22.857  1.00  0.00     0.035 A 
HETATM    4 CL   LIG     1      16.367  37.256  24.522  1.00  0.00    -0.084 Cl
HETATM    5  C   LIG     1      17.845  37.917  22.319  1.00  0.00     0.025 A 
HETATM    6  C   LIG     1      18.259  37.759  20.994  1.00  0.00     0.026 A 
HETATM    7  C   LIG     1      17.712  36.747  20.196  1.00  0.00     0.045 A 
HETATM    8 CL   LIG     1      18.329  36.556  18.557  1.00  0.00    -0.083 Cl
ENDROOT
BRANCH   1   9
HETATM    9  C   LIG     1      16.114  34.809  19.920  1.00  0.00    -0.023 A 
HETATM   10  C   LIG     1      15.852  33.554  20.494  1.00  0.00     0.036 A 
HETATM   11  C   LIG     1      15.253  32.541  19.736  1.00  0.00     0.034 A 
HETATM   12 CL   LIG     1      14.941  30.973  20.457  1.00  0.00    -0.084 Cl
HETATM   13  C   LIG     1      14.905  32.780  18.403  1.00  0.00     0.024 A 
HETATM   14  C   LIG     1      15.149  34.030  17.830  1.00  0.00     0.003 A 
HETATM   15  C   LIG     1      15.747  35.044  18.583  1.00  0.00     0.012 A 
ENDBRANCH   1   9
TORSDOF 1
ENDMDL
MODEL 12
REMARK VINA RESULT:      -5.9      8.199     10.002
REMARK  1 active torsions:
REMARK  status: ('A' for Active; 'I' for Inactive)
REMARK    1  A    between atoms: C_4  and  C_5 
ROOT
HETATM    1  C   LIG     1      15.286  31.839  15.090  1.00  0.00    -0.003 A 
HETATM    2  C   LIG     1      14.827  30.677  14.447  1.00  0.00     0.037 A 
HETATM    3  C   LIG     1      13.681  30.018  14.905  1.00  0.00     0.035 A 
HETATM    4 CL   LIG     1      13.115  28.573  14.087  1.00  0.00    -0.084 Cl
HETATM    5  C   LIG     1      12.987  30.511  16.012  1.00  0.00     0.025 A 
HETATM    6  C   LIG     1      13.440  31.659  16.667  1.00  0.00     0.026 A 
HETATM    7  C   LIG     1      14.586  32.326  16.217  1.00  0.00     0.045 A 
HETATM    8 CL   LIG     1      15.146  33.725  17.130  1.00  0.00    -0.083 Cl
ENDROOT
BRANCH   1   9
HETATM    9  C   LIG     1      16.495  32.519  14.572  1.00  0.00    -0.023 A 
HETATM   10  C   LIG     1      16.418  33.313  13.416  1.00  0.00     0.036 A 
HETATM   11  C   LIG     1      17.555  33.971  12.933  1.00  0.00     0.034 A 
HETATM   12 CL   LIG     1      17.452  34.951  11.483  1.00  0.00    -0.084 Cl
HETATM   13  C   LIG     1      18.773  33.846  13.608  1.00  0.00     0.024 A 
HETATM   14  C   LIG     1      18.855  33.069  14.766  1.00  0.00     0.003 A 
HETATM   15  C   LIG     1      17.721  32.410  15.251  1.00  0.00     0.012 A 
ENDBRANCH   1   9
TORSDOF 1
ENDMDL
MODEL 13
REMARK VINA RESULT:      -5.9      3.136      5.085
REMARK  1 active torsions:
REMARK  status: ('A' for Active; 'I' for Inactive)
REMARK    1  A    between atoms: C_4  and  C_5 
ROOT
HETATM    1  C   LIG     1      17.804  37.032  20.711  1.00  0.00    -0.003 A 
HETATM    2  C   LIG     1      17.266  35.826  20.230  1.00  0.00     0.037 A 
HETATM    3  C   LIG     1      16.400  35.068  21.025  1.00  0.00     0.035 A 
HETATM    4 CL   LIG     1      15.729  33.569  20.408  1.00  0.00    -0.084 Cl
HETATM    5  C   LIG     1      16.069  35.505  22.309  1.00  0.00     0.025 A 
HETATM    6  C   LIG     1      16.606  36.696  22.803  1.00  0.00     0.026 A 
HETATM    7  C   LIG     1      17.474  37.463  22.016  1.00  0.00     0.045 A 
HETATM    8 CL   LIG     1      18.173  38.916  22.723  1.00  0.00    -0.083 Cl
ENDROOT
BRANCH   1   9
HETATM    9  C   LIG     1      18.707  37.816  19.838  1.00  0.00    -0.023 A 
HETATM   10  C   LIG     1      18.198  38.479  18.708  1.00  0.00     0.036 A 
HETATM   11  C   LIG     1      19.045  39.236  17.891  1.00  0.00     0.034 A 
HETATM   12 CL   LIG     1      18.404  40.050  16.477  1.00  0.00    -0.084 Cl
HETATM   13  C   LIG     1      20.404  39.342  18.203  1.00  0.00     0.024 A 
HETATM   14  C   LIG     1      20.915  38.697  19.333  1.00  0.00     0.003 A 
HETATM   15  C   LIG     1      20.072  37.940  20.151  1.00  0.00     0.012 A 
ENDBRANCH   1   9
TORSDOF 1
ENDMDL
MODEL 14
REMARK VINA RESULT:      -5.9      6.860      9.879
REMARK  1 active torsions:
REMARK  status: ('A' for Active; 'I' for Inactive)
REMARK    1  A    between atoms: C_4  and  C_5 
ROOT
HETATM    1  C   LIG     1      14.967  31.261  15.499  1.00  0.00    -0.003 A 
HETATM    2  C   LIG     1      14.712  31.392  16.875  1.00  0.00     0.037 A 
HETATM    3  C   LIG     1      15.142  32.525  17.572  1.00  0.00     0.035 A 
HETATM    4 CL   LIG     1      14.808  32.679  19.287  1.00  0.00    -0.084 Cl
HETATM    5  C   LIG     1      15.835  33.536  16.903  1.00  0.00     0.025 A 
HETATM    6  C   LIG     1      16.106  33.412  15.538  1.00  0.00     0.026 A 
HETATM    7  C   LIG     1      15.680  32.281  14.830  1.00  0.00     0.045 A 
HETATM    8 CL   LIG     1      16.115  32.153  13.128  1.00  0.00    -0.083 Cl
ENDROOT
BRANCH   1   9
HETATM    9  C   LIG     1      14.487  30.054  14.789  1.00  0.00    -0.023 A 
HETATM   10  C   LIG     1      15.403  29.184  14.174  1.00  0.00     0.036 A 
HETATM   11  C   LIG     1      14.953  28.032  13.518  1.00  0.00     0.034 A 
HETATM   12 CL   LIG     1      16.103  26.958  12.744  1.00  0.00    -0.084 Cl
HETATM   13  C   LIG     1      13.586  27.739  13.480  1.00  0.00     0.024 A 
HETATM   14  C   LIG     1      12.670  28.593  14.101  1.00  0.00     0.003 A 
HETATM   15  C   LIG     1      13.116  29.744  14.757  1.00  0.00     0.012 A 
ENDBRANCH   1   9
TORSDOF 1
ENDMDL
MODEL 15
REMARK VINA RESULT:      -5.8      5.258      9.278
REMARK  1 active torsions:
REMARK  status: ('A' for Active; 'I' for Inactive)
REMARK    1  A    between atoms: C_4  and  C_5 
ROOT
HETATM    1  C   LIG     1      15.134  31.850  15.784  1.00  0.00    -0.003 A 
HETATM    2  C   LIG     1      14.204  30.818  15.568  1.00  0.00     0.037 A 
HETATM    3  C   LIG     1      14.189  30.118  14.357  1.00  0.00     0.035 A 
HETATM    4 CL   LIG     1      13.029  28.827  14.105  1.00  0.00    -0.084 Cl
HETATM    5  C   LIG     1      15.098  30.446  13.350  1.00  0.00     0.025 A 
HETATM    6  C   LIG     1      16.020  31.477  13.548  1.00  0.00     0.026 A 
HETATM    7  C   LIG     1      16.044  32.185  14.756  1.00  0.00     0.045 A 
HETATM    8 CL   LIG     1      17.181  33.520  14.915  1.00  0.00    -0.083 Cl
ENDROOT
BRANCH   1   9
HETATM    9  C   LIG     1      15.131  32.561  17.082  1.00  0.00    -0.023 A 
HETATM   10  C   LIG     1      14.883  31.858  18.273  1.00  0.00     0.036 A 
HETATM   11  C   LIG     1      14.897  32.524  19.504  1.00  0.00     0.034 A 
HETATM   12 CL   LIG     1      14.575  31.641  20.984  1.00  0.00    -0.084 Cl
HETATM   13  C   LIG     1      15.168  33.895  19.552  1.00  0.00     0.024 A 
HETATM   14  C   LIG     1      15.430  34.599  18.374  1.00  0.00     0.003 A 
HETATM   15  C   LIG     1      15.416  33.937  17.143  1.00  0.00     0.012 A 
ENDBRANCH   1   9
TORSDOF 1
ENDMDL
MODEL 16
REMARK VINA RESULT:      -5.8      4.761      8.884
REMARK  1 active torsions:
REMARK  status: ('A' for Active; 'I' for Inactive)
REMARK    1  A    between atoms: C_4  and  C_5 
ROOT
HETATM    1  C   LIG     1      15.408  32.161  16.448  1.00  0.00    -0.003 A 
HETATM    2  C   LIG     1      16.449  32.776  15.731  1.00  0.00     0.037 A 
HETATM    3  C   LIG     1      16.614  32.526  14.365  1.00  0.00     0.035 A 
HETATM    4 CL   LIG     1      17.912  33.307  13.481  1.00  0.00    -0.084 Cl
HETATM    5  C   LIG     1      15.743  31.658  13.704  1.00  0.00     0.025 A 
HETATM    6  C   LIG     1      14.711  31.032  14.408  1.00  0.00     0.026 A 
HETATM    7  C   LIG     1      14.538  31.274  15.776  1.00  0.00     0.045 A 
HETATM    8 CL   LIG     1      13.264  30.398  16.620  1.00  0.00    -0.083 Cl
ENDROOT
BRANCH   1   9
HETATM    9  C   LIG     1      15.255  32.457  17.891  1.00  0.00    -0.023 A 
HETATM   10  C   LIG     1      15.532  33.744  18.381  1.00  0.00     0.036 A 
HETATM   11  C   LIG     1      15.371  34.032  19.741  1.00  0.00     0.034 A 
HETATM   12 CL   LIG     1      15.729  35.639  20.347  1.00  0.00    -0.084 Cl
HETATM   13  C   LIG     1      14.924  33.039  20.618  1.00  0.00     0.024 A 
HETATM   14  C   LIG     1      14.634  31.760  20.135  1.00  0.00     0.003 A 
HETATM   15  C   LIG     1      14.794  31.468  18.777  1.00  0.00     0.012 A 
ENDBRANCH   1   9
TORSDOF 1
ENDMDL
MODEL 17
REMARK VINA RESULT:      -5.8      3.269      4.737
REMARK  1 active torsions:
REMARK  status: ('A' for Active; 'I' for Inactive)
REMARK    1  A    between atoms: C_4  and  C_5 
ROOT
HETATM    1  C   LIG     1      17.954  37.763  21.507  1.00  0.00    -0.003 A 
HETATM    2  C   LIG     1      18.009  38.432  22.742  1.00  0.00     0.037 A 
HETATM    3  C   LIG     1      17.312  37.937  23.849  1.00  0.00     0.035 A 
HETATM    4 CL   LIG     1      17.398  38.778  25.387  1.00  0.00    -0.084 Cl
HETATM    5  C   LIG     1      16.551  36.772  23.732  1.00  0.00     0.025 A 
HETATM    6  C   LIG     1      16.479  36.104  22.507  1.00  0.00     0.026 A 
HETATM    7  C   LIG     1      17.172  36.592  21.392  1.00  0.00     0.045 A 
HETATM    8 CL   LIG     1      16.982  35.744  19.859  1.00  0.00    -0.083 Cl
ENDROOT
BRANCH   1   9
HETATM    9  C   LIG     1      18.714  38.307  20.359  1.00  0.00    -0.023 A 
HETATM   10  C   LIG     1      18.045  38.990  19.330  1.00  0.00     0.036 A 
HETATM   11  C   LIG     1      18.763  39.522  18.252  1.00  0.00     0.034 A 
HETATM   12 CL   LIG     1      17.919  40.364  16.966  1.00  0.00    -0.084 Cl
HETATM   13  C   LIG     1      20.153  39.382  18.201  1.00  0.00     0.024 A 
HETATM   14  C   LIG     1      20.827  38.716  19.229  1.00  0.00     0.003 A 
HETATM   15  C   LIG     1      20.113  38.183  20.306  1.00  0.00     0.012 A 
ENDBRANCH   1   9
TORSDOF 1
ENDMDL
MODEL 18
REMARK VINA RESULT:      -5.7      8.642     11.453
REMARK  1 active torsions:
REMARK  status: ('A' for Active; 'I' for Inactive)
REMARK    1  A    between atoms: C_4  and  C_5 
ROOT
HETATM    1  C   LIG     1      18.280  33.672  12.193  1.00  0.00    -0.003 A 
HETATM    2  C   LIG     1      19.327  32.810  11.823  1.00  0.00     0.037 A 
HETATM    3  C   LIG     1      20.150  33.120  10.736  1.00  0.00     0.035 A 
HETATM    4 CL   LIG     1      21.459  32.040  10.292  1.00  0.00    -0.084 Cl
HETATM    5  C   LIG     1      19.932  34.289  10.005  1.00  0.00     0.025 A 
HETATM    6  C   LIG     1      18.887  35.148  10.355  1.00  0.00     0.026 A 
HETATM    7  C   LIG     1      18.056  34.848  11.442  1.00  0.00     0.045 A 
HETATM    8 CL   LIG     1      16.713  35.934  11.787  1.00  0.00    -0.083 Cl
ENDROOT
BRANCH   1   9
HETATM    9  C   LIG     1      17.436  33.320  13.358  1.00  0.00    -0.023 A 
HETATM   10  C   LIG     1      16.552  32.231  13.286  1.00  0.00     0.036 A 
HETATM   11  C   LIG     1      15.766  31.885  14.391  1.00  0.00     0.034 A 
HETATM   12 CL   LIG     1      14.656  30.531  14.289  1.00  0.00    -0.084 Cl
HETATM   13  C   LIG     1      15.865  32.620  15.577  1.00  0.00     0.024 A 
HETATM   14  C   LIG     1      16.753  33.696  15.660  1.00  0.00     0.003 A 
HETATM   15  C   LIG     1      17.539  34.045  14.558  1.00  0.00     0.012 A 
ENDBRANCH   1   9
TORSDOF 1
ENDMDL
MODEL 19
REMARK VINA RESULT:      -5.7      2.814      5.711
REMARK  1 active torsions:
REMARK  status: ('A' for Active; 'I' for Inactive)
REMARK    1  A    between atoms: C_4  and  C_5 
ROOT
HETATM    1  C   LIG     1      16.742  35.476  20.268  1.00  0.00    -0.003 A 
HETATM    2  C   LIG     1      16.264  35.088  19.005  1.00  0.00     0.037 A 
HETATM    3  C   LIG     1      15.407  33.990  18.876  1.00  0.00     0.035 A 
HETATM    4 CL   LIG     1      14.812  33.523  17.294  1.00  0.00    -0.084 Cl
HETATM    5  C   LIG     1      15.025  33.267  20.008  1.00  0.00     0.025 A 
HETATM    6  C   LIG     1      15.502  33.635  21.268  1.00  0.00     0.026 A 
HETATM    7  C   LIG     1      16.360  34.733  21.408  1.00  0.00     0.045 A 
HETATM    8 CL   LIG     1      16.984  35.101  23.014  1.00  0.00    -0.083 Cl
ENDROOT
BRANCH   1   9
HETATM    9  C   LIG     1      17.636  36.651  20.370  1.00  0.00    -0.023 A 
HETATM   10  C   LIG     1      17.469  37.579  21.411  1.00  0.00     0.036 A 
HETATM   11  C   LIG     1      18.325  38.682  21.520  1.00  0.00     0.034 A 
HETATM   12 CL   LIG     1      18.101  39.841  22.816  1.00  0.00    -0.084 Cl
HETATM   13  C   LIG     1      19.358  38.858  20.594  1.00  0.00     0.024 A 
HETATM   14  C   LIG     1      19.539  37.932  19.564  1.00  0.00     0.003 A 
HETATM   15  C   LIG     1      18.686  36.830  19.452  1.00  0.00     0.012 A 
ENDBRANCH   1   9
TORSDOF 1
ENDMDL
MODEL 20
REMARK VINA RESULT:      -5.2     17.110     17.942
REMARK  1 active torsions:
REMARK  status: ('A' for Active; 'I' for Inactive)
REMARK    1  A    between atoms: C_4  and  C_5 
ROOT
HETATM    1  C   LIG     1       3.675  42.100  32.630  1.00  0.00    -0.003 A 
HETATM    2  C   LIG     1       4.053  41.935  33.974  1.00  0.00     0.037 A 
HETATM    3  C   LIG     1       4.109  40.658  34.543  1.00  0.00     0.035 A 
HETATM    4 CL   LIG     1       4.592  40.466  36.218  1.00  0.00    -0.084 Cl
HETATM    5  C   LIG     1       3.783  39.537  33.777  1.00  0.00     0.025 A 
HETATM    6  C   LIG     1       3.394  39.690  32.444  1.00  0.00     0.026 A 
HETATM    7  C   LIG     1       3.334  40.962  31.864  1.00  0.00     0.045 A 
HETATM    8 CL   LIG     1       2.768  41.093  30.201  1.00  0.00    -0.083 Cl
ENDROOT
BRANCH   1   9
HETATM    9  C   LIG     1       3.639  43.464  32.055  1.00  0.00    -0.023 A 
HETATM   10  C   LIG     1       3.178  43.666  30.744  1.00  0.00     0.036 A 
HETATM   11  C   LIG     1       3.126  44.957  30.204  1.00  0.00     0.034 A 
HETATM   12 CL   LIG     1       2.560  45.198  28.562  1.00  0.00    -0.084 Cl
HETATM   13  C   LIG     1       3.525  46.053  30.974  1.00  0.00     0.024 A 
HETATM   14  C   LIG     1       3.971  45.861  32.285  1.00  0.00     0.003 A 
HETATM   15  C   LIG     1       4.025  44.574  32.827  1.00  0.00     0.012 A 
ENDBRANCH   1   9
TORSDOF 1
ENDMDL
