MODEL 1
REMARK VINA RESULT:      -7.1      0.000      0.000
REMARK  1 active torsions:
REMARK  status: ('A' for Active; 'I' for Inactive)
REMARK    1  A    between atoms: C_5  and  C_6 
ROOT
HETATM    1  C   LIG     1      14.448  31.846  16.805  1.00  0.00    -0.003 A 
HETATM    2  C   LIG     1      13.174  31.261  16.899  1.00  0.00     0.014 A 
HETATM    3  C   LIG     1      12.695  30.437  15.880  1.00  0.00     0.003 A 
HETATM    4  C   LIG     1      13.479  30.191  14.752  1.00  0.00     0.026 A 
HETATM    5  C   LIG     1      14.744  30.773  14.633  1.00  0.00     0.056 A 
HETATM    6 CL   LIG     1      15.688  30.447  13.184  1.00  0.00    -0.083 Cl
HETATM    7  C   LIG     1      15.237  31.607  15.655  1.00  0.00     0.066 A 
HETATM    8 CL   LIG     1      16.806  32.394  15.456  1.00  0.00    -0.082 Cl
ENDROOT
BRANCH   1   9
HETATM    9  C   LIG     1      14.926  32.700  17.915  1.00  0.00    -0.024 A 
HETATM   10  C   LIG     1      15.175  32.150  19.183  1.00  0.00     0.014 A 
HETATM   11  C   LIG     1      15.609  32.965  20.233  1.00  0.00     0.024 A 
HETATM   12  C   LIG     1      15.791  34.337  20.027  1.00  0.00     0.034 A 
HETATM   13 CL   LIG     1      16.335  35.357  21.345  1.00  0.00    -0.084 Cl
HETATM   14  C   LIG     1      15.533  34.893  18.770  1.00  0.00     0.024 A 
HETATM   15  C   LIG     1      15.098  34.080  17.719  1.00  0.00     0.014 A 
ENDBRANCH   1   9
TORSDOF 1
ENDMDL
MODEL 2
REMARK VINA RESULT:      -6.7      1.623      2.485
REMARK  1 active torsions:
REMARK  status: ('A' for Active; 'I' for Inactive)
REMARK    1  A    between atoms: C_5  and  C_6 
ROOT
HETATM    1  C   LIG     1      15.256  32.087  16.164  1.00  0.00    -0.003 A 
HETATM    2  C   LIG     1      16.195  32.445  15.182  1.00  0.00     0.014 A 
HETATM    3  C   LIG     1      16.180  31.832  13.929  1.00  0.00     0.003 A 
HETATM    4  C   LIG     1      15.231  30.851  13.642  1.00  0.00     0.026 A 
HETATM    5  C   LIG     1      14.295  30.470  14.609  1.00  0.00     0.056 A 
HETATM    6 CL   LIG     1      13.130  29.215  14.205  1.00  0.00    -0.083 Cl
HETATM    7  C   LIG     1      14.303  31.082  15.877  1.00  0.00     0.066 A 
HETATM    8 CL   LIG     1      13.162  30.539  17.112  1.00  0.00    -0.082 Cl
ENDROOT
BRANCH   1   9
HETATM    9  C   LIG     1      15.295  32.773  17.474  1.00  0.00    -0.024 A 
HETATM   10  C   LIG     1      15.278  34.176  17.547  1.00  0.00     0.014 A 
HETATM   11  C   LIG     1      15.333  34.819  18.788  1.00  0.00     0.024 A 
HETATM   12  C   LIG     1      15.414  34.067  19.965  1.00  0.00     0.034 A 
HETATM   13 CL   LIG     1      15.484  34.875  21.519  1.00  0.00    -0.084 Cl
HETATM   14  C   LIG     1      15.444  32.670  19.899  1.00  0.00     0.024 A 
HETATM   15  C   LIG     1      15.389  32.025  18.660  1.00  0.00     0.014 A 
ENDBRANCH   1   9
TORSDOF 1
ENDMDL
MODEL 3
REMARK VINA RESULT:      -6.6      3.046      7.294
REMARK  1 active torsions:
REMARK  status: ('A' for Active; 'I' for Inactive)
REMARK    1  A    between atoms: C_5  and  C_6 
ROOT
HETATM    1  C   LIG     1      16.394  36.214  21.073  1.00  0.00    -0.003 A 
HETATM    2  C   LIG     1      15.645  36.562  22.209  1.00  0.00     0.014 A 
HETATM    3  C   LIG     1      16.017  37.650  22.998  1.00  0.00     0.003 A 
HETATM    4  C   LIG     1      17.144  38.402  22.668  1.00  0.00     0.026 A 
HETATM    5  C   LIG     1      17.912  38.065  21.548  1.00  0.00     0.056 A 
HETATM    6 CL   LIG     1      19.336  39.033  21.182  1.00  0.00    -0.083 Cl
HETATM    7  C   LIG     1      17.546  36.968  20.745  1.00  0.00     0.066 A 
HETATM    8 CL   LIG     1      18.567  36.512  19.377  1.00  0.00    -0.082 Cl
ENDROOT
BRANCH   1   9
HETATM    9  C   LIG     1      15.957  35.064  20.251  1.00  0.00    -0.024 A 
HETATM   10  C   LIG     1      15.656  35.232  18.889  1.00  0.00     0.014 A 
HETATM   11  C   LIG     1      15.225  34.145  18.122  1.00  0.00     0.024 A 
HETATM   12  C   LIG     1      15.083  32.884  18.710  1.00  0.00     0.034 A 
HETATM   13 CL   LIG     1      14.542  31.523  17.747  1.00  0.00    -0.084 Cl
HETATM   14  C   LIG     1      15.368  32.712  20.069  1.00  0.00     0.024 A 
HETATM   15  C   LIG     1      15.799  33.797  20.838  1.00  0.00     0.014 A 
ENDBRANCH   1   9
TORSDOF 1
ENDMDL
MODEL 4
REMARK VINA RESULT:      -6.3      6.963      8.954
REMARK  1 active torsions:
REMARK  status: ('A' for Active; 'I' for Inactive)
REMARK    1  A    between atoms: C_5  and  C_6 
ROOT
HETATM    1  C   LIG     1      17.739  36.838  22.174  1.00  0.00    -0.003 A 
HETATM    2  C   LIG     1      17.175  35.555  22.078  1.00  0.00     0.014 A 
HETATM    3  C   LIG     1      16.749  34.879  23.221  1.00  0.00     0.003 A 
HETATM    4  C   LIG     1      16.886  35.473  24.476  1.00  0.00     0.026 A 
HETATM    5  C   LIG     1      17.456  36.744  24.596  1.00  0.00     0.056 A 
HETATM    6 CL   LIG     1      17.624  37.444  26.202  1.00  0.00    -0.083 Cl
HETATM    7  C   LIG     1      17.890  37.434  23.448  1.00  0.00     0.066 A 
HETATM    8 CL   LIG     1      18.675  39.007  23.623  1.00  0.00    -0.082 Cl
ENDROOT
BRANCH   1   9
HETATM    9  C   LIG     1      18.161  37.528  20.935  1.00  0.00    -0.024 A 
HETATM   10  C   LIG     1      18.282  38.927  20.903  1.00  0.00     0.014 A 
HETATM   11  C   LIG     1      18.664  39.576  19.725  1.00  0.00     0.024 A 
HETATM   12  C   LIG     1      18.920  38.834  18.567  1.00  0.00     0.034 A 
HETATM   13 CL   LIG     1      19.398  39.649  17.090  1.00  0.00    -0.084 Cl
HETATM   14  C   LIG     1      18.789  37.441  18.588  1.00  0.00     0.024 A 
HETATM   15  C   LIG     1      18.407  36.791  19.765  1.00  0.00     0.014 A 
ENDBRANCH   1   9
TORSDOF 1
ENDMDL
MODEL 5
REMARK VINA RESULT:      -6.2      2.728      6.573
REMARK  1 active torsions:
REMARK  status: ('A' for Active; 'I' for Inactive)
REMARK    1  A    between atoms: C_5  and  C_6 
ROOT
HETATM    1  C   LIG     1      15.036  30.960  14.724  1.00  0.00    -0.003 A 
HETATM    2  C   LIG     1      15.953  31.563  13.847  1.00  0.00     0.014 A 
HETATM    3  C   LIG     1      16.644  32.714  14.225  1.00  0.00     0.003 A 
HETATM    4  C   LIG     1      16.425  33.281  15.481  1.00  0.00     0.026 A 
HETATM    5  C   LIG     1      15.508  32.705  16.365  1.00  0.00     0.056 A 
HETATM    6 CL   LIG     1      15.253  33.466  17.930  1.00  0.00    -0.083 Cl
HETATM    7  C   LIG     1      14.804  31.543  15.992  1.00  0.00     0.066 A 
HETATM    8 CL   LIG     1      13.595  30.869  17.091  1.00  0.00    -0.082 Cl
ENDROOT
BRANCH   1   9
HETATM    9  C   LIG     1      14.336  29.730  14.293  1.00  0.00    -0.024 A 
HETATM   10  C   LIG     1      15.063  28.603  13.877  1.00  0.00     0.014 A 
HETATM   11  C   LIG     1      14.396  27.449  13.452  1.00  0.00     0.024 A 
HETATM   12  C   LIG     1      12.998  27.415  13.432  1.00  0.00     0.034 A 
HETATM   13 CL   LIG     1      12.163  25.969  12.898  1.00  0.00    -0.084 Cl
HETATM   14  C   LIG     1      12.267  28.539  13.833  1.00  0.00     0.024 A 
HETATM   15  C   LIG     1      12.932  29.693  14.257  1.00  0.00     0.014 A 
ENDBRANCH   1   9
TORSDOF 1
ENDMDL
MODEL 6
REMARK VINA RESULT:      -5.9      2.400      6.387
REMARK  1 active torsions:
REMARK  status: ('A' for Active; 'I' for Inactive)
REMARK    1  A    between atoms: C_5  and  C_6 
ROOT
HETATM    1  C   LIG     1      14.343  30.759  15.388  1.00  0.00    -0.003 A 
HETATM    2  C   LIG     1      13.806  30.959  16.670  1.00  0.00     0.014 A 
HETATM    3  C   LIG     1      14.202  32.050  17.443  1.00  0.00     0.003 A 
HETATM    4  C   LIG     1      15.143  32.953  16.949  1.00  0.00     0.026 A 
HETATM    5  C   LIG     1      15.701  32.766  15.680  1.00  0.00     0.056 A 
HETATM    6 CL   LIG     1      16.897  33.922  15.108  1.00  0.00    -0.083 Cl
HETATM    7  C   LIG     1      15.309  31.667  14.892  1.00  0.00     0.066 A 
HETATM    8 CL   LIG     1      16.076  31.404  13.322  1.00  0.00    -0.082 Cl
ENDROOT
BRANCH   1   9
HETATM    9  C   LIG     1      13.884  29.599  14.592  1.00  0.00    -0.024 A 
HETATM   10  C   LIG     1      12.522  29.429  14.297  1.00  0.00     0.014 A 
HETATM   11  C   LIG     1      12.091  28.321  13.561  1.00  0.00     0.024 A 
HETATM   12  C   LIG     1      13.017  27.370  13.120  1.00  0.00     0.034 A 
HETATM   13 CL   LIG     1      12.476  25.980  12.197  1.00  0.00    -0.084 Cl
HETATM   14  C   LIG     1      14.375  27.526  13.421  1.00  0.00     0.024 A 
HETATM   15  C   LIG     1      14.807  28.633  14.157  1.00  0.00     0.014 A 
ENDBRANCH   1   9
TORSDOF 1
ENDMDL
MODEL 7
REMARK VINA RESULT:      -5.8      3.906      8.442
REMARK  1 active torsions:
REMARK  status: ('A' for Active; 'I' for Inactive)
REMARK    1  A    between atoms: C_5  and  C_6 
ROOT
HETATM    1  C   LIG     1      16.839  36.573  22.371  1.00  0.00    -0.003 A 
HETATM    2  C   LIG     1      16.991  37.883  21.887  1.00  0.00     0.014 A 
HETATM    3  C   LIG     1      17.535  38.880  22.697  1.00  0.00     0.003 A 
HETATM    4  C   LIG     1      17.931  38.583  24.001  1.00  0.00     0.026 A 
HETATM    5  C   LIG     1      17.777  37.289  24.507  1.00  0.00     0.056 A 
HETATM    6 CL   LIG     1      18.273  36.968  26.165  1.00  0.00    -0.083 Cl
HETATM    7  C   LIG     1      17.227  36.276  23.698  1.00  0.00     0.066 A 
HETATM    8 CL   LIG     1      16.972  34.664  24.376  1.00  0.00    -0.082 Cl
ENDROOT
BRANCH   1   9
HETATM    9  C   LIG     1      16.274  35.540  21.475  1.00  0.00    -0.024 A 
HETATM   10  C   LIG     1      15.595  34.430  22.003  1.00  0.00     0.014 A 
HETATM   11  C   LIG     1      15.079  33.447  21.153  1.00  0.00     0.024 A 
HETATM   12  C   LIG     1      15.244  33.561  19.768  1.00  0.00     0.034 A 
HETATM   13 CL   LIG     1      14.597  32.327  18.703  1.00  0.00    -0.084 Cl
HETATM   14  C   LIG     1      15.930  34.658  19.236  1.00  0.00     0.024 A 
HETATM   15  C   LIG     1      16.447  35.641  20.084  1.00  0.00     0.014 A 
ENDBRANCH   1   9
TORSDOF 1
ENDMDL
MODEL 8
REMARK VINA RESULT:      -5.8      2.483      7.004
REMARK  1 active torsions:
REMARK  status: ('A' for Active; 'I' for Inactive)
REMARK    1  A    between atoms: C_5  and  C_6 
ROOT
HETATM    1  C   LIG     1      16.497  35.592  20.149  1.00  0.00    -0.003 A 
HETATM    2  C   LIG     1      17.721  36.101  19.684  1.00  0.00     0.014 A 
HETATM    3  C   LIG     1      18.366  37.132  20.367  1.00  0.00     0.003 A 
HETATM    4  C   LIG     1      17.795  37.673  21.520  1.00  0.00     0.026 A 
HETATM    5  C   LIG     1      16.571  37.190  21.993  1.00  0.00     0.056 A 
HETATM    6 CL   LIG     1      15.883  37.915  23.441  1.00  0.00    -0.083 Cl
HETATM    7  C   LIG     1      15.911  36.150  21.310  1.00  0.00     0.066 A 
HETATM    8 CL   LIG     1      14.331  35.601  21.879  1.00  0.00    -0.082 Cl
ENDROOT
BRANCH   1   9
HETATM    9  C   LIG     1      15.853  34.486  19.407  1.00  0.00    -0.024 A 
HETATM   10  C   LIG     1      15.633  33.244  20.024  1.00  0.00     0.014 A 
HETATM   11  C   LIG     1      15.042  32.196  19.312  1.00  0.00     0.024 A 
HETATM   12  C   LIG     1      14.672  32.378  17.975  1.00  0.00     0.034 A 
HETATM   13 CL   LIG     1      13.931  31.063  17.083  1.00  0.00    -0.084 Cl
HETATM   14  C   LIG     1      14.900  33.608  17.350  1.00  0.00     0.024 A 
HETATM   15  C   LIG     1      15.492  34.657  18.060  1.00  0.00     0.014 A 
ENDBRANCH   1   9
TORSDOF 1
ENDMDL
MODEL 9
REMARK VINA RESULT:      -5.7      2.498      3.901
REMARK  1 active torsions:
REMARK  status: ('A' for Active; 'I' for Inactive)
REMARK    1  A    between atoms: C_5  and  C_6 
ROOT
HETATM    1  C   LIG     1      15.316  33.607  19.991  1.00  0.00    -0.003 A 
HETATM    2  C   LIG     1      15.019  32.482  20.778  1.00  0.00     0.014 A 
HETATM    3  C   LIG     1      14.651  31.277  20.181  1.00  0.00     0.003 A 
HETATM    4  C   LIG     1      14.568  31.179  18.792  1.00  0.00     0.026 A 
HETATM    5  C   LIG     1      14.847  32.290  17.991  1.00  0.00     0.056 A 
HETATM    6 CL   LIG     1      14.712  32.123  16.244  1.00  0.00    -0.083 Cl
HETATM    7  C   LIG     1      15.219  33.512  18.583  1.00  0.00     0.066 A 
HETATM    8 CL   LIG     1      15.497  34.926  17.560  1.00  0.00    -0.082 Cl
ENDROOT
BRANCH   1   9
HETATM    9  C   LIG     1      15.720  34.863  20.661  1.00  0.00    -0.024 A 
HETATM   10  C   LIG     1      17.060  35.283  20.643  1.00  0.00     0.014 A 
HETATM   11  C   LIG     1      17.440  36.461  21.294  1.00  0.00     0.024 A 
HETATM   12  C   LIG     1      16.486  37.225  21.975  1.00  0.00     0.034 A 
HETATM   13 CL   LIG     1      16.964  38.701  22.791  1.00  0.00    -0.084 Cl
HETATM   14  C   LIG     1      15.152  36.805  22.008  1.00  0.00     0.024 A 
HETATM   15  C   LIG     1      14.770  35.628  21.358  1.00  0.00     0.014 A 
ENDBRANCH   1   9
TORSDOF 1
ENDMDL
MODEL 10
REMARK VINA RESULT:      -5.3      2.683      4.211
REMARK  1 active torsions:
REMARK  status: ('A' for Active; 'I' for Inactive)
REMARK    1  A    between atoms: C_5  and  C_6 
ROOT
HETATM    1  C   LIG     1      14.518  29.410  14.472  1.00  0.00    -0.003 A 
HETATM    2  C   LIG     1      15.660  28.670  14.123  1.00  0.00     0.014 A 
HETATM    3  C   LIG     1      15.540  27.475  13.413  1.00  0.00     0.003 A 
HETATM    4  C   LIG     1      14.280  27.001  13.047  1.00  0.00     0.026 A 
HETATM    5  C   LIG     1      13.130  27.716  13.396  1.00  0.00     0.056 A 
HETATM    6 CL   LIG     1      11.562  27.069  12.927  1.00  0.00    -0.083 Cl
HETATM    7  C   LIG     1      13.240  28.923  14.113  1.00  0.00     0.066 A 
HETATM    8 CL   LIG     1      11.774  29.776  14.609  1.00  0.00    -0.082 Cl
ENDROOT
BRANCH   1   9
HETATM    9  C   LIG     1      14.688  30.681  15.210  1.00  0.00    -0.024 A 
HETATM   10  C   LIG     1      15.668  31.609  14.820  1.00  0.00     0.014 A 
HETATM   11  C   LIG     1      15.836  32.800  15.532  1.00  0.00     0.024 A 
HETATM   12  C   LIG     1      15.033  33.071  16.645  1.00  0.00     0.034 A 
HETATM   13 CL   LIG     1      15.247  34.565  17.538  1.00  0.00    -0.084 Cl
HETATM   14  C   LIG     1      14.064  32.146  17.048  1.00  0.00     0.024 A 
HETATM   15  C   LIG     1      13.894  30.955  16.337  1.00  0.00     0.014 A 
ENDBRANCH   1   9
TORSDOF 1
ENDMDL
MODEL 11
REMARK VINA RESULT:      -5.2      4.619      6.603
REMARK  1 active torsions:
REMARK  status: ('A' for Active; 'I' for Inactive)
REMARK    1  A    between atoms: C_5  and  C_6 
ROOT
HETATM    1  C   LIG     1      17.105  33.017  13.747  1.00  0.00    -0.003 A 
HETATM    2  C   LIG     1      16.538  31.776  13.414  1.00  0.00     0.014 A 
HETATM    3  C   LIG     1      15.569  31.196  14.232  1.00  0.00     0.003 A 
HETATM    4  C   LIG     1      15.157  31.844  15.397  1.00  0.00     0.026 A 
HETATM    5  C   LIG     1      15.718  33.074  15.754  1.00  0.00     0.056 A 
HETATM    6 CL   LIG     1      15.178  33.844  17.242  1.00  0.00    -0.083 Cl
HETATM    7  C   LIG     1      16.698  33.667  14.936  1.00  0.00     0.066 A 
HETATM    8 CL   LIG     1      17.449  35.185  15.439  1.00  0.00    -0.082 Cl
ENDROOT
BRANCH   1   9
HETATM    9  C   LIG     1      18.118  33.607  12.844  1.00  0.00    -0.024 A 
HETATM   10  C   LIG     1      19.488  33.412  13.083  1.00  0.00     0.014 A 
HETATM   11  C   LIG     1      20.441  33.988  12.237  1.00  0.00     0.024 A 
HETATM   12  C   LIG     1      20.033  34.769  11.151  1.00  0.00     0.034 A 
HETATM   13 CL   LIG     1      21.230  35.492  10.091  1.00  0.00    -0.084 Cl
HETATM   14  C   LIG     1      18.670  34.979  10.915  1.00  0.00     0.024 A 
HETATM   15  C   LIG     1      17.716  34.404  11.760  1.00  0.00     0.014 A 
ENDBRANCH   1   9
TORSDOF 1
ENDMDL
MODEL 12
REMARK VINA RESULT:      -5.1      3.252      4.934
REMARK  1 active torsions:
REMARK  status: ('A' for Active; 'I' for Inactive)
REMARK    1  A    between atoms: C_5  and  C_6 
ROOT
HETATM    1  C   LIG     1      15.458  31.478  14.562  1.00  0.00    -0.003 A 
HETATM    2  C   LIG     1      15.147  30.270  13.915  1.00  0.00     0.014 A 
HETATM    3  C   LIG     1      14.002  29.554  14.261  1.00  0.00     0.003 A 
HETATM    4  C   LIG     1      13.153  30.031  15.261  1.00  0.00     0.026 A 
HETATM    5  C   LIG     1      13.450  31.224  15.927  1.00  0.00     0.056 A 
HETATM    6 CL   LIG     1      12.360  31.776  17.193  1.00  0.00    -0.083 Cl
HETATM    7  C   LIG     1      14.605  31.954  15.586  1.00  0.00     0.066 A 
HETATM    8 CL   LIG     1      15.005  33.421  16.486  1.00  0.00    -0.082 Cl
ENDROOT
BRANCH   1   9
HETATM    9  C   LIG     1      16.673  32.216  14.154  1.00  0.00    -0.024 A 
HETATM   10  C   LIG     1      17.685  32.497  15.087  1.00  0.00     0.014 A 
HETATM   11  C   LIG     1      18.823  33.212  14.700  1.00  0.00     0.024 A 
HETATM   12  C   LIG     1      18.956  33.659  13.381  1.00  0.00     0.034 A 
HETATM   13 CL   LIG     1      20.383  34.556  12.898  1.00  0.00    -0.084 Cl
HETATM   14  C   LIG     1      17.946  33.394  12.450  1.00  0.00     0.024 A 
HETATM   15  C   LIG     1      16.808  32.680  12.835  1.00  0.00     0.014 A 
ENDBRANCH   1   9
TORSDOF 1
ENDMDL
MODEL 13
REMARK VINA RESULT:      -5.0      2.583      4.075
REMARK  1 active torsions:
REMARK  status: ('A' for Active; 'I' for Inactive)
REMARK    1  A    between atoms: C_5  and  C_6 
ROOT
HETATM    1  C   LIG     1      15.397  34.161  19.166  1.00  0.00    -0.003 A 
HETATM    2  C   LIG     1      15.640  34.817  17.948  1.00  0.00     0.014 A 
HETATM    3  C   LIG     1      15.339  34.198  16.736  1.00  0.00     0.003 A 
HETATM    4  C   LIG     1      14.795  32.913  16.722  1.00  0.00     0.026 A 
HETATM    5  C   LIG     1      14.557  32.236  17.922  1.00  0.00     0.056 A 
HETATM    6 CL   LIG     1      13.887  30.611  17.853  1.00  0.00    -0.083 Cl
HETATM    7  C   LIG     1      14.859  32.852  19.152  1.00  0.00     0.066 A 
HETATM    8 CL   LIG     1      14.620  31.956  20.656  1.00  0.00    -0.082 Cl
ENDROOT
BRANCH   1   9
HETATM    9  C   LIG     1      15.714  34.859  20.431  1.00  0.00    -0.024 A 
HETATM   10  C   LIG     1      14.842  35.830  20.950  1.00  0.00     0.014 A 
HETATM   11  C   LIG     1      15.156  36.500  22.137  1.00  0.00     0.024 A 
HETATM   12  C   LIG     1      16.348  36.211  22.811  1.00  0.00     0.034 A 
HETATM   13 CL   LIG     1      16.740  37.053  24.298  1.00  0.00    -0.084 Cl
HETATM   14  C   LIG     1      17.227  35.254  22.293  1.00  0.00     0.024 A 
HETATM   15  C   LIG     1      16.915  34.584  21.107  1.00  0.00     0.014 A 
ENDBRANCH   1   9
TORSDOF 1
ENDMDL
MODEL 14
REMARK VINA RESULT:      -5.0      4.279      7.839
REMARK  1 active torsions:
REMARK  status: ('A' for Active; 'I' for Inactive)
REMARK    1  A    between atoms: C_5  and  C_6 
ROOT
HETATM    1  C   LIG     1      17.851  36.841  20.406  1.00  0.00    -0.003 A 
HETATM    2  C   LIG     1      18.851  36.870  19.421  1.00  0.00     0.014 A 
HETATM    3  C   LIG     1      19.738  37.944  19.342  1.00  0.00     0.003 A 
HETATM    4  C   LIG     1      19.635  39.005  20.241  1.00  0.00     0.026 A 
HETATM    5  C   LIG     1      18.638  39.003  21.222  1.00  0.00     0.056 A 
HETATM    6 CL   LIG     1      18.537  40.372  22.322  1.00  0.00    -0.083 Cl
HETATM    7  C   LIG     1      17.737  37.924  21.310  1.00  0.00     0.066 A 
HETATM    8 CL   LIG     1      16.439  37.971  22.507  1.00  0.00    -0.082 Cl
ENDROOT
BRANCH   1   9
HETATM    9  C   LIG     1      16.940  35.676  20.469  1.00  0.00    -0.024 A 
HETATM   10  C   LIG     1      16.745  34.986  21.676  1.00  0.00     0.014 A 
HETATM   11  C   LIG     1      15.898  33.875  21.725  1.00  0.00     0.024 A 
HETATM   12  C   LIG     1      15.246  33.438  20.566  1.00  0.00     0.034 A 
HETATM   13 CL   LIG     1      14.185  32.043  20.629  1.00  0.00    -0.084 Cl
HETATM   14  C   LIG     1      15.446  34.113  19.357  1.00  0.00     0.024 A 
HETATM   15  C   LIG     1      16.293  35.224  19.307  1.00  0.00     0.014 A 
ENDBRANCH   1   9
TORSDOF 1
ENDMDL
MODEL 15
REMARK VINA RESULT:      -5.0     13.906     14.642
REMARK  1 active torsions:
REMARK  status: ('A' for Active; 'I' for Inactive)
REMARK    1  A    between atoms: C_5  and  C_6 
ROOT
HETATM    1  C   LIG     1      25.119  23.002  19.147  1.00  0.00    -0.003 A 
HETATM    2  C   LIG     1      24.317  22.528  18.096  1.00  0.00     0.014 A 
HETATM    3  C   LIG     1      23.253  21.663  18.349  1.00  0.00     0.003 A 
HETATM    4  C   LIG     1      22.978  21.255  19.655  1.00  0.00     0.026 A 
HETATM    5  C   LIG     1      23.772  21.704  20.715  1.00  0.00     0.056 A 
HETATM    6 CL   LIG     1      23.397  21.148  22.342  1.00  0.00    -0.083 Cl
HETATM    7  C   LIG     1      24.849  22.577  20.470  1.00  0.00     0.066 A 
HETATM    8 CL   LIG     1      25.886  23.077  21.810  1.00  0.00    -0.082 Cl
ENDROOT
BRANCH   1   9
HETATM    9  C   LIG     1      26.227  23.932  18.839  1.00  0.00    -0.024 A 
HETATM   10  C   LIG     1      26.204  25.254  19.314  1.00  0.00     0.014 A 
HETATM   11  C   LIG     1      27.245  26.135  19.004  1.00  0.00     0.024 A 
HETATM   12  C   LIG     1      28.314  25.705  18.211  1.00  0.00     0.034 A 
HETATM   13 CL   LIG     1      29.618  26.811  17.822  1.00  0.00    -0.084 Cl
HETATM   14  C   LIG     1      28.338  24.394  17.723  1.00  0.00     0.024 A 
HETATM   15  C   LIG     1      27.298  23.512  18.032  1.00  0.00     0.014 A 
ENDBRANCH   1   9
TORSDOF 1
ENDMDL
MODEL 16
REMARK VINA RESULT:      -4.8      1.827      5.907
REMARK  1 active torsions:
REMARK  status: ('A' for Active; 'I' for Inactive)
REMARK    1  A    between atoms: C_5  and  C_6 
ROOT
HETATM    1  C   LIG     1      14.814  32.559  17.032  1.00  0.00    -0.003 A 
HETATM    2  C   LIG     1      15.151  33.773  16.411  1.00  0.00     0.014 A 
HETATM    3  C   LIG     1      15.596  34.857  17.168  1.00  0.00     0.003 A 
HETATM    4  C   LIG     1      15.704  34.746  18.554  1.00  0.00     0.026 A 
HETATM    5  C   LIG     1      15.361  33.551  19.194  1.00  0.00     0.056 A 
HETATM    6 CL   LIG     1      15.497  33.465  20.946  1.00  0.00    -0.083 Cl
HETATM    7  C   LIG     1      14.910  32.451  18.440  1.00  0.00     0.066 A 
HETATM    8 CL   LIG     1      14.411  30.973  19.269  1.00  0.00    -0.082 Cl
ENDROOT
BRANCH   1   9
HETATM    9  C   LIG     1      14.363  31.427  16.193  1.00  0.00    -0.024 A 
HETATM   10  C   LIG     1      15.235  30.834  15.265  1.00  0.00     0.014 A 
HETATM   11  C   LIG     1      14.798  29.777  14.461  1.00  0.00     0.024 A 
HETATM   12  C   LIG     1      13.485  29.308  14.572  1.00  0.00     0.034 A 
HETATM   13 CL   LIG     1      12.938  27.983  13.562  1.00  0.00    -0.084 Cl
HETATM   14  C   LIG     1      12.607  29.902  15.485  1.00  0.00     0.024 A 
HETATM   15  C   LIG     1      13.042  30.960  16.289  1.00  0.00     0.014 A 
ENDBRANCH   1   9
TORSDOF 1
ENDMDL
MODEL 17
REMARK VINA RESULT:      -4.6     19.753     22.257
REMARK  1 active torsions:
REMARK  status: ('A' for Active; 'I' for Inactive)
REMARK    1  A    between atoms: C_5  and  C_6 
ROOT
HETATM    1  C   LIG     1      27.239  29.709  34.941  1.00  0.00    -0.003 A 
HETATM    2  C   LIG     1      26.099  30.500  35.157  1.00  0.00     0.014 A 
HETATM    3  C   LIG     1      26.029  31.360  36.253  1.00  0.00     0.003 A 
HETATM    4  C   LIG     1      27.095  31.438  37.150  1.00  0.00     0.026 A 
HETATM    5  C   LIG     1      28.234  30.650  36.961  1.00  0.00     0.056 A 
HETATM    6 CL   LIG     1      29.545  30.771  38.129  1.00  0.00    -0.083 Cl
HETATM    7  C   LIG     1      28.314  29.778  35.859  1.00  0.00     0.066 A 
HETATM    8 CL   LIG     1      29.729  28.736  35.674  1.00  0.00    -0.082 Cl
ENDROOT
BRANCH   1   9
HETATM    9  C   LIG     1      27.281  28.822  33.757  1.00  0.00    -0.024 A 
HETATM   10  C   LIG     1      26.359  27.772  33.619  1.00  0.00     0.014 A 
HETATM   11  C   LIG     1      26.415  26.925  32.507  1.00  0.00     0.024 A 
HETATM   12  C   LIG     1      27.398  27.115  31.529  1.00  0.00     0.034 A 
HETATM   13 CL   LIG     1      27.467  26.052  30.137  1.00  0.00    -0.084 Cl
HETATM   14  C   LIG     1      28.327  28.152  31.668  1.00  0.00     0.024 A 
HETATM   15  C   LIG     1      28.273  28.999  32.778  1.00  0.00     0.014 A 
ENDBRANCH   1   9
TORSDOF 1
ENDMDL
MODEL 18
REMARK VINA RESULT:      -4.6     14.041     15.055
REMARK  1 active torsions:
REMARK  status: ('A' for Active; 'I' for Inactive)
REMARK    1  A    between atoms: C_5  and  C_6 
ROOT
HETATM    1  C   LIG     1      24.968  22.980  20.679  1.00  0.00    -0.003 A 
HETATM    2  C   LIG     1      23.740  22.518  20.176  1.00  0.00     0.014 A 
HETATM    3  C   LIG     1      22.810  21.912  21.021  1.00  0.00     0.003 A 
HETATM    4  C   LIG     1      23.094  21.755  22.377  1.00  0.00     0.026 A 
HETATM    5  C   LIG     1      24.315  22.196  22.897  1.00  0.00     0.056 A 
HETATM    6 CL   LIG     1      24.635  21.959  24.611  1.00  0.00    -0.083 Cl
HETATM    7  C   LIG     1      25.262  22.807  22.053  1.00  0.00     0.066 A 
HETATM    8 CL   LIG     1      26.828  23.293  22.710  1.00  0.00    -0.082 Cl
ENDROOT
BRANCH   1   9
HETATM    9  C   LIG     1      25.920  23.632  19.755  1.00  0.00    -0.024 A 
HETATM   10  C   LIG     1      26.076  25.028  19.757  1.00  0.00     0.014 A 
HETATM   11  C   LIG     1      26.964  25.641  18.867  1.00  0.00     0.024 A 
HETATM   12  C   LIG     1      27.698  24.866  17.964  1.00  0.00     0.034 A 
HETATM   13 CL   LIG     1      28.811  25.636  16.849  1.00  0.00    -0.084 Cl
HETATM   14  C   LIG     1      27.539  23.476  17.947  1.00  0.00     0.024 A 
HETATM   15  C   LIG     1      26.651  22.862  18.835  1.00  0.00     0.014 A 
ENDBRANCH   1   9
TORSDOF 1
ENDMDL
MODEL 19
REMARK VINA RESULT:      -4.6     19.102     21.843
REMARK  1 active torsions:
REMARK  status: ('A' for Active; 'I' for Inactive)
REMARK    1  A    between atoms: C_5  and  C_6 
ROOT
HETATM    1  C   LIG     1      27.200  28.537  34.308  1.00  0.00    -0.003 A 
HETATM    2  C   LIG     1      26.518  29.747  34.518  1.00  0.00     0.014 A 
HETATM    3  C   LIG     1      26.177  30.155  35.807  1.00  0.00     0.003 A 
HETATM    4  C   LIG     1      26.508  29.359  36.904  1.00  0.00     0.026 A 
HETATM    5  C   LIG     1      27.175  28.144  36.717  1.00  0.00     0.056 A 
HETATM    6 CL   LIG     1      27.555  27.166  38.129  1.00  0.00    -0.083 Cl
HETATM    7  C   LIG     1      27.523  27.723  35.419  1.00  0.00     0.066 A 
HETATM    8 CL   LIG     1      28.300  26.152  35.193  1.00  0.00    -0.082 Cl
ENDROOT
BRANCH   1   9
HETATM    9  C   LIG     1      27.559  28.148  32.926  1.00  0.00    -0.024 A 
HETATM   10  C   LIG     1      28.735  28.633  32.330  1.00  0.00     0.014 A 
HETATM   11  C   LIG     1      29.060  28.277  31.018  1.00  0.00     0.024 A 
HETATM   12  C   LIG     1      28.209  27.440  30.287  1.00  0.00     0.034 A 
HETATM   13 CL   LIG     1      28.617  26.996  28.640  1.00  0.00    -0.084 Cl
HETATM   14  C   LIG     1      27.029  26.965  30.870  1.00  0.00     0.024 A 
HETATM   15  C   LIG     1      26.703  27.320  32.182  1.00  0.00     0.014 A 
ENDBRANCH   1   9
TORSDOF 1
ENDMDL
MODEL 20
REMARK VINA RESULT:      -4.4     18.578     20.807
REMARK  1 active torsions:
REMARK  status: ('A' for Active; 'I' for Inactive)
REMARK    1  A    between atoms: C_5  and  C_6 
ROOT
HETATM    1  C   LIG     1      27.541  28.000  32.525  1.00  0.00    -0.003 A 
HETATM    2  C   LIG     1      26.490  28.042  33.456  1.00  0.00     0.014 A 
HETATM    3  C   LIG     1      26.438  29.046  34.423  1.00  0.00     0.003 A 
HETATM    4  C   LIG     1      27.437  30.019  34.476  1.00  0.00     0.026 A 
HETATM    5  C   LIG     1      28.499  29.988  33.567  1.00  0.00     0.056 A 
HETATM    6 CL   LIG     1      29.744  31.226  33.685  1.00  0.00    -0.083 Cl
HETATM    7  C   LIG     1      28.561  28.978  32.588  1.00  0.00     0.066 A 
HETATM    8 CL   LIG     1      29.947  28.911  31.495  1.00  0.00    -0.082 Cl
ENDROOT
BRANCH   1   9
HETATM    9  C   LIG     1      27.551  26.928  31.505  1.00  0.00    -0.024 A 
HETATM   10  C   LIG     1      27.175  27.201  30.179  1.00  0.00     0.014 A 
HETATM   11  C   LIG     1      27.168  26.180  29.224  1.00  0.00     0.024 A 
HETATM   12  C   LIG     1      27.529  24.878  29.586  1.00  0.00     0.034 A 
HETATM   13 CL   LIG     1      27.519  23.599  28.386  1.00  0.00    -0.084 Cl
HETATM   14  C   LIG     1      27.892  24.597  30.907  1.00  0.00     0.024 A 
HETATM   15  C   LIG     1      27.899  25.615  31.864  1.00  0.00     0.014 A 
ENDBRANCH   1   9
TORSDOF 1
ENDMDL
