MODEL 1
REMARK VINA RESULT:      -5.7      0.000      0.000
REMARK  1 active torsions:
REMARK  status: ('A' for Active; 'I' for Inactive)
REMARK    1  A    between atoms: C_8  and  C_9 
ROOT
HETATM    1 CL   LIG     1      14.973  34.285  16.715  1.00  0.00    -0.082 Cl
HETATM    2  C   LIG     1      14.950  33.248  18.143  1.00  0.00     0.066 A 
HETATM    3  C   LIG     1      15.301  33.775  19.401  1.00  0.00     0.056 A 
HETATM    4 CL   LIG     1      15.738  35.468  19.593  1.00  0.00    -0.083 Cl
HETATM    5  C   LIG     1      15.310  32.948  20.529  1.00  0.00     0.026 A 
HETATM    6  C   LIG     1      14.977  31.597  20.414  1.00  0.00     0.003 A 
HETATM    7  C   LIG     1      14.626  31.066  19.171  1.00  0.00     0.014 A 
HETATM    8  C   LIG     1      14.602  31.884  18.033  1.00  0.00    -0.001 A 
ENDROOT
BRANCH   8   9
HETATM    9  C   LIG     1      14.222  31.293  16.734  1.00  0.00    -0.001 A 
HETATM   10  C   LIG     1      12.933  30.764  16.578  1.00  0.00     0.014 A 
HETATM   11  C   LIG     1      12.545  30.195  15.364  1.00  0.00     0.003 A 
HETATM   12  C   LIG     1      13.441  30.153  14.294  1.00  0.00     0.026 A 
HETATM   13  C   LIG     1      14.727  30.686  14.429  1.00  0.00     0.056 A 
HETATM   14  C   LIG     1      15.125  31.262  15.650  1.00  0.00     0.066 A 
HETATM   15 CL   LIG     1      15.817  30.620  13.050  1.00  0.00    -0.083 Cl
HETATM   16 CL   LIG     1      16.737  31.966  15.808  1.00  0.00    -0.082 Cl
ENDBRANCH   8   9
TORSDOF 1
ENDMDL
MODEL 2
REMARK VINA RESULT:      -5.6      0.060      5.187
REMARK  1 active torsions:
REMARK  status: ('A' for Active; 'I' for Inactive)
REMARK    1  A    between atoms: C_8  and  C_9 
ROOT
HETATM    1 CL   LIG     1      16.730  32.075  15.780  1.00  0.00    -0.082 Cl
HETATM    2  C   LIG     1      15.142  31.322  15.620  1.00  0.00     0.066 A 
HETATM    3  C   LIG     1      14.758  30.741  14.395  1.00  0.00     0.056 A 
HETATM    4 CL   LIG     1      15.847  30.719  13.014  1.00  0.00    -0.083 Cl
HETATM    5  C   LIG     1      13.489  30.168  14.259  1.00  0.00     0.026 A 
HETATM    6  C   LIG     1      12.596  30.174  15.332  1.00  0.00     0.003 A 
HETATM    7  C   LIG     1      12.968  30.747  16.549  1.00  0.00     0.014 A 
HETATM    8  C   LIG     1      14.240  31.315  16.706  1.00  0.00    -0.001 A 
ENDROOT
BRANCH   8   9
HETATM    9  C   LIG     1      14.603  31.909  18.008  1.00  0.00    -0.001 A 
HETATM   10  C   LIG     1      14.615  31.093  19.149  1.00  0.00     0.014 A 
HETATM   11  C   LIG     1      14.951  31.625  20.394  1.00  0.00     0.003 A 
HETATM   12  C   LIG     1      15.282  32.977  20.511  1.00  0.00     0.026 A 
HETATM   13  C   LIG     1      15.286  33.802  19.381  1.00  0.00     0.056 A 
HETATM   14  C   LIG     1      14.950  33.272  18.122  1.00  0.00     0.066 A 
HETATM   15 CL   LIG     1      15.722  35.495  19.575  1.00  0.00    -0.083 Cl
HETATM   16 CL   LIG     1      14.990  34.307  16.691  1.00  0.00    -0.082 Cl
ENDBRANCH   8   9
TORSDOF 1
ENDMDL
MODEL 3
REMARK VINA RESULT:      -5.6     21.440     23.155
REMARK  1 active torsions:
REMARK  status: ('A' for Active; 'I' for Inactive)
REMARK    1  A    between atoms: C_8  and  C_9 
ROOT
HETATM    1 CL   LIG     1      29.817  30.026  35.707  1.00  0.00    -0.082 Cl
HETATM    2  C   LIG     1      28.389  30.649  36.537  1.00  0.00     0.066 A 
HETATM    3  C   LIG     1      28.497  31.777  37.373  1.00  0.00     0.056 A 
HETATM    4 CL   LIG     1      30.031  32.610  37.591  1.00  0.00    -0.083 Cl
HETATM    5  C   LIG     1      27.372  32.254  38.053  1.00  0.00     0.026 A 
HETATM    6  C   LIG     1      26.139  31.613  37.911  1.00  0.00     0.003 A 
HETATM    7  C   LIG     1      26.023  30.495  37.084  1.00  0.00     0.014 A 
HETATM    8  C   LIG     1      27.139  30.011  36.387  1.00  0.00    -0.001 A 
ENDROOT
BRANCH   8   9
HETATM    9  C   LIG     1      26.981  28.829  35.516  1.00  0.00    -0.001 A 
HETATM   10  C   LIG     1      26.615  29.015  34.175  1.00  0.00     0.014 A 
HETATM   11  C   LIG     1      26.454  27.918  33.327  1.00  0.00     0.003 A 
HETATM   12  C   LIG     1      26.662  26.625  33.811  1.00  0.00     0.026 A 
HETATM   13  C   LIG     1      27.038  26.422  35.143  1.00  0.00     0.056 A 
HETATM   14  C   LIG     1      27.203  27.523  36.004  1.00  0.00     0.066 A 
HETATM   15 CL   LIG     1      27.299  24.775  35.704  1.00  0.00    -0.083 Cl
HETATM   16 CL   LIG     1      27.712  27.267  37.675  1.00  0.00    -0.082 Cl
ENDBRANCH   8   9
TORSDOF 1
ENDMDL
MODEL 4
REMARK VINA RESULT:      -5.5     21.384     23.540
REMARK  1 active torsions:
REMARK  status: ('A' for Active; 'I' for Inactive)
REMARK    1  A    between atoms: C_8  and  C_9 
ROOT
HETATM    1 CL   LIG     1      27.752  27.196  37.579  1.00  0.00    -0.082 Cl
HETATM    2  C   LIG     1      27.214  27.442  35.917  1.00  0.00     0.066 A 
HETATM    3  C   LIG     1      27.035  26.336  35.063  1.00  0.00     0.056 A 
HETATM    4 CL   LIG     1      27.308  24.693  35.628  1.00  0.00    -0.083 Cl
HETATM    5  C   LIG     1      26.635  26.533  33.738  1.00  0.00     0.026 A 
HETATM    6  C   LIG     1      26.417  27.824  33.252  1.00  0.00     0.003 A 
HETATM    7  C   LIG     1      26.591  28.925  34.091  1.00  0.00     0.014 A 
HETATM    8  C   LIG     1      26.981  28.745  35.425  1.00  0.00    -0.001 A 
ENDROOT
BRANCH   8   9
HETATM    9  C   LIG     1      27.152  29.932  36.288  1.00  0.00    -0.001 A 
HETATM   10  C   LIG     1      26.041  30.437  36.979  1.00  0.00     0.014 A 
HETATM   11  C   LIG     1      26.169  31.559  37.799  1.00  0.00     0.003 A 
HETATM   12  C   LIG     1      27.409  32.184  37.939  1.00  0.00     0.026 A 
HETATM   13  C   LIG     1      28.530  31.687  37.265  1.00  0.00     0.056 A 
HETATM   14  C   LIG     1      28.409  30.555  36.437  1.00  0.00     0.066 A 
HETATM   15 CL   LIG     1      30.074  32.501  37.481  1.00  0.00    -0.083 Cl
HETATM   16 CL   LIG     1      29.832  29.908  35.616  1.00  0.00    -0.082 Cl
ENDBRANCH   8   9
TORSDOF 1
ENDMDL
MODEL 5
REMARK VINA RESULT:      -5.5      5.050      8.900
REMARK  1 active torsions:
REMARK  status: ('A' for Active; 'I' for Inactive)
REMARK    1  A    between atoms: C_8  and  C_9 
ROOT
HETATM    1 CL   LIG     1      15.072  34.494  21.584  1.00  0.00    -0.082 Cl
HETATM    2  C   LIG     1      16.337  35.389  20.740  1.00  0.00     0.066 A 
HETATM    3  C   LIG     1      16.384  35.384  19.333  1.00  0.00     0.056 A 
HETATM    4 CL   LIG     1      15.181  34.523  18.381  1.00  0.00    -0.083 Cl
HETATM    5  C   LIG     1      17.403  36.071  18.664  1.00  0.00     0.026 A 
HETATM    6  C   LIG     1      18.380  36.758  19.387  1.00  0.00     0.003 A 
HETATM    7  C   LIG     1      18.341  36.769  20.782  1.00  0.00     0.014 A 
HETATM    8  C   LIG     1      17.320  36.095  21.467  1.00  0.00    -0.001 A 
ENDROOT
BRANCH   8   9
HETATM    9  C   LIG     1      17.305  36.130  22.943  1.00  0.00    -0.001 A 
HETATM   10  C   LIG     1      17.352  34.921  23.653  1.00  0.00     0.014 A 
HETATM   11  C   LIG     1      17.335  34.921  25.049  1.00  0.00     0.003 A 
HETATM   12  C   LIG     1      17.274  36.128  25.748  1.00  0.00     0.026 A 
HETATM   13  C   LIG     1      17.238  37.343  25.055  1.00  0.00     0.056 A 
HETATM   14  C   LIG     1      17.256  37.352  23.648  1.00  0.00     0.066 A 
HETATM   15 CL   LIG     1      17.174  38.839  25.979  1.00  0.00    -0.083 Cl
HETATM   16 CL   LIG     1      17.245  38.888  22.776  1.00  0.00    -0.082 Cl
ENDBRANCH   8   9
TORSDOF 1
ENDMDL
MODEL 6
REMARK VINA RESULT:      -5.3     13.901     14.925
REMARK  1 active torsions:
REMARK  status: ('A' for Active; 'I' for Inactive)
REMARK    1  A    between atoms: C_8  and  C_9 
ROOT
HETATM    1 CL   LIG     1      25.970  25.744  18.988  1.00  0.00    -0.082 Cl
HETATM    2  C   LIG     1      27.028  24.511  18.298  1.00  0.00     0.066 A 
HETATM    3  C   LIG     1      28.257  24.883  17.718  1.00  0.00     0.056 A 
HETATM    4 CL   LIG     1      28.783  26.561  17.690  1.00  0.00    -0.083 Cl
HETATM    5  C   LIG     1      29.083  23.910  17.146  1.00  0.00     0.026 A 
HETATM    6  C   LIG     1      28.694  22.569  17.143  1.00  0.00     0.003 A 
HETATM    7  C   LIG     1      27.478  22.192  17.716  1.00  0.00     0.014 A 
HETATM    8  C   LIG     1      26.644  23.153  18.303  1.00  0.00    -0.001 A 
ENDROOT
BRANCH   8   9
HETATM    9  C   LIG     1      25.367  22.720  18.906  1.00  0.00    -0.001 A 
HETATM   10  C   LIG     1      24.311  22.340  18.064  1.00  0.00     0.014 A 
HETATM   11  C   LIG     1      23.091  21.930  18.604  1.00  0.00     0.003 A 
HETATM   12  C   LIG     1      22.915  21.892  19.988  1.00  0.00     0.026 A 
HETATM   13  C   LIG     1      23.962  22.257  20.842  1.00  0.00     0.056 A 
HETATM   14  C   LIG     1      25.196  22.671  20.306  1.00  0.00     0.066 A 
HETATM   15 CL   LIG     1      23.698  22.182  22.579  1.00  0.00    -0.083 Cl
HETATM   16 CL   LIG     1      26.526  23.098  21.386  1.00  0.00    -0.082 Cl
ENDBRANCH   8   9
TORSDOF 1
ENDMDL
MODEL 7
REMARK VINA RESULT:      -5.3     13.923     14.931
REMARK  1 active torsions:
REMARK  status: ('A' for Active; 'I' for Inactive)
REMARK    1  A    between atoms: C_8  and  C_9 
ROOT
HETATM    1 CL   LIG     1      26.539  23.089  21.399  1.00  0.00    -0.082 Cl
HETATM    2  C   LIG     1      25.193  22.666  20.339  1.00  0.00     0.066 A 
HETATM    3  C   LIG     1      23.955  22.284  20.892  1.00  0.00     0.056 A 
HETATM    4 CL   LIG     1      23.704  22.246  22.633  1.00  0.00    -0.083 Cl
HETATM    5  C   LIG     1      22.896  21.921  20.053  1.00  0.00     0.026 A 
HETATM    6  C   LIG     1      23.061  21.931  18.667  1.00  0.00     0.003 A 
HETATM    7  C   LIG     1      24.284  22.310  18.110  1.00  0.00     0.014 A 
HETATM    8  C   LIG     1      25.352  22.687  18.936  1.00  0.00    -0.001 A 
ENDROOT
BRANCH   8   9
HETATM    9  C   LIG     1      26.630  23.086  18.316  1.00  0.00    -0.001 A 
HETATM   10  C   LIG     1      27.443  22.101  17.736  1.00  0.00     0.014 A 
HETATM   11  C   LIG     1      28.659  22.447  17.145  1.00  0.00     0.003 A 
HETATM   12  C   LIG     1      29.073  23.780  17.125  1.00  0.00     0.026 A 
HETATM   13  C   LIG     1      28.270  24.777  17.689  1.00  0.00     0.056 A 
HETATM   14  C   LIG     1      27.041  24.436  18.286  1.00  0.00     0.066 A 
HETATM   15 CL   LIG     1      28.827  26.443  17.630  1.00  0.00    -0.083 Cl
HETATM   16 CL   LIG     1      26.013  25.700  18.967  1.00  0.00    -0.082 Cl
ENDBRANCH   8   9
TORSDOF 1
ENDMDL
MODEL 8
REMARK VINA RESULT:      -5.3     14.007     15.067
REMARK  1 active torsions:
REMARK  status: ('A' for Active; 'I' for Inactive)
REMARK    1  A    between atoms: C_8  and  C_9 
ROOT
HETATM    1 CL   LIG     1      25.466  23.181  22.046  1.00  0.00    -0.082 Cl
HETATM    2  C   LIG     1      24.635  22.658  20.580  1.00  0.00     0.066 A 
HETATM    3  C   LIG     1      23.482  21.855  20.673  1.00  0.00     0.056 A 
HETATM    4 CL   LIG     1      22.824  21.378  22.233  1.00  0.00    -0.083 Cl
HETATM    5  C   LIG     1      22.838  21.417  19.511  1.00  0.00     0.026 A 
HETATM    6  C   LIG     1      23.337  21.768  18.255  1.00  0.00     0.003 A 
HETATM    7  C   LIG     1      24.478  22.565  18.153  1.00  0.00     0.014 A 
HETATM    8  C   LIG     1      25.129  23.021  19.308  1.00  0.00    -0.001 A 
ENDROOT
BRANCH   8   9
HETATM    9  C   LIG     1      26.331  23.866  19.165  1.00  0.00    -0.001 A 
HETATM   10  C   LIG     1      26.184  25.261  19.142  1.00  0.00     0.014 A 
HETATM   11  C   LIG     1      27.301  26.087  19.005  1.00  0.00     0.003 A 
HETATM   12  C   LIG     1      28.575  25.527  18.894  1.00  0.00     0.026 A 
HETATM   13  C   LIG     1      28.741  24.138  18.926  1.00  0.00     0.056 A 
HETATM   14  C   LIG     1      27.620  23.299  19.065  1.00  0.00     0.066 A 
HETATM   15 CL   LIG     1      30.366  23.478  18.794  1.00  0.00    -0.083 Cl
HETATM   16 CL   LIG     1      27.834  21.547  19.141  1.00  0.00    -0.082 Cl
ENDBRANCH   8   9
TORSDOF 1
ENDMDL
MODEL 9
REMARK VINA RESULT:      -5.3     14.019     14.995
REMARK  1 active torsions:
REMARK  status: ('A' for Active; 'I' for Inactive)
REMARK    1  A    between atoms: C_8  and  C_9 
ROOT
HETATM    1 CL   LIG     1      27.839  21.533  19.176  1.00  0.00    -0.082 Cl
HETATM    2  C   LIG     1      27.623  23.282  19.089  1.00  0.00     0.066 A 
HETATM    3  C   LIG     1      28.745  24.123  18.952  1.00  0.00     0.056 A 
HETATM    4 CL   LIG     1      30.372  23.465  18.834  1.00  0.00    -0.083 Cl
HETATM    5  C   LIG     1      28.577  25.511  18.911  1.00  0.00     0.026 A 
HETATM    6  C   LIG     1      27.302  26.070  19.010  1.00  0.00     0.003 A 
HETATM    7  C   LIG     1      26.185  25.244  19.145  1.00  0.00     0.014 A 
HETATM    8  C   LIG     1      26.334  23.850  19.177  1.00  0.00    -0.001 A 
ENDROOT
BRANCH   8   9
HETATM    9  C   LIG     1      25.132  23.004  19.316  1.00  0.00    -0.001 A 
HETATM   10  C   LIG     1      24.488  22.540  18.159  1.00  0.00     0.014 A 
HETATM   11  C   LIG     1      23.347  21.742  18.257  1.00  0.00     0.003 A 
HETATM   12  C   LIG     1      22.841  21.397  19.512  1.00  0.00     0.026 A 
HETATM   13  C   LIG     1      23.477  21.843  20.676  1.00  0.00     0.056 A 
HETATM   14  C   LIG     1      24.628  22.647  20.585  1.00  0.00     0.066 A 
HETATM   15 CL   LIG     1      22.810  21.373  22.234  1.00  0.00    -0.083 Cl
HETATM   16 CL   LIG     1      25.449  23.179  22.055  1.00  0.00    -0.082 Cl
ENDBRANCH   8   9
TORSDOF 1
ENDMDL
MODEL 10
REMARK VINA RESULT:      -5.3     14.211     15.592
REMARK  1 active torsions:
REMARK  status: ('A' for Active; 'I' for Inactive)
REMARK    1  A    between atoms: C_8  and  C_9 
ROOT
HETATM    1 CL   LIG     1      27.329  21.092  17.495  1.00  0.00    -0.082 Cl
HETATM    2  C   LIG     1      25.593  21.013  17.800  1.00  0.00     0.066 A 
HETATM    3  C   LIG     1      24.838  19.935  17.297  1.00  0.00     0.056 A 
HETATM    4 CL   LIG     1      25.596  18.634  16.389  1.00  0.00    -0.083 Cl
HETATM    5  C   LIG     1      23.457  19.886  17.515  1.00  0.00     0.026 A 
HETATM    6  C   LIG     1      22.820  20.906  18.225  1.00  0.00     0.003 A 
HETATM    7  C   LIG     1      23.560  21.977  18.727  1.00  0.00     0.014 A 
HETATM    8  C   LIG     1      24.946  22.036  18.527  1.00  0.00    -0.001 A 
ENDROOT
BRANCH   8   9
HETATM    9  C   LIG     1      25.701  23.181  19.075  1.00  0.00    -0.001 A 
HETATM   10  C   LIG     1      25.830  24.344  18.302  1.00  0.00     0.014 A 
HETATM   11  C   LIG     1      26.540  25.441  18.791  1.00  0.00     0.003 A 
HETATM   12  C   LIG     1      27.125  25.388  20.058  1.00  0.00     0.026 A 
HETATM   13  C   LIG     1      26.996  24.240  20.846  1.00  0.00     0.056 A 
HETATM   14  C   LIG     1      26.281  23.129  20.361  1.00  0.00     0.066 A 
HETATM   15 CL   LIG     1      27.740  24.223  22.440  1.00  0.00    -0.083 Cl
HETATM   16 CL   LIG     1      26.090  21.694  21.372  1.00  0.00    -0.082 Cl
ENDBRANCH   8   9
TORSDOF 1
ENDMDL
MODEL 11
REMARK VINA RESULT:      -5.3     14.215     14.862
REMARK  1 active torsions:
REMARK  status: ('A' for Active; 'I' for Inactive)
REMARK    1  A    between atoms: C_8  and  C_9 
ROOT
HETATM    1 CL   LIG     1      26.244  21.845  21.373  1.00  0.00    -0.082 Cl
HETATM    2  C   LIG     1      26.391  23.274  20.349  1.00  0.00     0.066 A 
HETATM    3  C   LIG     1      27.092  24.404  20.814  1.00  0.00     0.056 A 
HETATM    4 CL   LIG     1      27.861  24.415  22.396  1.00  0.00    -0.083 Cl
HETATM    5  C   LIG     1      27.186  25.548  20.014  1.00  0.00     0.026 A 
HETATM    6  C   LIG     1      26.581  25.578  18.756  1.00  0.00     0.003 A 
HETATM    7  C   LIG     1      25.885  24.463  18.287  1.00  0.00     0.014 A 
HETATM    8  C   LIG     1      25.792  23.305  19.071  1.00  0.00    -0.001 A 
ENDROOT
BRANCH   8   9
HETATM    9  C   LIG     1      25.052  22.140  18.544  1.00  0.00    -0.001 A 
HETATM   10  C   LIG     1      23.671  22.050  18.774  1.00  0.00     0.014 A 
HETATM   11  C   LIG     1      22.945  20.960  18.292  1.00  0.00     0.003 A 
HETATM   12  C   LIG     1      23.591  19.952  17.572  1.00  0.00     0.026 A 
HETATM   13  C   LIG     1      24.965  20.033  17.325  1.00  0.00     0.056 A 
HETATM   14  C   LIG     1      25.705  21.129  17.807  1.00  0.00     0.066 A 
HETATM   15 CL   LIG     1      25.733  18.746  16.404  1.00  0.00    -0.083 Cl
HETATM   16 CL   LIG     1      27.433  21.246  17.463  1.00  0.00    -0.082 Cl
ENDBRANCH   8   9
TORSDOF 1
ENDMDL
MODEL 12
REMARK VINA RESULT:      -5.2     13.601     14.542
REMARK  1 active torsions:
REMARK  status: ('A' for Active; 'I' for Inactive)
REMARK    1  A    between atoms: C_8  and  C_9 
ROOT
HETATM    1 CL   LIG     1      25.837  25.494  18.978  1.00  0.00    -0.082 Cl
HETATM    2  C   LIG     1      26.873  24.622  20.111  1.00  0.00     0.066 A 
HETATM    3  C   LIG     1      28.203  25.039  20.312  1.00  0.00     0.056 A 
HETATM    4 CL   LIG     1      28.857  26.441  19.476  1.00  0.00    -0.083 Cl
HETATM    5  C   LIG     1      29.032  24.331  21.188  1.00  0.00     0.026 A 
HETATM    6  C   LIG     1      28.550  23.208  21.862  1.00  0.00     0.003 A 
HETATM    7  C   LIG     1      27.233  22.789  21.669  1.00  0.00     0.014 A 
HETATM    8  C   LIG     1      26.385  23.492  20.803  1.00  0.00    -0.001 A 
ENDROOT
BRANCH   8   9
HETATM    9  C   LIG     1      24.995  23.025  20.625  1.00  0.00    -0.001 A 
HETATM   10  C   LIG     1      24.035  23.360  21.591  1.00  0.00     0.014 A 
HETATM   11  C   LIG     1      22.715  22.930  21.453  1.00  0.00     0.003 A 
HETATM   12  C   LIG     1      22.340  22.165  20.347  1.00  0.00     0.026 A 
HETATM   13  C   LIG     1      23.283  21.832  19.368  1.00  0.00     0.056 A 
HETATM   14  C   LIG     1      24.616  22.262  19.500  1.00  0.00     0.066 A 
HETATM   15 CL   LIG     1      22.762  20.876  17.986  1.00  0.00    -0.083 Cl
HETATM   16 CL   LIG     1      25.797  21.870  18.246  1.00  0.00    -0.082 Cl
ENDBRANCH   8   9
TORSDOF 1
ENDMDL
MODEL 13
REMARK VINA RESULT:      -5.2     14.267     15.021
REMARK  1 active torsions:
REMARK  status: ('A' for Active; 'I' for Inactive)
REMARK    1  A    between atoms: C_8  and  C_9 
ROOT
HETATM    1 CL   LIG     1      26.577  21.276  21.043  1.00  0.00    -0.082 Cl
HETATM    2  C   LIG     1      26.466  22.804  20.167  1.00  0.00     0.066 A 
HETATM    3  C   LIG     1      26.895  23.998  20.778  1.00  0.00     0.056 A 
HETATM    4 CL   LIG     1      27.576  24.001  22.400  1.00  0.00    -0.083 Cl
HETATM    5  C   LIG     1      26.781  25.213  20.095  1.00  0.00     0.026 A 
HETATM    6  C   LIG     1      26.238  25.250  18.810  1.00  0.00     0.003 A 
HETATM    7  C   LIG     1      25.811  24.071  18.197  1.00  0.00     0.014 A 
HETATM    8  C   LIG     1      25.928  22.844  18.862  1.00  0.00    -0.001 A 
ENDROOT
BRANCH   8   9
HETATM    9  C   LIG     1      25.471  21.614  18.184  1.00  0.00    -0.001 A 
HETATM   10  C   LIG     1      26.375  20.905  17.379  1.00  0.00     0.014 A 
HETATM   11  C   LIG     1      25.972  19.742  16.721  1.00  0.00     0.003 A 
HETATM   12  C   LIG     1      24.664  19.274  16.865  1.00  0.00     0.026 A 
HETATM   13  C   LIG     1      23.753  19.964  17.673  1.00  0.00     0.056 A 
HETATM   14  C   LIG     1      24.152  21.137  18.340  1.00  0.00     0.066 A 
HETATM   15 CL   LIG     1      22.120  19.331  17.832  1.00  0.00    -0.083 Cl
HETATM   16 CL   LIG     1      23.011  21.986  19.386  1.00  0.00    -0.082 Cl
ENDBRANCH   8   9
TORSDOF 1
ENDMDL
MODEL 14
REMARK VINA RESULT:      -5.2     14.250     15.607
REMARK  1 active torsions:
REMARK  status: ('A' for Active; 'I' for Inactive)
REMARK    1  A    between atoms: C_8  and  C_9 
ROOT
HETATM    1 CL   LIG     1      22.920  21.998  19.219  1.00  0.00    -0.082 Cl
HETATM    2  C   LIG     1      24.088  21.110  18.239  1.00  0.00     0.066 A 
HETATM    3  C   LIG     1      23.695  19.939  17.563  1.00  0.00     0.056 A 
HETATM    4 CL   LIG     1      22.040  19.349  17.646  1.00  0.00    -0.083 Cl
HETATM    5  C   LIG     1      24.627  19.219  16.809  1.00  0.00     0.026 A 
HETATM    6  C   LIG     1      25.951  19.653  16.726  1.00  0.00     0.003 A 
HETATM    7  C   LIG     1      26.350  20.813  17.393  1.00  0.00     0.014 A 
HETATM    8  C   LIG     1      25.426  21.553  18.143  1.00  0.00    -0.001 A 
ENDROOT
BRANCH   8   9
HETATM    9  C   LIG     1      25.879  22.777  18.832  1.00  0.00    -0.001 A 
HETATM   10  C   LIG     1      25.795  24.006  18.161  1.00  0.00     0.014 A 
HETATM   11  C   LIG     1      26.219  25.181  18.784  1.00  0.00     0.003 A 
HETATM   12  C   LIG     1      26.727  25.140  20.084  1.00  0.00     0.026 A 
HETATM   13  C   LIG     1      26.808  23.924  20.771  1.00  0.00     0.056 A 
HETATM   14  C   LIG     1      26.381  22.735  20.151  1.00  0.00     0.066 A 
HETATM   15 CL   LIG     1      27.444  23.923  22.411  1.00  0.00    -0.083 Cl
HETATM   16 CL   LIG     1      26.452  21.207  21.032  1.00  0.00    -0.082 Cl
ENDBRANCH   8   9
TORSDOF 1
ENDMDL
MODEL 15
REMARK VINA RESULT:      -5.2     13.829     14.815
REMARK  1 active torsions:
REMARK  status: ('A' for Active; 'I' for Inactive)
REMARK    1  A    between atoms: C_8  and  C_9 
ROOT
HETATM    1 CL   LIG     1      27.655  22.274  21.612  1.00  0.00    -0.082 Cl
HETATM    2  C   LIG     1      27.481  23.738  20.641  1.00  0.00     0.066 A 
HETATM    3  C   LIG     1      28.598  24.560  20.400  1.00  0.00     0.056 A 
HETATM    4 CL   LIG     1      30.190  24.144  21.024  1.00  0.00    -0.083 Cl
HETATM    5  C   LIG     1      28.455  25.734  19.654  1.00  0.00     0.026 A 
HETATM    6  C   LIG     1      27.206  26.100  19.150  1.00  0.00     0.003 A 
HETATM    7  C   LIG     1      26.093  25.291  19.383  1.00  0.00     0.014 A 
HETATM    8  C   LIG     1      26.221  24.105  20.119  1.00  0.00    -0.001 A 
ENDROOT
BRANCH   8   9
HETATM    9  C   LIG     1      25.025  23.269  20.344  1.00  0.00    -0.001 A 
HETATM   10  C   LIG     1      24.245  23.491  21.488  1.00  0.00     0.014 A 
HETATM   11  C   LIG     1      23.110  22.715  21.731  1.00  0.00     0.003 A 
HETATM   12  C   LIG     1      22.743  21.713  20.831  1.00  0.00     0.026 A 
HETATM   13  C   LIG     1      23.504  21.485  19.679  1.00  0.00     0.056 A 
HETATM   14  C   LIG     1      24.648  22.264  19.427  1.00  0.00     0.066 A 
HETATM   15 CL   LIG     1      22.996  20.220  18.569  1.00  0.00    -0.083 Cl
HETATM   16 CL   LIG     1      25.588  22.000  17.955  1.00  0.00    -0.082 Cl
ENDBRANCH   8   9
TORSDOF 1
ENDMDL
MODEL 16
REMARK VINA RESULT:      -5.0     14.235     16.000
REMARK  1 active torsions:
REMARK  status: ('A' for Active; 'I' for Inactive)
REMARK    1  A    between atoms: C_8  and  C_9 
ROOT
HETATM    1 CL   LIG     1      25.961  20.050  21.529  1.00  0.00    -0.082 Cl
HETATM    2  C   LIG     1      24.593  20.923  20.837  1.00  0.00     0.066 A 
HETATM    3  C   LIG     1      24.354  20.873  19.450  1.00  0.00     0.056 A 
HETATM    4 CL   LIG     1      25.379  19.924  18.381  1.00  0.00    -0.083 Cl
HETATM    5  C   LIG     1      23.286  21.587  18.897  1.00  0.00     0.026 A 
HETATM    6  C   LIG     1      22.457  22.358  19.714  1.00  0.00     0.003 A 
HETATM    7  C   LIG     1      22.685  22.413  21.089  1.00  0.00     0.014 A 
HETATM    8  C   LIG     1      23.744  21.694  21.661  1.00  0.00    -0.001 A 
ENDROOT
BRANCH   8   9
HETATM    9  C   LIG     1      23.956  21.771  23.121  1.00  0.00    -0.001 A 
HETATM   10  C   LIG     1      24.757  22.799  23.640  1.00  0.00     0.014 A 
HETATM   11  C   LIG     1      24.979  22.895  25.014  1.00  0.00     0.003 A 
HETATM   12  C   LIG     1      24.400  21.968  25.883  1.00  0.00     0.026 A 
HETATM   13  C   LIG     1      23.590  20.943  25.383  1.00  0.00     0.056 A 
HETATM   14  C   LIG     1      23.360  20.839  23.999  1.00  0.00     0.066 A 
HETATM   15 CL   LIG     1      22.873  19.806  26.517  1.00  0.00    -0.083 Cl
HETATM   16 CL   LIG     1      22.309  19.566  23.373  1.00  0.00    -0.082 Cl
ENDBRANCH   8   9
TORSDOF 1
ENDMDL
MODEL 17
REMARK VINA RESULT:      -5.0     19.409     21.549
REMARK  1 active torsions:
REMARK  status: ('A' for Active; 'I' for Inactive)
REMARK    1  A    between atoms: C_8  and  C_9 
ROOT
HETATM    1 CL   LIG     1      28.933  26.655  35.003  1.00  0.00    -0.082 Cl
HETATM    2  C   LIG     1      27.896  28.037  35.361  1.00  0.00     0.066 A 
HETATM    3  C   LIG     1      27.422  28.241  36.671  1.00  0.00     0.056 A 
HETATM    4 CL   LIG     1      27.866  27.156  37.983  1.00  0.00    -0.083 Cl
HETATM    5  C   LIG     1      26.578  29.321  36.950  1.00  0.00     0.026 A 
HETATM    6  C   LIG     1      26.198  30.198  35.932  1.00  0.00     0.003 A 
HETATM    7  C   LIG     1      26.663  30.004  34.631  1.00  0.00     0.014 A 
HETATM    8  C   LIG     1      27.519  28.933  34.337  1.00  0.00    -0.001 A 
ENDROOT
BRANCH   8   9
HETATM    9  C   LIG     1      27.998  28.759  32.951  1.00  0.00    -0.001 A 
HETATM   10  C   LIG     1      29.074  29.537  32.500  1.00  0.00     0.014 A 
HETATM   11  C   LIG     1      29.547  29.398  31.194  1.00  0.00     0.003 A 
HETATM   12  C   LIG     1      28.952  28.478  30.329  1.00  0.00     0.026 A 
HETATM   13  C   LIG     1      27.885  27.686  30.766  1.00  0.00     0.056 A 
HETATM   14  C   LIG     1      27.403  27.819  32.082  1.00  0.00     0.066 A 
HETATM   15 CL   LIG     1      27.175  26.533  29.644  1.00  0.00    -0.083 Cl
HETATM   16 CL   LIG     1      26.079  26.795  32.643  1.00  0.00    -0.082 Cl
ENDBRANCH   8   9
TORSDOF 1
ENDMDL
MODEL 18
REMARK VINA RESULT:      -4.9     14.250     15.339
REMARK  1 active torsions:
REMARK  status: ('A' for Active; 'I' for Inactive)
REMARK    1  A    between atoms: C_8  and  C_9 
ROOT
HETATM    1 CL   LIG     1      26.780  21.021  19.331  1.00  0.00    -0.082 Cl
HETATM    2  C   LIG     1      26.705  22.771  19.121  1.00  0.00     0.066 A 
HETATM    3  C   LIG     1      27.539  23.403  18.179  1.00  0.00     0.056 A 
HETATM    4 CL   LIG     1      28.646  22.478  17.172  1.00  0.00    -0.083 Cl
HETATM    5  C   LIG     1      27.500  24.794  18.031  1.00  0.00     0.026 A 
HETATM    6  C   LIG     1      26.641  25.561  18.819  1.00  0.00     0.003 A 
HETATM    7  C   LIG     1      25.810  24.943  19.755  1.00  0.00     0.014 A 
HETATM    8  C   LIG     1      25.828  23.550  19.907  1.00  0.00    -0.001 A 
ENDROOT
BRANCH   8   9
HETATM    9  C   LIG     1      24.933  22.926  20.902  1.00  0.00    -0.001 A 
HETATM   10  C   LIG     1      23.679  22.453  20.489  1.00  0.00     0.014 A 
HETATM   11  C   LIG     1      22.809  21.863  21.407  1.00  0.00     0.003 A 
HETATM   12  C   LIG     1      23.186  21.736  22.745  1.00  0.00     0.026 A 
HETATM   13  C   LIG     1      24.437  22.193  23.173  1.00  0.00     0.056 A 
HETATM   14  C   LIG     1      25.320  22.789  22.253  1.00  0.00     0.066 A 
HETATM   15 CL   LIG     1      24.872  22.002  24.866  1.00  0.00    -0.083 Cl
HETATM   16 CL   LIG     1      26.913  23.333  22.787  1.00  0.00    -0.082 Cl
ENDBRANCH   8   9
TORSDOF 1
ENDMDL
MODEL 19
REMARK VINA RESULT:      -4.9     19.758     22.083
REMARK  1 active torsions:
REMARK  status: ('A' for Active; 'I' for Inactive)
REMARK    1  A    between atoms: C_8  and  C_9 
ROOT
HETATM    1 CL   LIG     1      26.180  27.252  32.647  1.00  0.00    -0.082 Cl
HETATM    2  C   LIG     1      27.615  28.207  32.268  1.00  0.00     0.066 A 
HETATM    3  C   LIG     1      28.261  28.045  31.027  1.00  0.00     0.056 A 
HETATM    4 CL   LIG     1      27.648  26.924  29.818  1.00  0.00    -0.083 Cl
HETATM    5  C   LIG     1      29.415  28.781  30.737  1.00  0.00     0.026 A 
HETATM    6  C   LIG     1      29.935  29.674  31.676  1.00  0.00     0.003 A 
HETATM    7  C   LIG     1      29.301  29.841  32.908  1.00  0.00     0.014 A 
HETATM    8  C   LIG     1      28.138  29.120  33.210  1.00  0.00    -0.001 A 
ENDROOT
BRANCH   8   9
HETATM    9  C   LIG     1      27.489  29.323  34.521  1.00  0.00    -0.001 A 
HETATM   10  C   LIG     1      26.711  30.472  34.725  1.00  0.00     0.014 A 
HETATM   11  C   LIG     1      26.088  30.695  35.954  1.00  0.00     0.003 A 
HETATM   12  C   LIG     1      26.234  29.770  36.989  1.00  0.00     0.026 A 
HETATM   13  C   LIG     1      26.998  28.613  36.800  1.00  0.00     0.056 A 
HETATM   14  C   LIG     1      27.628  28.381  35.563  1.00  0.00     0.066 A 
HETATM   15 CL   LIG     1      27.143  27.471  38.129  1.00  0.00    -0.083 Cl
HETATM   16 CL   LIG     1      28.563  26.903  35.314  1.00  0.00    -0.082 Cl
ENDBRANCH   8   9
TORSDOF 1
ENDMDL
MODEL 20
REMARK VINA RESULT:      -4.9     14.471     15.984
REMARK  1 active torsions:
REMARK  status: ('A' for Active; 'I' for Inactive)
REMARK    1  A    between atoms: C_8  and  C_9 
ROOT
HETATM    1 CL   LIG     1      21.860  18.917  17.937  1.00  0.00    -0.082 Cl
HETATM    2  C   LIG     1      23.495  19.418  17.503  1.00  0.00     0.066 A 
HETATM    3  C   LIG     1      24.073  18.969  16.299  1.00  0.00     0.056 A 
HETATM    4 CL   LIG     1      23.184  17.933  15.190  1.00  0.00    -0.083 Cl
HETATM    5  C   LIG     1      25.379  19.343  15.968  1.00  0.00     0.026 A 
HETATM    6  C   LIG     1      26.118  20.158  16.828  1.00  0.00     0.003 A 
HETATM    7  C   LIG     1      25.553  20.608  18.022  1.00  0.00     0.014 A 
HETATM    8  C   LIG     1      24.241  20.252  18.364  1.00  0.00    -0.001 A 
ENDROOT
BRANCH   8   9
HETATM    9  C   LIG     1      23.672  20.749  19.633  1.00  0.00    -0.001 A 
HETATM   10  C   LIG     1      23.021  21.991  19.646  1.00  0.00     0.014 A 
HETATM   11  C   LIG     1      22.476  22.489  20.830  1.00  0.00     0.003 A 
HETATM   12  C   LIG     1      22.572  21.750  22.011  1.00  0.00     0.026 A 
HETATM   13  C   LIG     1      23.209  20.504  22.012  1.00  0.00     0.056 A 
HETATM   14  C   LIG     1      23.761  19.994  20.822  1.00  0.00     0.066 A 
HETATM   15 CL   LIG     1      23.297  19.604  23.521  1.00  0.00    -0.083 Cl
HETATM   16 CL   LIG     1      24.533  18.406  20.819  1.00  0.00    -0.082 Cl
ENDBRANCH   8   9
TORSDOF 1
ENDMDL
