REMARK  1 active torsions:
REMARK  status: ('A' for Active; 'I' for Inactive)
REMARK    1  A    between atoms: C_4  and  C_5 
ROOT
HETATM    1  C   LIG     1      -0.746  -0.012  -0.103  1.00  0.00    -0.003 A 
HETATM    2  C   LIG     1      -1.498   0.690   0.855  1.00  0.00     0.037 A 
HETATM    3  C   LIG     1      -2.892   0.749   0.759  1.00  0.00     0.035 A 
HETATM    4 CL   LIG     1      -3.818   1.621   1.967  1.00  0.00    -0.084 Cl
HETATM    5  C   LIG     1      -3.547   0.112  -0.297  1.00  0.00     0.025 A 
HETATM    6  C   LIG     1      -2.810  -0.579  -1.262  1.00  0.00     0.026 A 
HETATM    7  C   LIG     1      -1.414  -0.644  -1.176  1.00  0.00     0.045 A 
HETATM    8 CL   LIG     1      -0.539  -1.469  -2.463  1.00  0.00    -0.083 Cl
ENDROOT
BRANCH   1   9
HETATM    9  C   LIG     1       0.727  -0.065   0.036  1.00  0.00    -0.023 A 
HETATM   10  C   LIG     1       1.471   1.123   0.128  1.00  0.00     0.036 A 
HETATM   11  C   LIG     1       2.862   1.076   0.278  1.00  0.00     0.034 A 
HETATM   12 CL   LIG     1       3.784   2.564   0.381  1.00  0.00    -0.084 Cl
HETATM   13  C   LIG     1       3.516  -0.158   0.345  1.00  0.00     0.024 A 
HETATM   14  C   LIG     1       2.781  -1.344   0.268  1.00  0.00     0.003 A 
HETATM   15  C   LIG     1       1.392  -1.301   0.118  1.00  0.00     0.012 A 
ENDBRANCH   1   9
TORSDOF 1
