REMARK  1 active torsions:
REMARK  status: ('A' for Active; 'I' for Inactive)
REMARK    1  A    between atoms: C_5  and  C_6 
ROOT
HETATM    1  C   LIG     1       0.758  -0.099  -0.017  1.00  0.00    -0.003 A 
HETATM    2  C   LIG     1       1.428  -0.578   1.121  1.00  0.00     0.014 A 
HETATM    3  C   LIG     1       2.814  -0.734   1.115  1.00  0.00     0.003 A 
HETATM    4  C   LIG     1       3.549  -0.419  -0.028  1.00  0.00     0.026 A 
HETATM    5  C   LIG     1       2.901   0.047  -1.176  1.00  0.00     0.056 A 
HETATM    6 CL   LIG     1       3.869   0.414  -2.599  1.00  0.00    -0.083 Cl
HETATM    7  C   LIG     1       1.502   0.207  -1.181  1.00  0.00     0.066 A 
HETATM    8 CL   LIG     1       0.691   0.727  -2.662  1.00  0.00    -0.082 Cl
ENDROOT
BRANCH   1   9
HETATM    9  C   LIG     1      -0.711   0.069   0.035  1.00  0.00    -0.024 A 
HETATM   10  C   LIG     1      -1.295   1.325  -0.198  1.00  0.00     0.014 A 
HETATM   11  C   LIG     1      -2.683   1.482  -0.129  1.00  0.00     0.024 A 
HETATM   12  C   LIG     1      -3.498   0.388   0.181  1.00  0.00     0.034 A 
HETATM   13 CL   LIG     1      -5.238   0.587   0.268  1.00  0.00    -0.084 Cl
HETATM   14  C   LIG     1      -2.922  -0.863   0.427  1.00  0.00     0.024 A 
HETATM   15  C   LIG     1      -1.535  -1.022   0.359  1.00  0.00     0.014 A 
ENDBRANCH   1   9
TORSDOF 1
