MODEL 1
REMARK VINA RESULT:      -8.1      0.000      0.000
REMARK  1 active torsions:
REMARK  status: ('A' for Active; 'I' for Inactive)
REMARK    1  A    between atoms: C_7  and  C_8 
ROOT
HETATM    1  C   LIG     1      16.879  35.656  22.656  1.00  0.00    -0.023 A 
HETATM    2  C   LIG     1      15.740  34.882  22.384  1.00  0.00     0.014 A 
HETATM    3  C   LIG     1      15.348  34.643  21.065  1.00  0.00     0.026 A 
HETATM    4  C   LIG     1      16.082  35.180  20.002  1.00  0.00     0.055 A 
HETATM    5 CL   LIG     1      15.556  34.857  18.355  1.00  0.00    -0.083 Cl
HETATM    6  C   LIG     1      17.215  35.968  20.264  1.00  0.00     0.056 A 
HETATM    7 CL   LIG     1      18.158  36.672  18.958  1.00  0.00    -0.083 Cl
HETATM    8  C   LIG     1      17.606  36.207  21.587  1.00  0.00     0.038 A 
ENDROOT
BRANCH   1   9
HETATM    9  C   LIG     1      17.282  35.921  24.055  1.00  0.00    -0.004 A 
HETATM   10  C   LIG     1      17.409  37.236  24.558  1.00  0.00     0.045 A 
HETATM   11 CL   LIG     1      17.176  38.650  23.534  1.00  0.00    -0.083 Cl
HETATM   12  C   LIG     1      17.781  37.440  25.893  1.00  0.00     0.024 A 
HETATM   13  C   LIG     1      18.031  36.350  26.730  1.00  0.00     0.002 A 
HETATM   14  C   LIG     1      17.919  35.050  26.236  1.00  0.00     0.001 A 
HETATM   15  C   LIG     1      17.549  34.834  24.907  1.00  0.00     0.014 A 
ENDBRANCH   1   9
TORSDOF 1
ENDMDL
MODEL 2
REMARK VINA RESULT:      -6.7      2.863      4.105
REMARK  1 active torsions:
REMARK  status: ('A' for Active; 'I' for Inactive)
REMARK    1  A    between atoms: C_7  and  C_8 
ROOT
HETATM    1  C   LIG     1      17.056  35.902  20.584  1.00  0.00    -0.023 A 
HETATM    2  C   LIG     1      16.755  35.281  21.806  1.00  0.00     0.014 A 
HETATM    3  C   LIG     1      15.923  34.159  21.840  1.00  0.00     0.026 A 
HETATM    4  C   LIG     1      15.375  33.651  20.658  1.00  0.00     0.055 A 
HETATM    5 CL   LIG     1      14.332  32.238  20.742  1.00  0.00    -0.083 Cl
HETATM    6  C   LIG     1      15.660  34.274  19.431  1.00  0.00     0.056 A 
HETATM    7 CL   LIG     1      14.982  33.674  17.924  1.00  0.00    -0.083 Cl
HETATM    8  C   LIG     1      16.494  35.398  19.400  1.00  0.00     0.038 A 
ENDROOT
BRANCH   1   9
HETATM    9  C   LIG     1      17.926  37.100  20.553  1.00  0.00    -0.004 A 
HETATM   10  C   LIG     1      17.715  38.196  21.421  1.00  0.00     0.045 A 
HETATM   11 CL   LIG     1      16.356  38.248  22.540  1.00  0.00    -0.083 Cl
HETATM   12  C   LIG     1      18.571  39.303  21.366  1.00  0.00     0.024 A 
HETATM   13  C   LIG     1      19.630  39.333  20.456  1.00  0.00     0.002 A 
HETATM   14  C   LIG     1      19.836  38.259  19.589  1.00  0.00     0.001 A 
HETATM   15  C   LIG     1      18.989  37.149  19.634  1.00  0.00     0.014 A 
ENDBRANCH   1   9
TORSDOF 1
ENDMDL
MODEL 3
REMARK VINA RESULT:      -6.7      2.786      3.624
REMARK  1 active torsions:
REMARK  status: ('A' for Active; 'I' for Inactive)
REMARK    1  A    between atoms: C_7  and  C_8 
ROOT
HETATM    1  C   LIG     1      16.454  35.593  20.680  1.00  0.00    -0.023 A 
HETATM    2  C   LIG     1      16.260  34.474  21.505  1.00  0.00     0.014 A 
HETATM    3  C   LIG     1      15.714  33.299  20.983  1.00  0.00     0.026 A 
HETATM    4  C   LIG     1      15.348  33.229  19.635  1.00  0.00     0.055 A 
HETATM    5 CL   LIG     1      14.664  31.733  19.014  1.00  0.00    -0.083 Cl
HETATM    6  C   LIG     1      15.525  34.349  18.804  1.00  0.00     0.056 A 
HETATM    7 CL   LIG     1      15.067  34.307  17.107  1.00  0.00    -0.083 Cl
HETATM    8  C   LIG     1      16.073  35.525  19.330  1.00  0.00     0.038 A 
ENDROOT
BRANCH   1   9
HETATM    9  C   LIG     1      17.019  36.841  21.240  1.00  0.00    -0.004 A 
HETATM   10  C   LIG     1      18.190  37.432  20.713  1.00  0.00     0.045 A 
HETATM   11 CL   LIG     1      19.103  36.681  19.407  1.00  0.00    -0.083 Cl
HETATM   12  C   LIG     1      18.681  38.621  21.266  1.00  0.00     0.024 A 
HETATM   13  C   LIG     1      18.023  39.226  22.339  1.00  0.00     0.002 A 
HETATM   14  C   LIG     1      16.873  38.640  22.873  1.00  0.00     0.001 A 
HETATM   15  C   LIG     1      16.374  37.455  22.329  1.00  0.00     0.014 A 
ENDBRANCH   1   9
TORSDOF 1
ENDMDL
MODEL 4
REMARK VINA RESULT:      -6.7      4.911      7.321
REMARK  1 active torsions:
REMARK  status: ('A' for Active; 'I' for Inactive)
REMARK    1  A    between atoms: C_7  and  C_8 
ROOT
HETATM    1  C   LIG     1      14.603  32.090  17.216  1.00  0.00    -0.023 A 
HETATM    2  C   LIG     1      13.442  31.320  17.387  1.00  0.00     0.014 A 
HETATM    3  C   LIG     1      13.010  30.462  16.373  1.00  0.00     0.026 A 
HETATM    4  C   LIG     1      13.726  30.367  15.175  1.00  0.00     0.055 A 
HETATM    5 CL   LIG     1      13.151  29.276  13.922  1.00  0.00    -0.083 Cl
HETATM    6  C   LIG     1      14.882  31.144  14.990  1.00  0.00     0.056 A 
HETATM    7 CL   LIG     1      15.805  31.065  13.495  1.00  0.00    -0.083 Cl
HETATM    8  C   LIG     1      15.313  32.004  16.007  1.00  0.00     0.038 A 
ENDROOT
BRANCH   1   9
HETATM    9  C   LIG     1      15.049  33.010  18.287  1.00  0.00    -0.004 A 
HETATM   10  C   LIG     1      15.243  32.569  19.616  1.00  0.00     0.045 A 
HETATM   11 CL   LIG     1      14.889  30.915  20.108  1.00  0.00    -0.083 Cl
HETATM   12  C   LIG     1      15.678  33.472  20.594  1.00  0.00     0.024 A 
HETATM   13  C   LIG     1      15.919  34.808  20.265  1.00  0.00     0.002 A 
HETATM   14  C   LIG     1      15.717  35.252  18.957  1.00  0.00     0.001 A 
HETATM   15  C   LIG     1      15.283  34.361  17.973  1.00  0.00     0.014 A 
ENDBRANCH   1   9
TORSDOF 1
ENDMDL
MODEL 5
REMARK VINA RESULT:      -6.3      2.080      3.249
REMARK  1 active torsions:
REMARK  status: ('A' for Active; 'I' for Inactive)
REMARK    1  A    between atoms: C_7  and  C_8 
ROOT
HETATM    1  C   LIG     1      18.011  37.543  22.744  1.00  0.00    -0.023 A 
HETATM    2  C   LIG     1      18.180  38.937  22.741  1.00  0.00     0.014 A 
HETATM    3  C   LIG     1      18.368  39.621  21.538  1.00  0.00     0.026 A 
HETATM    4  C   LIG     1      18.398  38.923  20.326  1.00  0.00     0.055 A 
HETATM    5 CL   LIG     1      18.637  39.820  18.833  1.00  0.00    -0.083 Cl
HETATM    6  C   LIG     1      18.244  37.527  20.320  1.00  0.00     0.056 A 
HETATM    7 CL   LIG     1      18.288  36.611  18.821  1.00  0.00    -0.083 Cl
HETATM    8  C   LIG     1      18.056  36.843  21.527  1.00  0.00     0.038 A 
ENDROOT
BRANCH   1   9
HETATM    9  C   LIG     1      17.828  36.819  24.022  1.00  0.00    -0.004 A 
HETATM   10  C   LIG     1      17.192  35.557  24.079  1.00  0.00     0.045 A 
HETATM   11 CL   LIG     1      16.502  34.798  22.648  1.00  0.00    -0.083 Cl
HETATM   12  C   LIG     1      17.052  34.902  25.309  1.00  0.00     0.024 A 
HETATM   13  C   LIG     1      17.534  35.489  26.481  1.00  0.00     0.002 A 
HETATM   14  C   LIG     1      18.152  36.740  26.433  1.00  0.00     0.001 A 
HETATM   15  C   LIG     1      18.297  37.403  25.212  1.00  0.00     0.014 A 
ENDBRANCH   1   9
TORSDOF 1
ENDMDL
MODEL 6
REMARK VINA RESULT:      -6.2      8.231     11.192
REMARK  1 active torsions:
REMARK  status: ('A' for Active; 'I' for Inactive)
REMARK    1  A    between atoms: C_7  and  C_8 
ROOT
HETATM    1  C   LIG     1      17.787  33.443  13.291  1.00  0.00    -0.023 A 
HETATM    2  C   LIG     1      17.710  34.144  14.504  1.00  0.00     0.014 A 
HETATM    3  C   LIG     1      16.810  33.744  15.494  1.00  0.00     0.026 A 
HETATM    4  C   LIG     1      15.970  32.645  15.283  1.00  0.00     0.055 A 
HETATM    5 CL   LIG     1      14.850  32.172  16.553  1.00  0.00    -0.083 Cl
HETATM    6  C   LIG     1      16.030  31.945  14.066  1.00  0.00     0.056 A 
HETATM    7 CL   LIG     1      14.985  30.567  13.755  1.00  0.00    -0.083 Cl
HETATM    8  C   LIG     1      16.933  32.348  13.075  1.00  0.00     0.038 A 
ENDROOT
BRANCH   1   9
HETATM    9  C   LIG     1      18.732  33.879  12.238  1.00  0.00    -0.004 A 
HETATM   10  C   LIG     1      18.377  34.853  11.277  1.00  0.00     0.045 A 
HETATM   11 CL   LIG     1      16.762  35.553  11.214  1.00  0.00    -0.083 Cl
HETATM   12  C   LIG     1      19.307  35.245  10.306  1.00  0.00     0.024 A 
HETATM   13  C   LIG     1      20.582  34.678  10.279  1.00  0.00     0.002 A 
HETATM   14  C   LIG     1      20.935  33.707  11.218  1.00  0.00     0.001 A 
HETATM   15  C   LIG     1      20.016  33.307  12.191  1.00  0.00     0.014 A 
ENDBRANCH   1   9
TORSDOF 1
ENDMDL
MODEL 7
REMARK VINA RESULT:      -6.2      8.029     10.951
REMARK  1 active torsions:
REMARK  status: ('A' for Active; 'I' for Inactive)
REMARK    1  A    between atoms: C_7  and  C_8 
ROOT
HETATM    1  C   LIG     1      14.049  29.644  14.617  1.00  0.00    -0.023 A 
HETATM    2  C   LIG     1      15.012  28.690  14.254  1.00  0.00     0.014 A 
HETATM    3  C   LIG     1      14.652  27.582  13.483  1.00  0.00     0.026 A 
HETATM    4  C   LIG     1      13.326  27.409  13.073  1.00  0.00     0.055 A 
HETATM    5 CL   LIG     1      12.911  26.002  12.103  1.00  0.00    -0.083 Cl
HETATM    6  C   LIG     1      12.352  28.351  13.443  1.00  0.00     0.056 A 
HETATM    7 CL   LIG     1      10.672  28.165  12.958  1.00  0.00    -0.083 Cl
HETATM    8  C   LIG     1      12.715  29.460  14.216  1.00  0.00     0.038 A 
ENDROOT
BRANCH   1   9
HETATM    9  C   LIG     1      14.431  30.808  15.447  1.00  0.00    -0.004 A 
HETATM   10  C   LIG     1      15.311  31.807  14.970  1.00  0.00     0.045 A 
HETATM   11 CL   LIG     1      16.077  31.693  13.388  1.00  0.00    -0.083 Cl
HETATM   12  C   LIG     1      15.635  32.898  15.786  1.00  0.00     0.024 A 
HETATM   13  C   LIG     1      15.096  33.005  17.070  1.00  0.00     0.002 A 
HETATM   14  C   LIG     1      14.237  32.016  17.551  1.00  0.00     0.001 A 
HETATM   15  C   LIG     1      13.906  30.923  16.747  1.00  0.00     0.014 A 
ENDBRANCH   1   9
TORSDOF 1
ENDMDL
MODEL 8
REMARK VINA RESULT:      -6.0      7.833     10.649
REMARK  1 active torsions:
REMARK  status: ('A' for Active; 'I' for Inactive)
REMARK    1  A    between atoms: C_7  and  C_8 
ROOT
HETATM    1  C   LIG     1      14.168  29.801  14.753  1.00  0.00    -0.023 A 
HETATM    2  C   LIG     1      12.815  29.473  14.576  1.00  0.00     0.014 A 
HETATM    3  C   LIG     1      12.453  28.359  13.814  1.00  0.00     0.026 A 
HETATM    4  C   LIG     1      13.436  27.566  13.213  1.00  0.00     0.055 A 
HETATM    5 CL   LIG     1      12.942  26.173  12.261  1.00  0.00    -0.083 Cl
HETATM    6  C   LIG     1      14.793  27.895  13.372  1.00  0.00     0.056 A 
HETATM    7 CL   LIG     1      16.059  26.932  12.624  1.00  0.00    -0.083 Cl
HETATM    8  C   LIG     1      15.153  29.011  14.136  1.00  0.00     0.038 A 
ENDROOT
BRANCH   1   9
HETATM    9  C   LIG     1      14.547  30.991  15.548  1.00  0.00    -0.004 A 
HETATM   10  C   LIG     1      15.392  31.997  15.027  1.00  0.00     0.045 A 
HETATM   11 CL   LIG     1      16.118  31.865  13.427  1.00  0.00    -0.083 Cl
HETATM   12  C   LIG     1      15.714  33.112  15.810  1.00  0.00     0.024 A 
HETATM   13  C   LIG     1      15.209  33.235  17.106  1.00  0.00     0.002 A 
HETATM   14  C   LIG     1      14.384  32.239  17.631  1.00  0.00     0.001 A 
HETATM   15  C   LIG     1      14.055  31.122  16.859  1.00  0.00     0.014 A 
ENDBRANCH   1   9
TORSDOF 1
ENDMDL
MODEL 9
REMARK VINA RESULT:      -6.0      7.603     10.358
REMARK  1 active torsions:
REMARK  status: ('A' for Active; 'I' for Inactive)
REMARK    1  A    between atoms: C_7  and  C_8 
ROOT
HETATM    1  C   LIG     1      14.645  30.400  14.653  1.00  0.00    -0.023 A 
HETATM    2  C   LIG     1      13.264  30.213  14.819  1.00  0.00     0.014 A 
HETATM    3  C   LIG     1      12.653  29.037  14.376  1.00  0.00     0.026 A 
HETATM    4  C   LIG     1      13.411  28.038  13.757  1.00  0.00     0.055 A 
HETATM    5 CL   LIG     1      12.607  26.572  13.213  1.00  0.00    -0.083 Cl
HETATM    6  C   LIG     1      14.792  28.222  13.574  1.00  0.00     0.056 A 
HETATM    7 CL   LIG     1      15.779  26.997  12.789  1.00  0.00    -0.083 Cl
HETATM    8  C   LIG     1      15.402  29.401  14.018  1.00  0.00     0.038 A 
ENDROOT
BRANCH   1   9
HETATM    9  C   LIG     1      15.286  31.654  15.109  1.00  0.00    -0.004 A 
HETATM   10  C   LIG     1      14.891  32.302  16.302  1.00  0.00     0.045 A 
HETATM   11 CL   LIG     1      13.555  31.708  17.284  1.00  0.00    -0.083 Cl
HETATM   12  C   LIG     1      15.534  33.480  16.701  1.00  0.00     0.024 A 
HETATM   13  C   LIG     1      16.563  34.021  15.927  1.00  0.00     0.002 A 
HETATM   14  C   LIG     1      16.949  33.393  14.742  1.00  0.00     0.001 A 
HETATM   15  C   LIG     1      16.315  32.217  14.333  1.00  0.00     0.014 A 
ENDBRANCH   1   9
TORSDOF 1
ENDMDL
MODEL 10
REMARK VINA RESULT:      -6.0      5.316      9.176
REMARK  1 active torsions:
REMARK  status: ('A' for Active; 'I' for Inactive)
REMARK    1  A    between atoms: C_7  and  C_8 
ROOT
HETATM    1  C   LIG     1      14.880  32.380  16.966  1.00  0.00    -0.023 A 
HETATM    2  C   LIG     1      15.228  33.715  16.709  1.00  0.00     0.014 A 
HETATM    3  C   LIG     1      15.427  34.607  17.766  1.00  0.00     0.026 A 
HETATM    4  C   LIG     1      15.272  34.180  19.089  1.00  0.00     0.055 A 
HETATM    5 CL   LIG     1      15.531  35.333  20.391  1.00  0.00    -0.083 Cl
HETATM    6  C   LIG     1      14.909  32.849  19.355  1.00  0.00     0.056 A 
HETATM    7 CL   LIG     1      14.692  32.275  21.003  1.00  0.00    -0.083 Cl
HETATM    8  C   LIG     1      14.710  31.957  18.295  1.00  0.00     0.038 A 
ENDROOT
BRANCH   1   9
HETATM    9  C   LIG     1      14.654  31.441  15.844  1.00  0.00    -0.004 A 
HETATM   10  C   LIG     1      15.584  31.307  14.787  1.00  0.00     0.045 A 
HETATM   11 CL   LIG     1      17.032  32.305  14.689  1.00  0.00    -0.083 Cl
HETATM   12  C   LIG     1      15.336  30.397  13.752  1.00  0.00     0.024 A 
HETATM   13  C   LIG     1      14.174  29.622  13.755  1.00  0.00     0.002 A 
HETATM   14  C   LIG     1      13.247  29.759  14.790  1.00  0.00     0.001 A 
HETATM   15  C   LIG     1      13.483  30.663  15.827  1.00  0.00     0.014 A 
ENDBRANCH   1   9
TORSDOF 1
ENDMDL
MODEL 11
REMARK VINA RESULT:      -5.9      1.842      5.561
REMARK  1 active torsions:
REMARK  status: ('A' for Active; 'I' for Inactive)
REMARK    1  A    between atoms: C_7  and  C_8 
ROOT
HETATM    1  C   LIG     1      16.640  35.840  22.809  1.00  0.00    -0.023 A 
HETATM    2  C   LIG     1      16.448  37.216  23.011  1.00  0.00     0.014 A 
HETATM    3  C   LIG     1      16.828  37.811  24.216  1.00  0.00     0.026 A 
HETATM    4  C   LIG     1      17.396  37.041  25.236  1.00  0.00     0.055 A 
HETATM    5 CL   LIG     1      17.861  37.826  26.738  1.00  0.00    -0.083 Cl
HETATM    6  C   LIG     1      17.579  35.660  25.048  1.00  0.00     0.056 A 
HETATM    7 CL   LIG     1      18.277  34.654  26.309  1.00  0.00    -0.083 Cl
HETATM    8  C   LIG     1      17.197  35.066  23.840  1.00  0.00     0.038 A 
ENDROOT
BRANCH   1   9
HETATM    9  C   LIG     1      16.221  35.210  21.537  1.00  0.00    -0.004 A 
HETATM   10  C   LIG     1      16.751  35.621  20.292  1.00  0.00     0.045 A 
HETATM   11 CL   LIG     1      17.881  36.966  20.160  1.00  0.00    -0.083 Cl
HETATM   12  C   LIG     1      16.336  34.988  19.114  1.00  0.00     0.024 A 
HETATM   13  C   LIG     1      15.399  33.953  19.160  1.00  0.00     0.002 A 
HETATM   14  C   LIG     1      14.864  33.551  20.385  1.00  0.00     0.001 A 
HETATM   15  C   LIG     1      15.269  34.175  21.567  1.00  0.00     0.014 A 
ENDBRANCH   1   9
TORSDOF 1
ENDMDL
MODEL 12
REMARK VINA RESULT:      -5.9      8.439     12.012
REMARK  1 active torsions:
REMARK  status: ('A' for Active; 'I' for Inactive)
REMARK    1  A    between atoms: C_7  and  C_8 
ROOT
HETATM    1  C   LIG     1      13.536  29.912  14.719  1.00  0.00    -0.023 A 
HETATM    2  C   LIG     1      12.941  30.331  15.920  1.00  0.00     0.014 A 
HETATM    3  C   LIG     1      13.499  31.382  16.653  1.00  0.00     0.026 A 
HETATM    4  C   LIG     1      14.658  32.020  16.203  1.00  0.00     0.055 A 
HETATM    5 CL   LIG     1      15.329  33.338  17.154  1.00  0.00    -0.083 Cl
HETATM    6  C   LIG     1      15.269  31.599  15.009  1.00  0.00     0.056 A 
HETATM    7 CL   LIG     1      16.734  32.366  14.414  1.00  0.00    -0.083 Cl
HETATM    8  C   LIG     1      14.709  30.546  14.276  1.00  0.00     0.038 A 
ENDROOT
BRANCH   1   9
HETATM    9  C   LIG     1      12.953  28.789  13.953  1.00  0.00    -0.004 A 
HETATM   10  C   LIG     1      13.720  27.659  13.587  1.00  0.00     0.045 A 
HETATM   11 CL   LIG     1      15.440  27.546  13.946  1.00  0.00    -0.083 Cl
HETATM   12  C   LIG     1      13.123  26.612  12.873  1.00  0.00     0.024 A 
HETATM   13  C   LIG     1      11.774  26.680  12.515  1.00  0.00     0.002 A 
HETATM   14  C   LIG     1      11.015  27.798  12.863  1.00  0.00     0.001 A 
HETATM   15  C   LIG     1      11.599  28.848  13.575  1.00  0.00     0.014 A 
ENDBRANCH   1   9
TORSDOF 1
ENDMDL
MODEL 13
REMARK VINA RESULT:      -5.8      8.069      9.491
REMARK  1 active torsions:
REMARK  status: ('A' for Active; 'I' for Inactive)
REMARK    1  A    between atoms: C_7  and  C_8 
ROOT
HETATM    1  C   LIG     1      16.526  32.546  14.635  1.00  0.00    -0.023 A 
HETATM    2  C   LIG     1      17.771  32.354  15.254  1.00  0.00     0.014 A 
HETATM    3  C   LIG     1      18.922  32.933  14.716  1.00  0.00     0.026 A 
HETATM    4  C   LIG     1      18.847  33.702  13.550  1.00  0.00     0.055 A 
HETATM    5 CL   LIG     1      20.319  34.414  12.903  1.00  0.00    -0.083 Cl
HETATM    6  C   LIG     1      17.607  33.889  12.916  1.00  0.00     0.056 A 
HETATM    7 CL   LIG     1      17.471  34.838  11.443  1.00  0.00    -0.083 Cl
HETATM    8  C   LIG     1      16.455  33.308  13.457  1.00  0.00     0.038 A 
ENDROOT
BRANCH   1   9
HETATM    9  C   LIG     1      15.310  31.918  15.199  1.00  0.00    -0.004 A 
HETATM   10  C   LIG     1      14.589  32.512  16.261  1.00  0.00     0.045 A 
HETATM   11 CL   LIG     1      15.133  33.995  17.040  1.00  0.00    -0.083 Cl
HETATM   12  C   LIG     1      13.436  31.889  16.755  1.00  0.00     0.024 A 
HETATM   13  C   LIG     1      12.995  30.683  16.208  1.00  0.00     0.002 A 
HETATM   14  C   LIG     1      13.709  30.086  15.168  1.00  0.00     0.001 A 
HETATM   15  C   LIG     1      14.860  30.697  14.666  1.00  0.00     0.014 A 
ENDBRANCH   1   9
TORSDOF 1
ENDMDL
MODEL 14
REMARK VINA RESULT:      -5.7      5.112      9.103
REMARK  1 active torsions:
REMARK  status: ('A' for Active; 'I' for Inactive)
REMARK    1  A    between atoms: C_7  and  C_8 
ROOT
HETATM    1  C   LIG     1      15.316  32.654  17.078  1.00  0.00    -0.023 A 
HETATM    2  C   LIG     1      15.466  34.038  17.260  1.00  0.00     0.014 A 
HETATM    3  C   LIG     1      15.394  34.592  18.540  1.00  0.00     0.026 A 
HETATM    4  C   LIG     1      15.163  33.775  19.651  1.00  0.00     0.055 A 
HETATM    5 CL   LIG     1      15.079  34.510  21.246  1.00  0.00    -0.083 Cl
HETATM    6  C   LIG     1      14.998  32.391  19.478  1.00  0.00     0.056 A 
HETATM    7 CL   LIG     1      14.695  31.330  20.847  1.00  0.00    -0.083 Cl
HETATM    8  C   LIG     1      15.071  31.837  18.194  1.00  0.00     0.038 A 
ENDROOT
BRANCH   1   9
HETATM    9  C   LIG     1      15.377  32.071  15.719  1.00  0.00    -0.004 A 
HETATM   10  C   LIG     1      14.490  31.052  15.304  1.00  0.00     0.045 A 
HETATM   11 CL   LIG     1      13.305  30.347  16.402  1.00  0.00    -0.083 Cl
HETATM   12  C   LIG     1      14.575  30.539  14.004  1.00  0.00     0.024 A 
HETATM   13  C   LIG     1      15.535  31.026  13.114  1.00  0.00     0.002 A 
HETATM   14  C   LIG     1      16.422  32.024  13.521  1.00  0.00     0.001 A 
HETATM   15  C   LIG     1      16.346  32.543  14.815  1.00  0.00     0.014 A 
ENDBRANCH   1   9
TORSDOF 1
ENDMDL
MODEL 15
REMARK VINA RESULT:      -5.7      8.015     10.974
REMARK  1 active torsions:
REMARK  status: ('A' for Active; 'I' for Inactive)
REMARK    1  A    between atoms: C_7  and  C_8 
ROOT
HETATM    1  C   LIG     1      15.447  31.061  14.423  1.00  0.00    -0.023 A 
HETATM    2  C   LIG     1      15.259  31.678  15.669  1.00  0.00     0.014 A 
HETATM    3  C   LIG     1      15.862  32.908  15.944  1.00  0.00     0.026 A 
HETATM    4  C   LIG     1      16.665  33.532  14.983  1.00  0.00     0.055 A 
HETATM    5 CL   LIG     1      17.406  35.079  15.366  1.00  0.00    -0.083 Cl
HETATM    6  C   LIG     1      16.870  32.914  13.738  1.00  0.00     0.056 A 
HETATM    7 CL   LIG     1      17.881  33.658  12.507  1.00  0.00    -0.083 Cl
HETATM    8  C   LIG     1      16.265  31.681  13.464  1.00  0.00     0.038 A 
ENDROOT
BRANCH   1   9
HETATM    9  C   LIG     1      14.820  29.750  14.140  1.00  0.00    -0.004 A 
HETATM   10  C   LIG     1      13.482  29.471  14.502  1.00  0.00     0.045 A 
HETATM   11 CL   LIG     1      12.496  30.632  15.387  1.00  0.00    -0.083 Cl
HETATM   12  C   LIG     1      12.925  28.221  14.204  1.00  0.00     0.024 A 
HETATM   13  C   LIG     1      13.685  27.246  13.554  1.00  0.00     0.002 A 
HETATM   14  C   LIG     1      15.010  27.511  13.204  1.00  0.00     0.001 A 
HETATM   15  C   LIG     1      15.576  28.754  13.497  1.00  0.00     0.014 A 
ENDBRANCH   1   9
TORSDOF 1
ENDMDL
MODEL 16
REMARK VINA RESULT:      -5.2     16.079     17.060
REMARK  1 active torsions:
REMARK  status: ('A' for Active; 'I' for Inactive)
REMARK    1  A    between atoms: C_7  and  C_8 
ROOT
HETATM    1  C   LIG     1      27.112  28.794  33.924  1.00  0.00    -0.023 A 
HETATM    2  C   LIG     1      26.261  27.873  33.293  1.00  0.00     0.014 A 
HETATM    3  C   LIG     1      26.617  27.311  32.065  1.00  0.00     0.026 A 
HETATM    4  C   LIG     1      27.821  27.667  31.448  1.00  0.00     0.055 A 
HETATM    5 CL   LIG     1      28.234  26.938  29.902  1.00  0.00    -0.083 Cl
HETATM    6  C   LIG     1      28.672  28.599  32.065  1.00  0.00     0.056 A 
HETATM    7 CL   LIG     1      30.188  29.083  31.317  1.00  0.00    -0.083 Cl
HETATM    8  C   LIG     1      28.313  29.161  33.295  1.00  0.00     0.038 A 
ENDROOT
BRANCH   1   9
HETATM    9  C   LIG     1      26.724  29.400  35.217  1.00  0.00    -0.004 A 
HETATM   10  C   LIG     1      26.902  28.717  36.443  1.00  0.00     0.045 A 
HETATM   11 CL   LIG     1      27.519  27.068  36.508  1.00  0.00    -0.083 Cl
HETATM   12  C   LIG     1      26.532  29.333  37.644  1.00  0.00     0.024 A 
HETATM   13  C   LIG     1      25.986  30.619  37.641  1.00  0.00     0.002 A 
HETATM   14  C   LIG     1      25.797  31.293  36.433  1.00  0.00     0.001 A 
HETATM   15  C   LIG     1      26.161  30.689  35.228  1.00  0.00     0.014 A 
ENDBRANCH   1   9
TORSDOF 1
ENDMDL
