REMARK  1 active torsions:
REMARK  status: ('A' for Active; 'I' for Inactive)
REMARK    1  A    between atoms: C_8  and  C_9 
ROOT
HETATM    1 CL   LIG     1      -0.460   2.756   0.086  1.00  0.00    -0.082 Cl
HETATM    2  C   LIG     1      -1.393   1.260   0.014  1.00  0.00     0.066 A 
HETATM    3  C   LIG     1      -2.800   1.309  -0.022  1.00  0.00     0.056 A 
HETATM    4 CL   LIG     1      -3.661   2.843  -0.028  1.00  0.00    -0.083 Cl
HETATM    5  C   LIG     1      -3.541   0.123  -0.051  1.00  0.00     0.026 A 
HETATM    6  C   LIG     1      -2.892  -1.113  -0.039  1.00  0.00     0.003 A 
HETATM    7  C   LIG     1      -1.498  -1.171  -0.004  1.00  0.00     0.014 A 
HETATM    8  C   LIG     1      -0.740   0.008   0.014  1.00  0.00    -0.001 A 
ENDROOT
BRANCH   8   9
HETATM    9  C   LIG     1       0.733  -0.088   0.046  1.00  0.00    -0.001 A 
HETATM   10  C   LIG     1       1.365  -0.465   1.240  1.00  0.00     0.014 A 
HETATM   11  C   LIG     1       2.756  -0.561   1.303  1.00  0.00     0.003 A 
HETATM   12  C   LIG     1       3.528  -0.285   0.173  1.00  0.00     0.026 A 
HETATM   13  C   LIG     1       2.913   0.082  -1.029  1.00  0.00     0.056 A 
HETATM   14  C   LIG     1       1.511   0.180  -1.101  1.00  0.00     0.066 A 
HETATM   15 CL   LIG     1       3.926   0.409  -2.429  1.00  0.00    -0.083 Cl
HETATM   16 CL   LIG     1       0.735   0.609  -2.628  1.00  0.00    -0.082 Cl
ENDBRANCH   8   9
TORSDOF 1
