REMARK  1 active torsions:
REMARK  status: ('A' for Active; 'I' for Inactive)
REMARK    1  A    between atoms: C_7  and  C_8 
ROOT
HETATM    1  C   LIG     1       0.672  -0.065   0.101  1.00  0.00    -0.023 A 
HETATM    2  C   LIG     1       1.219  -1.209   0.703  1.00  0.00     0.014 A 
HETATM    3  C   LIG     1       2.598  -1.309   0.903  1.00  0.00     0.026 A 
HETATM    4  C   LIG     1       3.447  -0.274   0.498  1.00  0.00     0.055 A 
HETATM    5 CL   LIG     1       5.177  -0.437   0.767  1.00  0.00    -0.083 Cl
HETATM    6  C   LIG     1       2.910   0.869  -0.118  1.00  0.00     0.056 A 
HETATM    7 CL   LIG     1       3.943   2.187  -0.653  1.00  0.00    -0.083 Cl
HETATM    8  C   LIG     1       1.528   0.967  -0.318  1.00  0.00     0.038 A 
ENDROOT
BRANCH   1   9
HETATM    9  C   LIG     1      -0.788   0.031  -0.124  1.00  0.00    -0.004 A 
HETATM   10  C   LIG     1      -1.550   1.110   0.380  1.00  0.00     0.045 A 
HETATM   11 CL   LIG     1      -0.831   2.370   1.379  1.00  0.00    -0.083 Cl
HETATM   12  C   LIG     1      -2.927   1.167   0.132  1.00  0.00     0.024 A 
HETATM   13  C   LIG     1      -3.554   0.162  -0.608  1.00  0.00     0.002 A 
HETATM   14  C   LIG     1      -2.809  -0.912  -1.098  1.00  0.00     0.001 A 
HETATM   15  C   LIG     1      -1.435  -0.980  -0.857  1.00  0.00     0.014 A 
ENDBRANCH   1   9
TORSDOF 1
