REMARK  3 active torsions:
REMARK  status: ('A' for Active; 'I' for Inactive)
REMARK    1  A    between atoms: C_2  and  N_3 
REMARK    2  A    between atoms: C_5  and  C_6 
REMARK    3  A    between atoms: C_6  and  O_7 
ROOT
HETATM    1  N   LIG     1       0.252   1.036  -0.116  1.00  0.00    -0.340 N 
HETATM    2  C   LIG     1       1.612   1.059   0.076  1.00  0.00     0.115 A 
HETATM    3  C   LIG     1       2.340  -0.113   0.336  1.00  0.00     0.104 A 
HETATM    4  C   LIG     1      -0.424  -0.160  -0.048  1.00  0.00     0.144 A 
HETATM    5  N   LIG     1      -1.775  -0.200  -0.241  1.00  0.00    -0.235 NA
HETATM    6  C   LIG     1      -2.493  -1.353  -0.181  1.00  0.00     0.033 A 
HETATM    7  C   LIG     1      -3.972  -1.321  -0.397  1.00  0.00     0.070 C 
HETATM    8  C   LIG     1      -1.844  -2.558   0.097  1.00  0.00     0.028 A 
HETATM    9  C   LIG     1      -0.465  -2.564   0.302  1.00  0.00     0.021 A 
HETATM   10  C   LIG     1       0.265  -1.364   0.230  1.00  0.00     0.061 A 
HETATM   11  C   LIG     1       1.652  -1.333   0.433  1.00  0.00     0.204 A 
HETATM   12  O   LIG     1       2.273  -2.392   0.727  1.00  0.00    -0.286 OA
ENDROOT
BRANCH   3  13
HETATM   13  C   LIG     1       3.809  -0.027   0.525  1.00  0.00     0.181 C 
HETATM   14  O   LIG     1       4.307   0.979   1.097  1.00  0.00    -0.646 OA
BRANCH  13  15
HETATM   15  O   LIG     1       4.663  -1.023   0.056  1.00  0.00    -0.772 OA
HETATM   16  H   LIG     1       4.332  -1.789  -0.517  1.00  0.00     0.167 HD
ENDBRANCH  13  15
ENDBRANCH   3  13
BRANCH   1  17
HETATM   17  C   LIG     1      -0.533   2.264  -0.401  1.00  0.00     0.125 C 
HETATM   18  C   LIG     1       0.266   3.570  -0.456  1.00  0.00     0.027 C 
ENDBRANCH   1  17
TORSDOF 3
