MODEL 1
REMARK VINA RESULT:      -7.1      0.000      0.000
REMARK  3 active torsions:
REMARK  status: ('A' for Active; 'I' for Inactive)
REMARK    1  A    between atoms: C_2  and  N_3 
REMARK    2  A    between atoms: C_5  and  C_6 
REMARK    3  A    between atoms: C_6  and  O_7 
ROOT
HETATM    1  N   LIG     1      15.457  31.046  14.280  1.00  0.00    -0.340 N 
HETATM    2  C   LIG     1      14.604  30.953  15.352  1.00  0.00     0.115 A 
HETATM    3  C   LIG     1      14.569  31.936  16.355  1.00  0.00     0.104 A 
HETATM    4  C   LIG     1      16.307  32.123  14.178  1.00  0.00     0.144 A 
HETATM    5  N   LIG     1      17.157  32.232  13.116  1.00  0.00    -0.235 NA
HETATM    6  C   LIG     1      18.020  33.273  12.968  1.00  0.00     0.033 A 
HETATM    7  C   LIG     1      18.927  33.324  11.781  1.00  0.00     0.070 C 
HETATM    8  C   LIG     1      18.062  34.279  13.936  1.00  0.00     0.028 A 
HETATM    9  C   LIG     1      17.212  34.207  15.038  1.00  0.00     0.021 A 
HETATM   10  C   LIG     1      16.320  33.128  15.174  1.00  0.00     0.061 A 
HETATM   11  C   LIG     1      15.453  33.023  16.271  1.00  0.00     0.204 A 
HETATM   12  O   LIG     1      15.486  33.889  17.189  1.00  0.00    -0.286 OA
ENDROOT
BRANCH   3  13
HETATM   13  C   LIG     1      13.620  31.785  17.485  1.00  0.00     0.181 C 
HETATM   14  O   LIG     1      12.402  31.562  17.251  1.00  0.00    -0.646 OA
BRANCH  13  15
HETATM   15  O   LIG     1      14.036  31.916  18.808  1.00  0.00    -0.772 OA
HETATM   16  H   LIG     1      14.507  31.168  19.300  1.00  0.00     0.167 HD
ENDBRANCH  13  15
ENDBRANCH   3  13
BRANCH   1  17
HETATM   17  C   LIG     1      15.501  30.021  13.206  1.00  0.00     0.125 C 
HETATM   18  C   LIG     1      15.276  28.574  13.654  1.00  0.00     0.027 C 
ENDBRANCH   1  17
TORSDOF 3
ENDMDL
MODEL 2
REMARK VINA RESULT:      -6.3      7.847      8.950
REMARK  3 active torsions:
REMARK  status: ('A' for Active; 'I' for Inactive)
REMARK    1  A    between atoms: C_2  and  N_3 
REMARK    2  A    between atoms: C_5  and  C_6 
REMARK    3  A    between atoms: C_6  and  O_7 
ROOT
HETATM    1  N   LIG     1      17.064  36.198  21.374  1.00  0.00    -0.340 N 
HETATM    2  C   LIG     1      16.877  35.921  22.706  1.00  0.00     0.115 A 
HETATM    3  C   LIG     1      17.389  36.756  23.712  1.00  0.00     0.104 A 
HETATM    4  C   LIG     1      17.775  37.316  21.005  1.00  0.00     0.144 A 
HETATM    5  N   LIG     1      17.966  37.607  19.684  1.00  0.00    -0.235 NA
HETATM    6  C   LIG     1      18.664  38.695  19.264  1.00  0.00     0.033 A 
HETATM    7  C   LIG     1      18.839  38.949  17.801  1.00  0.00     0.070 C 
HETATM    8  C   LIG     1      19.226  39.562  20.205  1.00  0.00     0.028 A 
HETATM    9  C   LIG     1      19.057  39.303  21.564  1.00  0.00     0.021 A 
HETATM   10  C   LIG     1      18.326  38.176  21.983  1.00  0.00     0.061 A 
HETATM   11  C   LIG     1      18.139  37.885  23.342  1.00  0.00     0.204 A 
HETATM   12  O   LIG     1      18.663  38.618  24.225  1.00  0.00    -0.286 OA
ENDROOT
BRANCH   3  13
HETATM   13  C   LIG     1      17.146  36.412  25.134  1.00  0.00     0.181 C 
HETATM   14  O   LIG     1      17.086  35.202  25.482  1.00  0.00    -0.646 OA
BRANCH  13  15
HETATM   15  O   LIG     1      16.951  37.397  26.099  1.00  0.00    -0.772 OA
HETATM   16  H   LIG     1      17.664  37.634  26.778  1.00  0.00     0.167 HD
ENDBRANCH  13  15
ENDBRANCH   3  13
BRANCH   1  17
HETATM   17  C   LIG     1      16.522  35.331  20.296  1.00  0.00     0.125 C 
HETATM   18  C   LIG     1      15.700  34.124  20.760  1.00  0.00     0.027 C 
ENDBRANCH   1  17
TORSDOF 3
ENDMDL
MODEL 3
REMARK VINA RESULT:      -6.0      8.303     10.207
REMARK  3 active torsions:
REMARK  status: ('A' for Active; 'I' for Inactive)
REMARK    1  A    between atoms: C_2  and  N_3 
REMARK    2  A    between atoms: C_5  and  C_6 
REMARK    3  A    between atoms: C_6  and  O_7 
ROOT
HETATM    1  N   LIG     1      17.393  36.123  21.554  1.00  0.00    -0.340 N 
HETATM    2  C   LIG     1      17.794  37.030  20.603  1.00  0.00     0.115 A 
HETATM    3  C   LIG     1      18.366  38.263  20.954  1.00  0.00     0.104 A 
HETATM    4  C   LIG     1      17.547  36.425  22.888  1.00  0.00     0.144 A 
HETATM    5  N   LIG     1      17.157  35.533  23.845  1.00  0.00    -0.235 NA
HETATM    6  C   LIG     1      17.282  35.781  25.176  1.00  0.00     0.033 A 
HETATM    7  C   LIG     1      16.828  34.760  26.169  1.00  0.00     0.070 C 
HETATM    8  C   LIG     1      17.819  36.996  25.605  1.00  0.00     0.028 A 
HETATM    9  C   LIG     1      18.229  37.938  24.662  1.00  0.00     0.021 A 
HETATM   10  C   LIG     1      18.101  37.663  23.289  1.00  0.00     0.061 A 
HETATM   11  C   LIG     1      18.500  38.588  22.313  1.00  0.00     0.204 A 
HETATM   12  O   LIG     1      18.954  39.715  22.656  1.00  0.00    -0.286 OA
ENDROOT
BRANCH   3  13
HETATM   13  C   LIG     1      18.789  39.197  19.882  1.00  0.00     0.181 C 
HETATM   14  O   LIG     1      17.986  39.490  18.956  1.00  0.00    -0.646 OA
BRANCH  13  15
HETATM   15  O   LIG     1      20.071  39.741  19.854  1.00  0.00    -0.772 OA
HETATM   16  H   LIG     1      20.346  40.435  19.170  1.00  0.00     0.167 HD
ENDBRANCH  13  15
ENDBRANCH   3  13
BRANCH   1  17
HETATM   17  C   LIG     1      16.795  34.811  21.202  1.00  0.00     0.125 C 
HETATM   18  C   LIG     1      15.667  34.847  20.166  1.00  0.00     0.027 C 
ENDBRANCH   1  17
TORSDOF 3
ENDMDL
MODEL 4
REMARK VINA RESULT:      -5.7      8.048      9.708
REMARK  3 active torsions:
REMARK  status: ('A' for Active; 'I' for Inactive)
REMARK    1  A    between atoms: C_2  and  N_3 
REMARK    2  A    between atoms: C_5  and  C_6 
REMARK    3  A    between atoms: C_6  and  O_7 
ROOT
HETATM    1  N   LIG     1      17.625  37.987  21.848  1.00  0.00    -0.340 N 
HETATM    2  C   LIG     1      17.879  38.347  23.149  1.00  0.00     0.115 A 
HETATM    3  C   LIG     1      17.584  37.490  24.222  1.00  0.00     0.104 A 
HETATM    4  C   LIG     1      17.064  36.761  21.579  1.00  0.00     0.144 A 
HETATM    5  N   LIG     1      16.810  36.387  20.290  1.00  0.00    -0.235 NA
HETATM    6  C   LIG     1      16.253  35.189  19.968  1.00  0.00     0.033 A 
HETATM    7  C   LIG     1      15.998  34.848  18.535  1.00  0.00     0.070 C 
HETATM    8  C   LIG     1      15.910  34.291  20.981  1.00  0.00     0.028 A 
HETATM    9  C   LIG     1      16.150  34.632  22.311  1.00  0.00     0.021 A 
HETATM   10  C   LIG     1      16.733  35.872  22.629  1.00  0.00     0.061 A 
HETATM   11  C   LIG     1      16.987  36.248  23.955  1.00  0.00     0.204 A 
HETATM   12  O   LIG     1      16.655  35.485  24.905  1.00  0.00    -0.286 OA
ENDROOT
BRANCH   3  13
HETATM   13  C   LIG     1      17.890  37.930  25.605  1.00  0.00     0.181 C 
HETATM   14  O   LIG     1      17.276  38.914  26.097  1.00  0.00    -0.646 OA
BRANCH  13  15
HETATM   15  O   LIG     1      18.867  37.298  26.371  1.00  0.00    -0.772 OA
HETATM   16  H   LIG     1      19.782  37.706  26.518  1.00  0.00     0.167 HD
ENDBRANCH  13  15
ENDBRANCH   3  13
BRANCH   1  17
HETATM   17  C   LIG     1      17.938  38.876  20.700  1.00  0.00     0.125 C 
HETATM   18  C   LIG     1      19.423  39.018  20.350  1.00  0.00     0.027 C 
ENDBRANCH   1  17
TORSDOF 3
ENDMDL
MODEL 5
REMARK VINA RESULT:      -5.6      6.946      9.319
REMARK  3 active torsions:
REMARK  status: ('A' for Active; 'I' for Inactive)
REMARK    1  A    between atoms: C_2  and  N_3 
REMARK    2  A    between atoms: C_5  and  C_6 
REMARK    3  A    between atoms: C_6  and  O_7 
ROOT
HETATM    1  N   LIG     1      17.032  37.004  22.461  1.00  0.00    -0.340 N 
HETATM    2  C   LIG     1      17.960  37.892  21.974  1.00  0.00     0.115 A 
HETATM    3  C   LIG     1      18.388  37.852  20.638  1.00  0.00     0.104 A 
HETATM    4  C   LIG     1      16.507  36.043  21.628  1.00  0.00     0.144 A 
HETATM    5  N   LIG     1      15.581  35.156  22.095  1.00  0.00    -0.235 NA
HETATM    6  C   LIG     1      15.033  34.186  21.317  1.00  0.00     0.033 A 
HETATM    7  C   LIG     1      14.027  33.244  21.899  1.00  0.00     0.070 C 
HETATM    8  C   LIG     1      15.425  34.066  19.982  1.00  0.00     0.028 A 
HETATM    9  C   LIG     1      16.369  34.950  19.462  1.00  0.00     0.021 A 
HETATM   10  C   LIG     1      16.922  35.954  20.278  1.00  0.00     0.061 A 
HETATM   11  C   LIG     1      17.875  36.858  19.789  1.00  0.00     0.204 A 
HETATM   12  O   LIG     1      18.289  36.761  18.600  1.00  0.00    -0.286 OA
ENDROOT
BRANCH   3  13
HETATM   13  C   LIG     1      19.385  38.844  20.166  1.00  0.00     0.181 C 
HETATM   14  O   LIG     1      19.122  40.075  20.234  1.00  0.00    -0.646 OA
BRANCH  13  15
HETATM   15  O   LIG     1      20.603  38.448  19.618  1.00  0.00    -0.772 OA
HETATM   16  H   LIG     1      20.813  37.478  19.419  1.00  0.00     0.167 HD
ENDBRANCH  13  15
ENDBRANCH   3  13
BRANCH   1  17
HETATM   17  C   LIG     1      16.560  37.036  23.869  1.00  0.00     0.125 C 
HETATM   18  C   LIG     1      17.483  37.745  24.866  1.00  0.00     0.027 C 
ENDBRANCH   1  17
TORSDOF 3
ENDMDL
MODEL 6
REMARK VINA RESULT:      -5.5      6.401      7.893
REMARK  3 active torsions:
REMARK  status: ('A' for Active; 'I' for Inactive)
REMARK    1  A    between atoms: C_2  and  N_3 
REMARK    2  A    between atoms: C_5  and  C_6 
REMARK    3  A    between atoms: C_6  and  O_7 
ROOT
HETATM    1  N   LIG     1      16.657  36.250  22.422  1.00  0.00    -0.340 N 
HETATM    2  C   LIG     1      15.766  35.207  22.336  1.00  0.00     0.115 A 
HETATM    3  C   LIG     1      15.529  34.538  21.125  1.00  0.00     0.104 A 
HETATM    4  C   LIG     1      17.334  36.660  21.297  1.00  0.00     0.144 A 
HETATM    5  N   LIG     1      18.225  37.691  21.367  1.00  0.00    -0.235 NA
HETATM    6  C   LIG     1      18.918  38.140  20.287  1.00  0.00     0.033 A 
HETATM    7  C   LIG     1      19.875  39.279  20.436  1.00  0.00     0.070 C 
HETATM    8  C   LIG     1      18.720  37.541  19.041  1.00  0.00     0.028 A 
HETATM    9  C   LIG     1      17.818  36.484  18.923  1.00  0.00     0.021 A 
HETATM   10  C   LIG     1      17.113  36.027  20.051  1.00  0.00     0.061 A 
HETATM   11  C   LIG     1      16.197  34.969  19.968  1.00  0.00     0.204 A 
HETATM   12  O   LIG     1      15.956  34.426  18.854  1.00  0.00    -0.286 OA
ENDROOT
BRANCH   3  13
HETATM   13  C   LIG     1      14.563  33.412  21.096  1.00  0.00     0.181 C 
HETATM   14  O   LIG     1      13.707  33.300  22.014  1.00  0.00    -0.646 OA
BRANCH  13  15
HETATM   15  O   LIG     1      14.596  32.450  20.089  1.00  0.00    -0.772 OA
HETATM   16  H   LIG     1      14.942  31.513  20.252  1.00  0.00     0.167 HD
ENDBRANCH  13  15
ENDBRANCH   3  13
BRANCH   1  17
HETATM   17  C   LIG     1      16.927  36.963  23.696  1.00  0.00     0.125 C 
HETATM   18  C   LIG     1      17.446  36.098  24.849  1.00  0.00     0.027 C 
ENDBRANCH   1  17
TORSDOF 3
ENDMDL
MODEL 7
REMARK VINA RESULT:      -5.3      2.623      4.944
REMARK  3 active torsions:
REMARK  status: ('A' for Active; 'I' for Inactive)
REMARK    1  A    between atoms: C_2  and  N_3 
REMARK    2  A    between atoms: C_5  and  C_6 
REMARK    3  A    between atoms: C_6  and  O_7 
ROOT
HETATM    1  N   LIG     1      14.754  32.045  16.190  1.00  0.00    -0.340 N 
HETATM    2  C   LIG     1      15.571  33.149  16.131  1.00  0.00     0.115 A 
HETATM    3  C   LIG     1      16.457  33.354  15.062  1.00  0.00     0.104 A 
HETATM    4  C   LIG     1      14.803  31.109  15.183  1.00  0.00     0.144 A 
HETATM    5  N   LIG     1      13.995  30.010  15.224  1.00  0.00    -0.235 NA
HETATM    6  C   LIG     1      14.005  29.052  14.259  1.00  0.00     0.033 A 
HETATM    7  C   LIG     1      13.096  27.871  14.373  1.00  0.00     0.070 C 
HETATM    8  C   LIG     1      14.877  29.173  13.175  1.00  0.00     0.028 A 
HETATM    9  C   LIG     1      15.722  30.279  13.092  1.00  0.00     0.021 A 
HETATM   10  C   LIG     1      15.694  31.265  14.095  1.00  0.00     0.061 A 
HETATM   11  C   LIG     1      16.531  32.389  14.045  1.00  0.00     0.204 A 
HETATM   12  O   LIG     1      17.363  32.518  13.105  1.00  0.00    -0.286 OA
ENDROOT
BRANCH   3  13
HETATM   13  C   LIG     1      17.308  34.570  15.049  1.00  0.00     0.181 C 
HETATM   14  O   LIG     1      17.374  35.297  16.076  1.00  0.00    -0.646 OA
BRANCH  13  15
HETATM   15  O   LIG     1      18.018  34.949  13.912  1.00  0.00    -0.772 OA
HETATM   16  H   LIG     1      19.006  35.165  13.942  1.00  0.00     0.167 HD
ENDBRANCH  13  15
ENDBRANCH   3  13
BRANCH   1  17
HETATM   17  C   LIG     1      13.804  31.816  17.307  1.00  0.00     0.125 C 
HETATM   18  C   LIG     1      14.428  31.696  18.701  1.00  0.00     0.027 C 
ENDBRANCH   1  17
TORSDOF 3
ENDMDL
MODEL 8
REMARK VINA RESULT:      -5.2      7.894      9.829
REMARK  3 active torsions:
REMARK  status: ('A' for Active; 'I' for Inactive)
REMARK    1  A    between atoms: C_2  and  N_3 
REMARK    2  A    between atoms: C_5  and  C_6 
REMARK    3  A    between atoms: C_6  and  O_7 
ROOT
HETATM    1  N   LIG     1      17.571  37.559  21.974  1.00  0.00    -0.340 N 
HETATM    2  C   LIG     1      17.107  37.007  20.804  1.00  0.00     0.115 A 
HETATM    3  C   LIG     1      16.567  35.712  20.764  1.00  0.00     0.104 A 
HETATM    4  C   LIG     1      17.515  36.831  23.139  1.00  0.00     0.144 A 
HETATM    5  N   LIG     1      17.968  37.367  24.310  1.00  0.00    -0.235 NA
HETATM    6  C   LIG     1      17.939  36.690  25.489  1.00  0.00     0.033 A 
HETATM    7  C   LIG     1      18.458  37.338  26.732  1.00  0.00     0.070 C 
HETATM    8  C   LIG     1      17.438  35.387  25.526  1.00  0.00     0.028 A 
HETATM    9  C   LIG     1      16.966  34.799  24.353  1.00  0.00     0.021 A 
HETATM   10  C   LIG     1      16.996  35.515  23.143  1.00  0.00     0.061 A 
HETATM   11  C   LIG     1      16.531  34.954  21.945  1.00  0.00     0.204 A 
HETATM   12  O   LIG     1      16.108  33.764  21.924  1.00  0.00    -0.286 OA
ENDROOT
BRANCH   3  13
HETATM   13  C   LIG     1      16.073  35.173  19.473  1.00  0.00     0.181 C 
HETATM   14  O   LIG     1      16.541  35.616  18.391  1.00  0.00    -0.646 OA
BRANCH  13  15
HETATM   15  O   LIG     1      15.074  34.203  19.424  1.00  0.00    -0.772 OA
HETATM   16  H   LIG     1      15.077  33.397  20.036  1.00  0.00     0.167 HD
ENDBRANCH  13  15
ENDBRANCH   3  13
BRANCH   1  17
HETATM   17  C   LIG     1      18.138  38.931  22.037  1.00  0.00     0.125 C 
HETATM   18  C   LIG     1      18.886  39.403  20.786  1.00  0.00     0.027 C 
ENDBRANCH   1  17
TORSDOF 3
ENDMDL
MODEL 9
REMARK VINA RESULT:      -5.1      2.684      3.911
REMARK  3 active torsions:
REMARK  status: ('A' for Active; 'I' for Inactive)
REMARK    1  A    between atoms: C_2  and  N_3 
REMARK    2  A    between atoms: C_5  and  C_6 
REMARK    3  A    between atoms: C_6  and  O_7 
ROOT
HETATM    1  N   LIG     1      14.526  31.749  16.125  1.00  0.00    -0.340 N 
HETATM    2  C   LIG     1      14.036  30.551  15.663  1.00  0.00     0.115 A 
HETATM    3  C   LIG     1      14.514  29.966  14.480  1.00  0.00     0.104 A 
HETATM    4  C   LIG     1      15.505  32.402  15.414  1.00  0.00     0.144 A 
HETATM    5  N   LIG     1      16.005  33.591  15.862  1.00  0.00    -0.235 NA
HETATM    6  C   LIG     1      16.971  34.280  15.197  1.00  0.00     0.033 A 
HETATM    7  C   LIG     1      17.467  35.580  15.744  1.00  0.00     0.070 C 
HETATM    8  C   LIG     1      17.481  33.775  13.999  1.00  0.00     0.028 A 
HETATM    9  C   LIG     1      16.999  32.565  13.504  1.00  0.00     0.021 A 
HETATM   10  C   LIG     1      16.005  31.860  14.206  1.00  0.00     0.061 A 
HETATM   11  C   LIG     1      15.495  30.641  13.736  1.00  0.00     0.204 A 
HETATM   12  O   LIG     1      15.898  30.168  12.637  1.00  0.00    -0.286 OA
ENDROOT
BRANCH   3  13
HETATM   13  C   LIG     1      13.954  28.666  14.036  1.00  0.00     0.181 C 
HETATM   14  O   LIG     1      12.717  28.452  14.139  1.00  0.00    -0.646 OA
BRANCH  13  15
HETATM   15  O   LIG     1      14.770  27.655  13.534  1.00  0.00    -0.772 OA
HETATM   16  H   LIG     1      15.732  27.543  13.830  1.00  0.00     0.167 HD
ENDBRANCH  13  15
ENDBRANCH   3  13
BRANCH   1  17
HETATM   17  C   LIG     1      14.038  32.379  17.378  1.00  0.00     0.125 C 
HETATM   18  C   LIG     1      14.661  31.853  18.676  1.00  0.00     0.027 C 
ENDBRANCH   1  17
TORSDOF 3
ENDMDL
MODEL 10
REMARK VINA RESULT:      -4.7      1.140      3.957
REMARK  3 active torsions:
REMARK  status: ('A' for Active; 'I' for Inactive)
REMARK    1  A    between atoms: C_2  and  N_3 
REMARK    2  A    between atoms: C_5  and  C_6 
REMARK    3  A    between atoms: C_6  and  O_7 
ROOT
HETATM    1  N   LIG     1      16.470  32.316  14.409  1.00  0.00    -0.340 N 
HETATM    2  C   LIG     1      16.200  33.310  15.318  1.00  0.00     0.115 A 
HETATM    3  C   LIG     1      15.166  33.187  16.260  1.00  0.00     0.104 A 
HETATM    4  C   LIG     1      15.711  31.169  14.410  1.00  0.00     0.144 A 
HETATM    5  N   LIG     1      15.970  30.170  13.516  1.00  0.00    -0.235 NA
HETATM    6  C   LIG     1      15.249  29.019  13.470  1.00  0.00     0.033 A 
HETATM    7  C   LIG     1      15.586  27.969  12.460  1.00  0.00     0.070 C 
HETATM    8  C   LIG     1      14.189  28.831  14.360  1.00  0.00     0.028 A 
HETATM    9  C   LIG     1      13.888  29.825  15.289  1.00  0.00     0.021 A 
HETATM   10  C   LIG     1      14.647  31.008  15.329  1.00  0.00     0.061 A 
HETATM   11  C   LIG     1      14.371  32.030  16.248  1.00  0.00     0.204 A 
HETATM   12  O   LIG     1      13.396  31.920  17.043  1.00  0.00    -0.286 OA
ENDROOT
BRANCH   3  13
HETATM   13  C   LIG     1      14.927  34.290  17.223  1.00  0.00     0.181 C 
HETATM   14  O   LIG     1      15.723  34.462  18.184  1.00  0.00    -0.646 OA
BRANCH  13  15
HETATM   15  O   LIG     1      13.821  35.129  17.110  1.00  0.00    -0.772 OA
HETATM   16  H   LIG     1      13.089  34.964  16.430  1.00  0.00     0.167 HD
ENDBRANCH  13  15
ENDBRANCH   3  13
BRANCH   1  17
HETATM   17  C   LIG     1      17.565  32.425  13.411  1.00  0.00     0.125 C 
HETATM   18  C   LIG     1      17.964  33.849  13.010  1.00  0.00     0.027 C 
ENDBRANCH   1  17
TORSDOF 3
ENDMDL
MODEL 11
REMARK VINA RESULT:      -4.6      2.689      5.070
REMARK  3 active torsions:
REMARK  status: ('A' for Active; 'I' for Inactive)
REMARK    1  A    between atoms: C_2  and  N_3 
REMARK    2  A    between atoms: C_5  and  C_6 
REMARK    3  A    between atoms: C_6  and  O_7 
ROOT
HETATM    1  N   LIG     1      15.571  32.947  16.127  1.00  0.00    -0.340 N 
HETATM    2  C   LIG     1      15.066  32.063  15.204  1.00  0.00     0.115 A 
HETATM    3  C   LIG     1      14.245  30.990  15.584  1.00  0.00     0.104 A 
HETATM    4  C   LIG     1      15.274  32.781  17.460  1.00  0.00     0.144 A 
HETATM    5  N   LIG     1      15.765  33.654  18.388  1.00  0.00    -0.235 NA
HETATM    6  C   LIG     1      15.507  33.534  19.718  1.00  0.00     0.033 A 
HETATM    7  C   LIG     1      16.083  34.524  20.679  1.00  0.00     0.070 C 
HETATM    8  C   LIG     1      14.717  32.478  20.177  1.00  0.00     0.028 A 
HETATM    9  C   LIG     1      14.196  31.563  19.264  1.00  0.00     0.021 A 
HETATM   10  C   LIG     1      14.466  31.703  17.891  1.00  0.00     0.061 A 
HETATM   11  C   LIG     1      13.960  30.800  16.945  1.00  0.00     0.204 A 
HETATM   12  O   LIG     1      13.276  29.807  17.320  1.00  0.00    -0.286 OA
ENDROOT
BRANCH   3  13
HETATM   13  C   LIG     1      13.721  30.074  14.541  1.00  0.00     0.181 C 
HETATM   14  O   LIG     1      12.493  29.794  14.515  1.00  0.00    -0.646 OA
BRANCH  13  15
HETATM   15  O   LIG     1      14.563  29.485  13.599  1.00  0.00    -0.772 OA
HETATM   16  H   LIG     1      15.390  29.953  13.252  1.00  0.00     0.167 HD
ENDBRANCH  13  15
ENDBRANCH   3  13
BRANCH   1  17
HETATM   17  C   LIG     1      16.433  34.093  15.743  1.00  0.00     0.125 C 
HETATM   18  C   LIG     1      17.522  33.793  14.708  1.00  0.00     0.027 C 
ENDBRANCH   1  17
TORSDOF 3
ENDMDL
MODEL 12
REMARK VINA RESULT:      -4.5      7.552      9.931
REMARK  3 active torsions:
REMARK  status: ('A' for Active; 'I' for Inactive)
REMARK    1  A    between atoms: C_2  and  N_3 
REMARK    2  A    between atoms: C_5  and  C_6 
REMARK    3  A    between atoms: C_6  and  O_7 
ROOT
HETATM    1  N   LIG     1      18.554  38.557  21.758  1.00  0.00    -0.340 N 
HETATM    2  C   LIG     1      18.923  39.094  20.548  1.00  0.00     0.115 A 
HETATM    3  C   LIG     1      18.711  38.408  19.342  1.00  0.00     0.104 A 
HETATM    4  C   LIG     1      17.967  37.314  21.799  1.00  0.00     0.144 A 
HETATM    5  N   LIG     1      17.591  36.769  22.993  1.00  0.00    -0.235 NA
HETATM    6  C   LIG     1      17.011  35.543  23.092  1.00  0.00     0.033 A 
HETATM    7  C   LIG     1      16.630  35.006  24.434  1.00  0.00     0.070 C 
HETATM    8  C   LIG     1      16.788  34.789  21.938  1.00  0.00     0.028 A 
HETATM    9  C   LIG     1      17.158  35.306  20.697  1.00  0.00     0.021 A 
HETATM   10  C   LIG     1      17.751  36.578  20.610  1.00  0.00     0.061 A 
HETATM   11  C   LIG     1      18.137  37.128  19.379  1.00  0.00     0.204 A 
HETATM   12  O   LIG     1      17.992  36.464  18.316  1.00  0.00    -0.286 OA
ENDROOT
BRANCH   3  13
HETATM   13  C   LIG     1      19.122  39.043  18.065  1.00  0.00     0.181 C 
HETATM   14  O   LIG     1      20.223  39.651  17.996  1.00  0.00    -0.646 OA
BRANCH  13  15
HETATM   15  O   LIG     1      18.301  39.012  16.939  1.00  0.00    -0.772 OA
HETATM   16  H   LIG     1      18.292  38.224  16.303  1.00  0.00     0.167 HD
ENDBRANCH  13  15
ENDBRANCH   3  13
BRANCH   1  17
HETATM   17  C   LIG     1      18.762  39.272  23.043  1.00  0.00     0.125 C 
HETATM   18  C   LIG     1      17.633  39.142  24.070  1.00  0.00     0.027 C 
ENDBRANCH   1  17
TORSDOF 3
ENDMDL
MODEL 13
REMARK VINA RESULT:      -4.2     13.917     15.136
REMARK  3 active torsions:
REMARK  status: ('A' for Active; 'I' for Inactive)
REMARK    1  A    between atoms: C_2  and  N_3 
REMARK    2  A    between atoms: C_5  and  C_6 
REMARK    3  A    between atoms: C_6  and  O_7 
ROOT
HETATM    1  N   LIG     1      25.760  22.490  21.501  1.00  0.00    -0.340 N 
HETATM    2  C   LIG     1      26.493  23.646  21.395  1.00  0.00     0.115 A 
HETATM    3  C   LIG     1      26.525  24.393  20.206  1.00  0.00     0.104 A 
HETATM    4  C   LIG     1      25.040  22.040  20.419  1.00  0.00     0.144 A 
HETATM    5  N   LIG     1      24.302  20.894  20.511  1.00  0.00    -0.235 NA
HETATM    6  C   LIG     1      23.575  20.402  19.472  1.00  0.00     0.033 A 
HETATM    7  C   LIG     1      22.796  19.138  19.643  1.00  0.00     0.070 C 
HETATM    8  C   LIG     1      23.574  21.075  18.249  1.00  0.00     0.028 A 
HETATM    9  C   LIG     1      24.314  22.249  18.110  1.00  0.00     0.021 A 
HETATM   10  C   LIG     1      25.056  22.749  19.195  1.00  0.00     0.061 A 
HETATM   11  C   LIG     1      25.812  23.925  19.090  1.00  0.00     0.204 A 
HETATM   12  O   LIG     1      25.873  24.543  17.991  1.00  0.00    -0.286 OA
ENDROOT
BRANCH   3  13
HETATM   13  C   LIG     1      27.327  25.640  20.154  1.00  0.00     0.181 C 
HETATM   14  O   LIG     1      28.282  25.802  20.959  1.00  0.00    -0.646 OA
BRANCH  13  15
HETATM   15  O   LIG     1      27.030  26.659  19.251  1.00  0.00    -0.772 OA
HETATM   16  H   LIG     1      27.154  26.546  18.253  1.00  0.00     0.167 HD
ENDBRANCH  13  15
ENDBRANCH   3  13
BRANCH   1  17
HETATM   17  C   LIG     1      25.708  21.692  22.753  1.00  0.00     0.125 C 
HETATM   18  C   LIG     1      24.846  22.271  23.879  1.00  0.00     0.027 C 
ENDBRANCH   1  17
TORSDOF 3
ENDMDL
