MODEL 1
REMARK VINA RESULT:      -6.2      0.000      0.000
REMARK  5 active torsions:
REMARK  status: ('A' for Active; 'I' for Inactive)
REMARK       I    between atoms: N_2  and  C_3 
REMARK    1  A    between atoms: C_3  and  O_4 
REMARK    2  A    between atoms: O_4  and  N_5 
REMARK    3  A    between atoms: C_6  and  C_7 
REMARK    4  A    between atoms: C_6  and  C_11 
REMARK    5  A    between atoms: C_11  and  S_12 
ROOT
HETATM    1  N   LIG     1      17.400  37.933  22.518  1.00  0.00    -0.131 NA
HETATM    2  C   LIG     1      17.377  37.105  21.512  1.00  0.00     0.057 C 
ENDROOT
BRANCH   2   3
HETATM    3  C   LIG     1      16.384  35.920  21.450  1.00  0.00    -0.008 C 
HETATM    4  C   LIG     1      14.932  36.352  21.778  1.00  0.00     0.021 C 
HETATM    5  C   LIG     1      16.367  35.310  20.030  1.00  0.00     0.021 C 
HETATM    6  C   LIG     1      16.786  34.841  22.480  1.00  0.00     0.021 C 
ENDBRANCH   2   3
BRANCH   2   7
HETATM    7  C   LIG     1      18.320  37.424  20.379  1.00  0.00     0.131 C 
BRANCH   7   8
HETATM    8  S   LIG     1      19.019  39.093  20.613  1.00  0.00    -0.168 SA
HETATM    9  C   LIG     1      20.358  38.865  19.401  1.00  0.00     0.090 C 
ENDBRANCH   7   8
ENDBRANCH   2   7
BRANCH   1  10
HETATM   10  O   LIG     1      16.589  37.829  23.625  1.00  0.00    -0.156 OA
BRANCH  10  11
HETATM   11  C   LIG     1      17.130  37.751  24.906  1.00  0.00     0.384 C 
HETATM   12  N   LIG     1      17.710  36.520  25.350  1.00  0.00    -0.340 N 
HETATM   13  C   LIG     1      18.291  36.377  26.678  1.00  0.00     0.151 C 
HETATM   14  H   LIG     1      17.716  35.702  24.701  1.00  0.00     0.164 HD
HETATM   15  O   LIG     1      17.109  38.758  25.667  1.00  0.00    -0.236 OA
ENDBRANCH  10  11
ENDBRANCH   1  10
TORSDOF 5
ENDMDL
MODEL 2
REMARK VINA RESULT:      -5.6      2.898      4.664
REMARK  5 active torsions:
REMARK  status: ('A' for Active; 'I' for Inactive)
REMARK       I    between atoms: N_2  and  C_3 
REMARK    1  A    between atoms: C_3  and  O_4 
REMARK    2  A    between atoms: O_4  and  N_5 
REMARK    3  A    between atoms: C_6  and  C_7 
REMARK    4  A    between atoms: C_6  and  C_11 
REMARK    5  A    between atoms: C_11  and  S_12 
ROOT
HETATM    1  N   LIG     1      17.186  36.144  20.656  1.00  0.00    -0.131 NA
HETATM    2  C   LIG     1      17.442  37.129  21.470  1.00  0.00     0.057 C 
ENDROOT
BRANCH   2   3
HETATM    3  C   LIG     1      16.854  37.184  22.900  1.00  0.00    -0.008 C 
HETATM    4  C   LIG     1      16.990  35.831  23.643  1.00  0.00     0.021 C 
HETATM    5  C   LIG     1      17.599  38.243  23.744  1.00  0.00     0.021 C 
HETATM    6  C   LIG     1      15.349  37.526  22.838  1.00  0.00     0.021 C 
ENDBRANCH   2   3
BRANCH   2   7
HETATM    7  C   LIG     1      18.410  38.166  20.957  1.00  0.00     0.131 C 
BRANCH   7   8
HETATM    8  S   LIG     1      19.166  37.586  19.402  1.00  0.00    -0.168 SA
HETATM    9  C   LIG     1      20.444  38.882  19.364  1.00  0.00     0.090 C 
ENDBRANCH   7   8
ENDBRANCH   2   7
BRANCH   1  10
HETATM   10  O   LIG     1      16.358  35.087  20.958  1.00  0.00    -0.156 OA
BRANCH  10  11
HETATM   11  C   LIG     1      15.822  34.285  19.953  1.00  0.00     0.384 C 
HETATM   12  N   LIG     1      15.434  32.942  20.259  1.00  0.00    -0.340 N 
HETATM   13  C   LIG     1      14.868  32.055  19.251  1.00  0.00     0.151 C 
HETATM   14  H   LIG     1      15.562  32.589  21.233  1.00  0.00     0.164 HD
HETATM   15  O   LIG     1      15.679  34.740  18.785  1.00  0.00    -0.236 OA
ENDBRANCH  10  11
ENDBRANCH   1  10
TORSDOF 5
ENDMDL
MODEL 3
REMARK VINA RESULT:      -5.5      3.106      5.518
REMARK  5 active torsions:
REMARK  status: ('A' for Active; 'I' for Inactive)
REMARK       I    between atoms: N_2  and  C_3 
REMARK    1  A    between atoms: C_3  and  O_4 
REMARK    2  A    between atoms: O_4  and  N_5 
REMARK    3  A    between atoms: C_6  and  C_7 
REMARK    4  A    between atoms: C_6  and  C_11 
REMARK    5  A    between atoms: C_11  and  S_12 
ROOT
HETATM    1  N   LIG     1      18.150  37.490  20.590  1.00  0.00    -0.131 NA
HETATM    2  C   LIG     1      17.590  37.046  21.681  1.00  0.00     0.057 C 
ENDROOT
BRANCH   2   3
HETATM    3  C   LIG     1      17.320  37.967  22.895  1.00  0.00    -0.008 C 
HETATM    4  C   LIG     1      16.897  37.170  24.154  1.00  0.00     0.021 C 
HETATM    5  C   LIG     1      18.598  38.755  23.263  1.00  0.00     0.021 C 
HETATM    6  C   LIG     1      16.174  38.950  22.566  1.00  0.00     0.021 C 
ENDBRANCH   2   3
BRANCH   2   7
HETATM    7  C   LIG     1      17.152  35.604  21.652  1.00  0.00     0.131 C 
BRANCH   7   8
HETATM    8  S   LIG     1      15.433  35.496  21.050  1.00  0.00    -0.168 SA
HETATM    9  C   LIG     1      15.599  33.792  20.430  1.00  0.00     0.090 C 
ENDBRANCH   7   8
ENDBRANCH   2   7
BRANCH   1  10
HETATM   10  O   LIG     1      18.582  38.784  20.414  1.00  0.00    -0.156 OA
BRANCH  10  11
HETATM   11  C   LIG     1      19.259  39.164  19.257  1.00  0.00     0.384 C 
HETATM   12  N   LIG     1      18.522  39.369  18.048  1.00  0.00    -0.340 N 
HETATM   13  C   LIG     1      19.173  39.766  16.807  1.00  0.00     0.151 C 
HETATM   14  H   LIG     1      17.487  39.231  18.058  1.00  0.00     0.164 HD
HETATM   15  O   LIG     1      20.510  39.325  19.277  1.00  0.00    -0.236 OA
ENDBRANCH  10  11
ENDBRANCH   1  10
TORSDOF 5
ENDMDL
MODEL 4
REMARK VINA RESULT:      -5.1      8.405      9.864
REMARK  5 active torsions:
REMARK  status: ('A' for Active; 'I' for Inactive)
REMARK       I    between atoms: N_2  and  C_3 
REMARK    1  A    between atoms: C_3  and  O_4 
REMARK    2  A    between atoms: O_4  and  N_5 
REMARK    3  A    between atoms: C_6  and  C_7 
REMARK    4  A    between atoms: C_6  and  C_11 
REMARK    5  A    between atoms: C_11  and  S_12 
ROOT
HETATM    1  N   LIG     1      16.133  32.112  15.252  1.00  0.00    -0.131 NA
HETATM    2  C   LIG     1      15.024  31.683  15.786  1.00  0.00     0.057 C 
ENDROOT
BRANCH   2   3
HETATM    3  C   LIG     1      14.319  32.444  16.935  1.00  0.00    -0.008 C 
HETATM    4  C   LIG     1      14.548  33.974  16.851  1.00  0.00     0.021 C 
HETATM    5  C   LIG     1      12.793  32.208  16.875  1.00  0.00     0.021 C 
HETATM    6  C   LIG     1      14.871  31.970  18.297  1.00  0.00     0.021 C 
ENDBRANCH   2   3
BRANCH   2   7
HETATM    7  C   LIG     1      14.432  30.445  15.160  1.00  0.00     0.131 C 
BRANCH   7   8
HETATM    8  S   LIG     1      15.264  30.101  13.573  1.00  0.00    -0.168 SA
HETATM    9  C   LIG     1      15.228  28.292  13.774  1.00  0.00     0.090 C 
ENDBRANCH   7   8
ENDBRANCH   2   7
BRANCH   1  10
HETATM   10  O   LIG     1      16.801  33.243  15.662  1.00  0.00    -0.156 OA
BRANCH  10  11
HETATM   11  C   LIG     1      17.508  34.028  14.754  1.00  0.00     0.384 C 
HETATM   12  N   LIG     1      18.408  33.400  13.836  1.00  0.00    -0.340 N 
HETATM   13  C   LIG     1      19.176  34.167  12.863  1.00  0.00     0.151 C 
HETATM   14  H   LIG     1      18.517  32.362  13.865  1.00  0.00     0.164 HD
HETATM   15  O   LIG     1      17.354  35.280  14.742  1.00  0.00    -0.236 OA
ENDBRANCH  10  11
ENDBRANCH   1  10
TORSDOF 5
ENDMDL
MODEL 5
REMARK VINA RESULT:      -5.0      3.901      5.696
REMARK  5 active torsions:
REMARK  status: ('A' for Active; 'I' for Inactive)
REMARK       I    between atoms: N_2  and  C_3 
REMARK    1  A    between atoms: C_3  and  O_4 
REMARK    2  A    between atoms: O_4  and  N_5 
REMARK    3  A    between atoms: C_6  and  C_7 
REMARK    4  A    between atoms: C_6  and  C_11 
REMARK    5  A    between atoms: C_11  and  S_12 
ROOT
HETATM    1  N   LIG     1      16.614  35.661  19.046  1.00  0.00    -0.131 NA
HETATM    2  C   LIG     1      16.959  35.840  20.291  1.00  0.00     0.057 C 
ENDROOT
BRANCH   2   3
HETATM    3  C   LIG     1      16.067  35.368  21.464  1.00  0.00    -0.008 C 
HETATM    4  C   LIG     1      14.928  36.370  21.776  1.00  0.00     0.021 C 
HETATM    5  C   LIG     1      15.402  34.016  21.119  1.00  0.00     0.021 C 
HETATM    6  C   LIG     1      16.917  35.223  22.746  1.00  0.00     0.021 C 
ENDBRANCH   2   3
BRANCH   2   7
HETATM    7  C   LIG     1      18.315  36.461  20.510  1.00  0.00     0.131 C 
BRANCH   7   8
HETATM    8  S   LIG     1      18.120  38.216  20.971  1.00  0.00    -0.168 SA
HETATM    9  C   LIG     1      19.298  38.829  19.725  1.00  0.00     0.090 C 
ENDBRANCH   7   8
ENDBRANCH   2   7
BRANCH   1  10
HETATM   10  O   LIG     1      15.432  35.078  18.648  1.00  0.00    -0.156 OA
BRANCH  10  11
HETATM   11  C   LIG     1      15.379  34.262  17.520  1.00  0.00     0.384 C 
HETATM   12  N   LIG     1      14.715  32.998  17.599  1.00  0.00    -0.340 N 
HETATM   13  C   LIG     1      14.627  32.101  16.453  1.00  0.00     0.151 C 
HETATM   14  H   LIG     1      14.282  32.710  18.505  1.00  0.00     0.164 HD
HETATM   15  O   LIG     1      15.911  34.638  16.439  1.00  0.00    -0.236 OA
ENDBRANCH  10  11
ENDBRANCH   1  10
TORSDOF 5
ENDMDL
MODEL 6
REMARK VINA RESULT:      -4.7      8.776     10.622
REMARK  5 active torsions:
REMARK  status: ('A' for Active; 'I' for Inactive)
REMARK       I    between atoms: N_2  and  C_3 
REMARK    1  A    between atoms: C_3  and  O_4 
REMARK    2  A    between atoms: O_4  and  N_5 
REMARK    3  A    between atoms: C_6  and  C_7 
REMARK    4  A    between atoms: C_6  and  C_11 
REMARK    5  A    between atoms: C_11  and  S_12 
ROOT
HETATM    1  N   LIG     1      15.262  31.262  14.841  1.00  0.00    -0.131 NA
HETATM    2  C   LIG     1      15.542  32.308  15.568  1.00  0.00     0.057 C 
ENDROOT
BRANCH   2   3
HETATM    3  C   LIG     1      14.700  32.692  16.808  1.00  0.00    -0.008 C 
HETATM    4  C   LIG     1      13.216  32.272  16.663  1.00  0.00     0.021 C 
HETATM    5  C   LIG     1      15.252  31.987  18.068  1.00  0.00     0.021 C 
HETATM    6  C   LIG     1      14.727  34.224  17.009  1.00  0.00     0.021 C 
ENDBRANCH   2   3
BRANCH   2   7
HETATM    7  C   LIG     1      16.783  33.068  15.171  1.00  0.00     0.131 C 
BRANCH   7   8
HETATM    8  S   LIG     1      17.028  32.944  13.367  1.00  0.00    -0.168 SA
HETATM    9  C   LIG     1      18.673  33.724  13.386  1.00  0.00     0.090 C 
ENDBRANCH   7   8
ENDBRANCH   2   7
BRANCH   1  10
HETATM   10  O   LIG     1      14.194  30.425  15.070  1.00  0.00    -0.156 OA
BRANCH  10  11
HETATM   11  C   LIG     1      14.067  29.220  14.383  1.00  0.00     0.384 C 
HETATM   12  N   LIG     1      12.761  28.690  14.132  1.00  0.00    -0.340 N 
HETATM   13  C   LIG     1      12.563  27.435  13.420  1.00  0.00     0.151 C 
HETATM   14  H   LIG     1      11.927  29.220  14.470  1.00  0.00     0.164 HD
HETATM   15  O   LIG     1      15.093  28.603  13.986  1.00  0.00    -0.236 OA
ENDBRANCH  10  11
ENDBRANCH   1  10
TORSDOF 5
ENDMDL
MODEL 7
REMARK VINA RESULT:      -4.6      2.733      4.884
REMARK  5 active torsions:
REMARK  status: ('A' for Active; 'I' for Inactive)
REMARK       I    between atoms: N_2  and  C_3 
REMARK    1  A    between atoms: C_3  and  O_4 
REMARK    2  A    between atoms: O_4  and  N_5 
REMARK    3  A    between atoms: C_6  and  C_7 
REMARK    4  A    between atoms: C_6  and  C_11 
REMARK    5  A    between atoms: C_11  and  S_12 
ROOT
HETATM    1  N   LIG     1      17.237  36.959  21.105  1.00  0.00    -0.131 NA
HETATM    2  C   LIG     1      18.135  37.890  20.944  1.00  0.00     0.057 C 
ENDROOT
BRANCH   2   3
HETATM    3  C   LIG     1      19.152  37.854  19.778  1.00  0.00    -0.008 C 
HETATM    4  C   LIG     1      19.843  36.474  19.643  1.00  0.00     0.021 C 
HETATM    5  C   LIG     1      18.438  38.138  18.437  1.00  0.00     0.021 C 
HETATM    6  C   LIG     1      20.262  38.902  20.014  1.00  0.00     0.021 C 
ENDBRANCH   2   3
BRANCH   2   7
HETATM    7  C   LIG     1      18.067  39.040  21.917  1.00  0.00     0.131 C 
BRANCH   7   8
HETATM    8  S   LIG     1      18.501  38.456  23.590  1.00  0.00    -0.168 SA
HETATM    9  C   LIG     1      16.782  38.101  24.074  1.00  0.00     0.090 C 
ENDBRANCH   7   8
ENDBRANCH   2   7
BRANCH   1  10
HETATM   10  O   LIG     1      17.117  35.852  20.295  1.00  0.00    -0.156 OA
BRANCH  10  11
HETATM   11  C   LIG     1      16.296  34.786  20.655  1.00  0.00     0.384 C 
HETATM   12  N   LIG     1      15.932  33.817  19.667  1.00  0.00    -0.340 N 
HETATM   13  C   LIG     1      15.077  32.680  19.982  1.00  0.00     0.151 C 
HETATM   14  H   LIG     1      16.292  33.929  18.693  1.00  0.00     0.164 HD
HETATM   15  O   LIG     1      15.879  34.677  21.840  1.00  0.00    -0.236 OA
ENDBRANCH  10  11
ENDBRANCH   1  10
TORSDOF 5
ENDMDL
MODEL 8
REMARK VINA RESULT:      -4.5      8.008     10.266
REMARK  5 active torsions:
REMARK  status: ('A' for Active; 'I' for Inactive)
REMARK       I    between atoms: N_2  and  C_3 
REMARK    1  A    between atoms: C_3  and  O_4 
REMARK    2  A    between atoms: O_4  and  N_5 
REMARK    3  A    between atoms: C_6  and  C_7 
REMARK    4  A    between atoms: C_6  and  C_11 
REMARK    5  A    between atoms: C_11  and  S_12 
ROOT
HETATM    1  N   LIG     1      16.364  32.583  15.626  1.00  0.00    -0.131 NA
HETATM    2  C   LIG     1      15.292  31.842  15.649  1.00  0.00     0.057 C 
ENDROOT
BRANCH   2   3
HETATM    3  C   LIG     1      15.051  30.718  14.612  1.00  0.00    -0.008 C 
HETATM    4  C   LIG     1      16.019  29.524  14.805  1.00  0.00     0.021 C 
HETATM    5  C   LIG     1      13.614  30.166  14.748  1.00  0.00     0.021 C 
HETATM    6  C   LIG     1      15.272  31.263  13.184  1.00  0.00     0.021 C 
ENDBRANCH   2   3
BRANCH   2   7
HETATM    7  C   LIG     1      14.346  32.095  16.796  1.00  0.00     0.131 C 
BRANCH   7   8
HETATM    8  S   LIG     1      15.245  32.889  18.171  1.00  0.00    -0.168 SA
HETATM    9  C   LIG     1      14.762  31.641  19.405  1.00  0.00     0.090 C 
ENDBRANCH   7   8
ENDBRANCH   2   7
BRANCH   1  10
HETATM   10  O   LIG     1      17.358  32.475  14.681  1.00  0.00    -0.156 OA
BRANCH  10  11
HETATM   11  C   LIG     1      17.710  33.561  13.881  1.00  0.00     0.384 C 
HETATM   12  N   LIG     1      18.187  33.328  12.553  1.00  0.00    -0.340 N 
HETATM   13  C   LIG     1      18.570  34.421  11.669  1.00  0.00     0.151 C 
HETATM   14  H   LIG     1      18.263  32.345  12.208  1.00  0.00     0.164 HD
HETATM   15  O   LIG     1      17.605  34.737  14.325  1.00  0.00    -0.236 OA
ENDBRANCH  10  11
ENDBRANCH   1  10
TORSDOF 5
ENDMDL
MODEL 9
REMARK VINA RESULT:      -4.4      2.543      4.765
REMARK  5 active torsions:
REMARK  status: ('A' for Active; 'I' for Inactive)
REMARK       I    between atoms: N_2  and  C_3 
REMARK    1  A    between atoms: C_3  and  O_4 
REMARK    2  A    between atoms: O_4  and  N_5 
REMARK    3  A    between atoms: C_6  and  C_7 
REMARK    4  A    between atoms: C_6  and  C_11 
REMARK    5  A    between atoms: C_11  and  S_12 
ROOT
HETATM    1  N   LIG     1      17.525  37.126  21.367  1.00  0.00    -0.131 NA
HETATM    2  C   LIG     1      17.286  36.458  22.460  1.00  0.00     0.057 C 
ENDROOT
BRANCH   2   3
HETATM    3  C   LIG     1      17.197  37.152  23.841  1.00  0.00    -0.008 C 
HETATM    4  C   LIG     1      18.399  38.094  24.102  1.00  0.00     0.021 C 
HETATM    5  C   LIG     1      15.917  38.014  23.924  1.00  0.00     0.021 C 
HETATM    6  C   LIG     1      17.191  36.092  24.964  1.00  0.00     0.021 C 
ENDBRANCH   2   3
BRANCH   2   7
HETATM    7  C   LIG     1      17.022  34.984  22.282  1.00  0.00     0.131 C 
BRANCH   7   8
HETATM    8  S   LIG     1      16.050  34.713  20.762  1.00  0.00    -0.168 SA
HETATM    9  C   LIG     1      14.620  35.691  21.322  1.00  0.00     0.090 C 
ENDBRANCH   7   8
ENDBRANCH   2   7
BRANCH   1  10
HETATM   10  O   LIG     1      17.753  38.483  21.323  1.00  0.00    -0.156 OA
BRANCH  10  11
HETATM   11  C   LIG     1      18.747  39.018  20.506  1.00  0.00     0.384 C 
HETATM   12  N   LIG     1      19.755  38.155  19.971  1.00  0.00    -0.340 N 
HETATM   13  C   LIG     1      20.819  38.655  19.111  1.00  0.00     0.151 C 
HETATM   14  H   LIG     1      19.725  37.137  20.205  1.00  0.00     0.164 HD
HETATM   15  O   LIG     1      18.755  40.251  20.241  1.00  0.00    -0.236 OA
ENDBRANCH  10  11
ENDBRANCH   1  10
TORSDOF 5
ENDMDL
MODEL 10
REMARK VINA RESULT:      -4.3      5.667      7.079
REMARK  5 active torsions:
REMARK  status: ('A' for Active; 'I' for Inactive)
REMARK       I    between atoms: N_2  and  C_3 
REMARK    1  A    between atoms: C_3  and  O_4 
REMARK    2  A    between atoms: O_4  and  N_5 
REMARK    3  A    between atoms: C_6  and  C_7 
REMARK    4  A    between atoms: C_6  and  C_11 
REMARK    5  A    between atoms: C_11  and  S_12 
ROOT
HETATM    1  N   LIG     1      15.720  33.540  17.163  1.00  0.00    -0.131 NA
HETATM    2  C   LIG     1      15.323  32.593  16.360  1.00  0.00     0.057 C 
ENDROOT
BRANCH   2   3
HETATM    3  C   LIG     1      14.069  31.738  16.659  1.00  0.00    -0.008 C 
HETATM    4  C   LIG     1      14.108  31.115  18.078  1.00  0.00     0.021 C 
HETATM    5  C   LIG     1      12.795  32.611  16.581  1.00  0.00     0.021 C 
HETATM    6  C   LIG     1      13.970  30.574  15.649  1.00  0.00     0.021 C 
ENDBRANCH   2   3
BRANCH   2   7
HETATM    7  C   LIG     1      16.115  32.441  15.085  1.00  0.00     0.131 C 
BRANCH   7   8
HETATM    8  S   LIG     1      17.314  33.808  14.940  1.00  0.00    -0.168 SA
HETATM    9  C   LIG     1      17.724  33.462  13.200  1.00  0.00     0.090 C 
ENDBRANCH   7   8
ENDBRANCH   2   7
BRANCH   1  10
HETATM   10  O   LIG     1      15.104  33.853  18.353  1.00  0.00    -0.156 OA
BRANCH  10  11
HETATM   11  C   LIG     1      15.658  34.790  19.223  1.00  0.00     0.384 C 
HETATM   12  N   LIG     1      15.166  34.879  20.563  1.00  0.00    -0.340 N 
HETATM   13  C   LIG     1      15.704  35.839  21.519  1.00  0.00     0.151 C 
HETATM   14  H   LIG     1      14.399  34.237  20.864  1.00  0.00     0.164 HD
HETATM   15  O   LIG     1      16.584  35.552  18.830  1.00  0.00    -0.236 OA
ENDBRANCH  10  11
ENDBRANCH   1  10
TORSDOF 5
ENDMDL
MODEL 11
REMARK VINA RESULT:      -4.3      7.315      9.068
REMARK  5 active torsions:
REMARK  status: ('A' for Active; 'I' for Inactive)
REMARK       I    between atoms: N_2  and  C_3 
REMARK    1  A    between atoms: C_3  and  O_4 
REMARK    2  A    between atoms: O_4  and  N_5 
REMARK    3  A    between atoms: C_6  and  C_7 
REMARK    4  A    between atoms: C_6  and  C_11 
REMARK    5  A    between atoms: C_11  and  S_12 
ROOT
HETATM    1  N   LIG     1      15.313  32.161  15.860  1.00  0.00    -0.131 NA
HETATM    2  C   LIG     1      15.964  32.190  14.731  1.00  0.00     0.057 C 
ENDROOT
BRANCH   2   3
HETATM    3  C   LIG     1      17.173  33.130  14.507  1.00  0.00    -0.008 C 
HETATM    4  C   LIG     1      16.937  34.542  15.100  1.00  0.00     0.021 C 
HETATM    5  C   LIG     1      18.432  32.553  15.192  1.00  0.00     0.021 C 
HETATM    6  C   LIG     1      17.431  33.304  12.994  1.00  0.00     0.021 C 
ENDBRANCH   2   3
BRANCH   2   7
HETATM    7  C   LIG     1      15.514  31.196  13.691  1.00  0.00     0.131 C 
BRANCH   7   8
HETATM    8  S   LIG     1      14.379  29.985  14.448  1.00  0.00    -0.168 SA
HETATM    9  C   LIG     1      15.266  28.529  13.810  1.00  0.00     0.090 C 
ENDBRANCH   7   8
ENDBRANCH   2   7
BRANCH   1  10
HETATM   10  O   LIG     1      15.600  32.966  16.939  1.00  0.00    -0.156 OA
BRANCH  10  11
HETATM   11  C   LIG     1      15.091  32.680  18.204  1.00  0.00     0.384 C 
HETATM   12  N   LIG     1      15.478  33.492  19.316  1.00  0.00    -0.340 N 
HETATM   13  C   LIG     1      14.980  33.242  20.663  1.00  0.00     0.151 C 
HETATM   14  H   LIG     1      16.137  34.286  19.157  1.00  0.00     0.164 HD
HETATM   15  O   LIG     1      14.295  31.714  18.364  1.00  0.00    -0.236 OA
ENDBRANCH  10  11
ENDBRANCH   1  10
TORSDOF 5
ENDMDL
MODEL 12
REMARK VINA RESULT:      -4.1      6.495      8.704
REMARK  5 active torsions:
REMARK  status: ('A' for Active; 'I' for Inactive)
REMARK       I    between atoms: N_2  and  C_3 
REMARK    1  A    between atoms: C_3  and  O_4 
REMARK    2  A    between atoms: O_4  and  N_5 
REMARK    3  A    between atoms: C_6  and  C_7 
REMARK    4  A    between atoms: C_6  and  C_11 
REMARK    5  A    between atoms: C_11  and  S_12 
ROOT
HETATM    1  N   LIG     1      15.865  33.581  16.862  1.00  0.00    -0.131 NA
HETATM    2  C   LIG     1      15.063  32.824  17.557  1.00  0.00     0.057 C 
ENDROOT
BRANCH   2   3
HETATM    3  C   LIG     1      14.063  31.854  16.883  1.00  0.00    -0.008 C 
HETATM    4  C   LIG     1      14.639  31.221  15.591  1.00  0.00     0.021 C 
HETATM    5  C   LIG     1      13.716  30.692  17.843  1.00  0.00     0.021 C 
HETATM    6  C   LIG     1      12.777  32.613  16.490  1.00  0.00     0.021 C 
ENDBRANCH   2   3
BRANCH   2   7
HETATM    7  C   LIG     1      15.231  32.894  19.054  1.00  0.00     0.131 C 
BRANCH   7   8
HETATM    8  S   LIG     1      15.597  34.611  19.551  1.00  0.00    -0.168 SA
HETATM    9  C   LIG     1      15.239  34.336  21.315  1.00  0.00     0.090 C 
ENDBRANCH   7   8
ENDBRANCH   2   7
BRANCH   1  10
HETATM   10  O   LIG     1      15.886  33.627  15.487  1.00  0.00    -0.156 OA
BRANCH  10  11
HETATM   11  C   LIG     1      16.984  34.145  14.803  1.00  0.00     0.384 C 
HETATM   12  N   LIG     1      17.747  33.288  13.949  1.00  0.00    -0.340 N 
HETATM   13  C   LIG     1      18.905  33.771  13.208  1.00  0.00     0.151 C 
HETATM   14  H   LIG     1      17.464  32.287  13.855  1.00  0.00     0.164 HD
HETATM   15  O   LIG     1      17.299  35.359  14.936  1.00  0.00    -0.236 OA
ENDBRANCH  10  11
ENDBRANCH   1  10
TORSDOF 5
ENDMDL
MODEL 13
REMARK VINA RESULT:      -3.7     15.764     16.894
REMARK  5 active torsions:
REMARK  status: ('A' for Active; 'I' for Inactive)
REMARK       I    between atoms: N_2  and  C_3 
REMARK    1  A    between atoms: C_3  and  O_4 
REMARK    2  A    between atoms: O_4  and  N_5 
REMARK    3  A    between atoms: C_6  and  C_7 
REMARK    4  A    between atoms: C_6  and  C_11 
REMARK    5  A    between atoms: C_11  and  S_12 
ROOT
HETATM    1  N   LIG     1      24.912  22.586  19.877  1.00  0.00    -0.131 NA
HETATM    2  C   LIG     1      24.132  21.713  20.450  1.00  0.00     0.057 C 
ENDROOT
BRANCH   2   3
HETATM    3  C   LIG     1      23.337  22.046  21.736  1.00  0.00    -0.008 C 
HETATM    4  C   LIG     1      22.727  20.782  22.393  1.00  0.00     0.021 C 
HETATM    5  C   LIG     1      24.266  22.699  22.784  1.00  0.00     0.021 C 
HETATM    6  C   LIG     1      22.169  23.000  21.402  1.00  0.00     0.021 C 
ENDBRANCH   2   3
BRANCH   2   7
HETATM    7  C   LIG     1      23.992  20.392  19.737  1.00  0.00     0.131 C 
BRANCH   7   8
HETATM    8  S   LIG     1      22.974  20.607  18.239  1.00  0.00    -0.168 SA
HETATM    9  C   LIG     1      22.284  18.923  18.283  1.00  0.00     0.090 C 
ENDBRANCH   7   8
ENDBRANCH   2   7
BRANCH   1  10
HETATM   10  O   LIG     1      25.137  23.856  20.357  1.00  0.00    -0.156 OA
BRANCH  10  11
HETATM   11  C   LIG     1      26.352  24.502  20.138  1.00  0.00     0.384 C 
HETATM   12  N   LIG     1      26.371  25.730  19.405  1.00  0.00    -0.340 N 
HETATM   13  C   LIG     1      27.610  26.452  19.144  1.00  0.00     0.151 C 
HETATM   14  H   LIG     1      25.471  26.120  19.048  1.00  0.00     0.164 HD
HETATM   15  O   LIG     1      27.423  24.007  20.584  1.00  0.00    -0.236 OA
ENDBRANCH  10  11
ENDBRANCH   1  10
TORSDOF 5
ENDMDL
MODEL 14
REMARK VINA RESULT:      -3.5     15.388     16.563
REMARK  5 active torsions:
REMARK  status: ('A' for Active; 'I' for Inactive)
REMARK       I    between atoms: N_2  and  C_3 
REMARK    1  A    between atoms: C_3  and  O_4 
REMARK    2  A    between atoms: O_4  and  N_5 
REMARK    3  A    between atoms: C_6  and  C_7 
REMARK    4  A    between atoms: C_6  and  C_11 
REMARK    5  A    between atoms: C_11  and  S_12 
ROOT
HETATM    1  N   LIG     1      25.595  23.217  21.332  1.00  0.00    -0.131 NA
HETATM    2  C   LIG     1      24.827  22.403  22.000  1.00  0.00     0.057 C 
ENDROOT
BRANCH   2   3
HETATM    3  C   LIG     1      23.394  22.057  21.529  1.00  0.00    -0.008 C 
HETATM    4  C   LIG     1      23.373  21.472  20.094  1.00  0.00     0.021 C 
HETATM    5  C   LIG     1      22.767  20.996  22.462  1.00  0.00     0.021 C 
HETATM    6  C   LIG     1      22.521  23.331  21.520  1.00  0.00     0.021 C 
ENDBRANCH   2   3
BRANCH   2   7
HETATM    7  C   LIG     1      25.453  21.760  23.212  1.00  0.00     0.131 C 
BRANCH   7   8
HETATM    8  S   LIG     1      26.334  23.022  24.191  1.00  0.00    -0.168 SA
HETATM    9  C   LIG     1      24.987  23.246  25.395  1.00  0.00     0.090 C 
ENDBRANCH   7   8
ENDBRANCH   2   7
BRANCH   1  10
HETATM   10  O   LIG     1      25.215  23.869  20.181  1.00  0.00    -0.156 OA
BRANCH  10  11
HETATM   11  C   LIG     1      26.151  24.523  19.384  1.00  0.00     0.384 C 
HETATM   12  N   LIG     1      26.678  25.783  19.810  1.00  0.00    -0.340 N 
HETATM   13  C   LIG     1      27.660  26.515  19.020  1.00  0.00     0.151 C 
HETATM   14  H   LIG     1      26.349  26.188  20.715  1.00  0.00     0.164 HD
HETATM   15  O   LIG     1      26.531  24.007  18.297  1.00  0.00    -0.236 OA
ENDBRANCH  10  11
ENDBRANCH   1  10
TORSDOF 5
ENDMDL
MODEL 15
REMARK VINA RESULT:      -3.5     15.457     16.196
REMARK  5 active torsions:
REMARK  status: ('A' for Active; 'I' for Inactive)
REMARK       I    between atoms: N_2  and  C_3 
REMARK    1  A    between atoms: C_3  and  O_4 
REMARK    2  A    between atoms: O_4  and  N_5 
REMARK    3  A    between atoms: C_6  and  C_7 
REMARK    4  A    between atoms: C_6  and  C_11 
REMARK    5  A    between atoms: C_11  and  S_12 
ROOT
HETATM    1  N   LIG     1      25.068  23.048  21.910  1.00  0.00    -0.131 NA
HETATM    2  C   LIG     1      24.593  22.659  20.760  1.00  0.00     0.057 C 
ENDROOT
BRANCH   2   3
HETATM    3  C   LIG     1      23.200  21.999  20.631  1.00  0.00    -0.008 C 
HETATM    4  C   LIG     1      22.076  22.876  21.236  1.00  0.00     0.021 C 
HETATM    5  C   LIG     1      22.851  21.775  19.142  1.00  0.00     0.021 C 
HETATM    6  C   LIG     1      23.185  20.649  21.383  1.00  0.00     0.021 C 
ENDBRANCH   2   3
BRANCH   2   7
HETATM    7  C   LIG     1      25.452  22.968  19.560  1.00  0.00     0.131 C 
BRANCH   7   8
HETATM    8  S   LIG     1      26.176  24.634  19.735  1.00  0.00    -0.168 SA
HETATM    9  C   LIG     1      27.011  24.604  18.117  1.00  0.00     0.090 C 
ENDBRANCH   7   8
ENDBRANCH   2   7
BRANCH   1  10
HETATM   10  O   LIG     1      24.415  22.887  23.111  1.00  0.00    -0.156 OA
BRANCH  10  11
HETATM   11  C   LIG     1      25.111  22.532  24.265  1.00  0.00     0.384 C 
HETATM   12  N   LIG     1      25.125  23.429  25.379  1.00  0.00    -0.340 N 
HETATM   13  C   LIG     1      25.834  23.114  26.613  1.00  0.00     0.151 C 
HETATM   14  H   LIG     1      24.612  24.336  25.305  1.00  0.00     0.164 HD
HETATM   15  O   LIG     1      25.720  21.429  24.325  1.00  0.00    -0.236 OA
ENDBRANCH  10  11
ENDBRANCH   1  10
TORSDOF 5
ENDMDL
MODEL 16
REMARK VINA RESULT:      -3.4     16.337     17.478
REMARK  5 active torsions:
REMARK  status: ('A' for Active; 'I' for Inactive)
REMARK       I    between atoms: N_2  and  C_3 
REMARK    1  A    between atoms: C_3  and  O_4 
REMARK    2  A    between atoms: O_4  and  N_5 
REMARK    3  A    between atoms: C_6  and  C_7 
REMARK    4  A    between atoms: C_6  and  C_11 
REMARK    5  A    between atoms: C_11  and  S_12 
ROOT
HETATM    1  N   LIG     1      24.196  22.232  19.103  1.00  0.00    -0.131 NA
HETATM    2  C   LIG     1      24.414  22.604  20.334  1.00  0.00     0.057 C 
ENDROOT
BRANCH   2   3
HETATM    3  C   LIG     1      23.469  22.198  21.490  1.00  0.00    -0.008 C 
HETATM    4  C   LIG     1      23.233  20.667  21.545  1.00  0.00     0.021 C 
HETATM    5  C   LIG     1      24.078  22.613  22.849  1.00  0.00     0.021 C 
HETATM    6  C   LIG     1      22.090  22.869  21.305  1.00  0.00     0.021 C 
ENDBRANCH   2   3
BRANCH   2   7
HETATM    7  C   LIG     1      25.683  23.382  20.568  1.00  0.00     0.131 C 
BRANCH   7   8
HETATM    8  S   LIG     1      26.492  23.734  18.970  1.00  0.00    -0.168 SA
HETATM    9  C   LIG     1      26.293  25.539  19.097  1.00  0.00     0.090 C 
ENDBRANCH   7   8
ENDBRANCH   2   7
BRANCH   1  10
HETATM   10  O   LIG     1      23.112  21.486  18.700  1.00  0.00    -0.156 OA
BRANCH  10  11
HETATM   11  C   LIG     1      23.270  20.387  17.858  1.00  0.00     0.384 C 
HETATM   12  N   LIG     1      22.118  19.641  17.456  1.00  0.00    -0.340 N 
HETATM   13  C   LIG     1      22.218  18.483  16.577  1.00  0.00     0.151 C 
HETATM   14  H   LIG     1      21.178  19.936  17.803  1.00  0.00     0.164 HD
HETATM   15  O   LIG     1      24.418  20.056  17.455  1.00  0.00    -0.236 OA
ENDBRANCH  10  11
ENDBRANCH   1  10
TORSDOF 5
ENDMDL
MODEL 17
REMARK VINA RESULT:      -3.4     17.247     18.842
REMARK  5 active torsions:
REMARK  status: ('A' for Active; 'I' for Inactive)
REMARK       I    between atoms: N_2  and  C_3 
REMARK    1  A    between atoms: C_3  and  O_4 
REMARK    2  A    between atoms: O_4  and  N_5 
REMARK    3  A    between atoms: C_6  and  C_7 
REMARK    4  A    between atoms: C_6  and  C_11 
REMARK    5  A    between atoms: C_11  and  S_12 
ROOT
HETATM    1  N   LIG     1      26.882  28.510  35.843  1.00  0.00    -0.131 NA
HETATM    2  C   LIG     1      27.272  29.439  36.670  1.00  0.00     0.057 C 
ENDROOT
BRANCH   2   3
HETATM    3  C   LIG     1      27.225  30.940  36.297  1.00  0.00    -0.008 C 
HETATM    4  C   LIG     1      25.829  31.374  35.783  1.00  0.00     0.021 C 
HETATM    5  C   LIG     1      27.545  31.809  37.534  1.00  0.00     0.021 C 
HETATM    6  C   LIG     1      28.241  31.235  35.171  1.00  0.00     0.021 C 
ENDBRANCH   2   3
BRANCH   2   7
HETATM    7  C   LIG     1      27.692  28.963  38.038  1.00  0.00     0.131 C 
BRANCH   7   8
HETATM    8  S   LIG     1      29.058  27.764  37.878  1.00  0.00    -0.168 SA
HETATM    9  C   LIG     1      30.303  29.015  37.429  1.00  0.00     0.090 C 
ENDBRANCH   7   8
ENDBRANCH   2   7
BRANCH   1  10
HETATM   10  O   LIG     1      26.430  28.752  34.566  1.00  0.00    -0.156 OA
BRANCH  10  11
HETATM   11  C   LIG     1      27.007  28.118  33.468  1.00  0.00     0.384 C 
HETATM   12  N   LIG     1      26.231  27.188  32.707  1.00  0.00    -0.340 N 
HETATM   13  C   LIG     1      26.778  26.493  31.549  1.00  0.00     0.151 C 
HETATM   14  H   LIG     1      25.243  27.002  32.992  1.00  0.00     0.164 HD
HETATM   15  O   LIG     1      28.202  28.364  33.148  1.00  0.00    -0.236 OA
ENDBRANCH  10  11
ENDBRANCH   1  10
TORSDOF 5
ENDMDL
