REMARK  5 active torsions:
REMARK  status: ('A' for Active; 'I' for Inactive)
REMARK       I    between atoms: N_2  and  C_3 
REMARK    1  A    between atoms: C_3  and  O_4 
REMARK    2  A    between atoms: O_4  and  N_5 
REMARK    3  A    between atoms: C_6  and  C_7 
REMARK    4  A    between atoms: C_6  and  C_11 
REMARK    5  A    between atoms: C_11  and  S_12 
ROOT
HETATM    1  N   LIG     1       0.469   0.805  -0.355  1.00  0.00    -0.131 NA
HETATM    2  C   LIG     1      -0.695   0.219  -0.390  1.00  0.00     0.057 C 
ENDROOT
BRANCH   2   3
HETATM    3  C   LIG     1      -0.877  -1.265   0.009  1.00  0.00    -0.008 C 
HETATM    4  C   LIG     1      -2.348  -1.733  -0.126  1.00  0.00     0.021 C 
HETATM    5  C   LIG     1      -0.025  -2.173  -0.907  1.00  0.00     0.021 C 
HETATM    6  C   LIG     1      -0.463  -1.469   1.483  1.00  0.00     0.021 C 
ENDBRANCH   2   3
BRANCH   2   7
HETATM    7  C   LIG     1      -1.860   1.100  -0.765  1.00  0.00     0.131 C 
BRANCH   7   8
HETATM    8  S   LIG     1      -2.637   1.767   0.745  1.00  0.00    -0.168 SA
HETATM    9  C   LIG     1      -3.938   2.677  -0.146  1.00  0.00     0.090 C 
ENDBRANCH   7   8
ENDBRANCH   2   7
BRANCH   1  10
HETATM   10  O   LIG     1       1.641   0.176  -0.001  1.00  0.00    -0.156 OA
BRANCH  10  11
HETATM   11  C   LIG     1       2.850   0.868   0.017  1.00  0.00     0.384 C 
HETATM   12  N   LIG     1       4.047   0.179   0.390  1.00  0.00    -0.340 N 
HETATM   13  C   LIG     1       5.341   0.848   0.428  1.00  0.00     0.151 C 
HETATM   14  H   LIG     1       3.990  -0.833   0.642  1.00  0.00     0.164 HD
HETATM   15  O   LIG     1       2.887   2.090  -0.294  1.00  0.00    -0.236 OA
ENDBRANCH  10  11
ENDBRANCH   1  10
TORSDOF 5
