REMARK  3 active torsions:
REMARK  status: ('A' for Active; 'I' for Inactive)
REMARK    1  A    between atoms: O_1  and  C_2 
REMARK    2  A    between atoms: C_2  and  C_3 
REMARK    3  A    between atoms: C_2  and  C_5 
ROOT
HETATM    1  C   LIG     1       0.454   0.193  -0.542  1.00  0.00     0.125 C 
ENDROOT
BRANCH   1   2
HETATM    2  O   LIG     1       0.375   1.480  -1.111  1.00  0.00    -0.395 OA
HETATM    3  H   LIG     1       0.247   1.367  -2.089  1.00  0.00     0.210 HD
ENDBRANCH   1   2
BRANCH   1   4
HETATM    4  C   LIG     1       1.599   0.187   0.496  1.00  0.00     0.028 C 
HETATM    5  C   LIG     1       2.950   0.487  -0.153  1.00  0.00     0.007 C 
ENDBRANCH   1   4
BRANCH   1   6
HETATM    6  C   LIG     1      -0.944  -0.221   0.037  1.00  0.00    -0.025 C 
HETATM    7  C   LIG     1      -1.988  -0.194  -1.103  1.00  0.00     0.017 C 
HETATM    8  C   LIG     1      -0.904  -1.658   0.607  1.00  0.00     0.017 C 
HETATM    9  C   LIG     1      -1.407   0.749   1.147  1.00  0.00     0.017 C 
ENDBRANCH   1   6
TORSDOF 3
