MODEL 1
REMARK VINA RESULT:      -5.1      0.000      0.000
REMARK  3 active torsions:
REMARK  status: ('A' for Active; 'I' for Inactive)
REMARK    1  A    between atoms: O_1  and  C_2 
REMARK    2  A    between atoms: C_2  and  C_3 
REMARK    3  A    between atoms: C_2  and  C_5 
ROOT
HETATM    1  C   LIG     1      17.372  37.304  24.261  1.00  0.00     0.125 C 
ENDROOT
BRANCH   1   2
HETATM    2  O   LIG     1      16.521  38.211  24.924  1.00  0.00    -0.395 OA
HETATM    3  H   LIG     1      16.370  38.979  24.314  1.00  0.00     0.210 HD
ENDBRANCH   1   2
BRANCH   1   4
HETATM    4  C   LIG     1      17.525  36.044  25.143  1.00  0.00     0.028 C 
HETATM    5  C   LIG     1      18.310  36.341  26.420  1.00  0.00     0.007 C 
ENDBRANCH   1   4
BRANCH   1   6
HETATM    6  C   LIG     1      16.828  37.020  22.818  1.00  0.00    -0.025 C 
HETATM    7  C   LIG     1      15.375  37.538  22.717  1.00  0.00     0.017 C 
HETATM    8  C   LIG     1      17.669  37.761  21.753  1.00  0.00     0.017 C 
HETATM    9  C   LIG     1      16.831  35.508  22.499  1.00  0.00     0.017 C 
ENDBRANCH   1   6
TORSDOF 3
ENDMDL
MODEL 2
REMARK VINA RESULT:      -5.1      1.585      2.292
REMARK  3 active torsions:
REMARK  status: ('A' for Active; 'I' for Inactive)
REMARK    1  A    between atoms: O_1  and  C_2 
REMARK    2  A    between atoms: C_2  and  C_3 
REMARK    3  A    between atoms: C_2  and  C_5 
ROOT
HETATM    1  C   LIG     1      16.418  37.795  22.776  1.00  0.00     0.125 C 
ENDROOT
BRANCH   1   2
HETATM    2  O   LIG     1      15.262  37.889  23.577  1.00  0.00    -0.395 OA
HETATM    3  H   LIG     1      15.526  38.315  24.434  1.00  0.00     0.210 HD
ENDBRANCH   1   2
BRANCH   1   4
HETATM    4  C   LIG     1      17.647  38.124  23.652  1.00  0.00     0.028 C 
HETATM    5  C   LIG     1      17.285  38.177  25.136  1.00  0.00     0.007 C 
ENDBRANCH   1   4
BRANCH   1   6
HETATM    6  C   LIG     1      16.476  36.387  22.086  1.00  0.00    -0.025 C 
HETATM    7  C   LIG     1      17.498  36.437  20.928  1.00  0.00     0.017 C 
HETATM    8  C   LIG     1      16.943  35.301  23.083  1.00  0.00     0.017 C 
HETATM    9  C   LIG     1      15.101  35.983  21.508  1.00  0.00     0.017 C 
ENDBRANCH   1   6
TORSDOF 3
ENDMDL
MODEL 3
REMARK VINA RESULT:      -4.7      2.765      4.212
REMARK  3 active torsions:
REMARK  status: ('A' for Active; 'I' for Inactive)
REMARK    1  A    between atoms: O_1  and  C_2 
REMARK    2  A    between atoms: C_2  and  C_3 
REMARK    3  A    between atoms: C_2  and  C_5 
ROOT
HETATM    1  C   LIG     1      17.693  36.240  20.847  1.00  0.00     0.125 C 
ENDROOT
BRANCH   1   2
HETATM    2  O   LIG     1      17.132  35.775  19.640  1.00  0.00    -0.395 OA
HETATM    3  H   LIG     1      16.148  35.730  19.766  1.00  0.00     0.210 HD
ENDBRANCH   1   2
BRANCH   1   4
HETATM    4  C   LIG     1      18.329  37.624  20.588  1.00  0.00     0.028 C 
HETATM    5  C   LIG     1      19.344  37.574  19.447  1.00  0.00     0.007 C 
ENDBRANCH   1   4
BRANCH   1   6
HETATM    6  C   LIG     1      16.607  36.230  21.979  1.00  0.00    -0.025 C 
HETATM    7  C   LIG     1      15.256  35.781  21.375  1.00  0.00     0.017 C 
HETATM    8  C   LIG     1      16.981  35.228  23.096  1.00  0.00     0.017 C 
HETATM    9  C   LIG     1      16.423  37.632  22.600  1.00  0.00     0.017 C 
ENDBRANCH   1   6
TORSDOF 3
ENDMDL
MODEL 4
REMARK VINA RESULT:      -4.7      2.273      4.052
REMARK  3 active torsions:
REMARK  status: ('A' for Active; 'I' for Inactive)
REMARK    1  A    between atoms: O_1  and  C_2 
REMARK    2  A    between atoms: C_2  and  C_3 
REMARK    3  A    between atoms: C_2  and  C_5 
ROOT
HETATM    1  C   LIG     1      18.343  39.023  21.489  1.00  0.00     0.125 C 
ENDROOT
BRANCH   1   2
HETATM    2  O   LIG     1      19.487  39.382  22.231  1.00  0.00    -0.395 OA
HETATM    3  H   LIG     1      20.283  39.104  21.707  1.00  0.00     0.210 HD
ENDBRANCH   1   2
BRANCH   1   4
HETATM    4  C   LIG     1      18.801  38.259  20.226  1.00  0.00     0.028 C 
HETATM    5  C   LIG     1      20.117  38.812  19.678  1.00  0.00     0.007 C 
ENDBRANCH   1   4
BRANCH   1   6
HETATM    6  C   LIG     1      17.345  38.226  22.400  1.00  0.00    -0.025 C 
HETATM    7  C   LIG     1      17.917  38.160  23.835  1.00  0.00     0.017 C 
HETATM    8  C   LIG     1      15.972  38.934  22.470  1.00  0.00     0.017 C 
HETATM    9  C   LIG     1      17.142  36.782  21.888  1.00  0.00     0.017 C 
ENDBRANCH   1   6
TORSDOF 3
ENDMDL
MODEL 5
REMARK VINA RESULT:      -4.6      3.165      4.641
REMARK  3 active torsions:
REMARK  status: ('A' for Active; 'I' for Inactive)
REMARK    1  A    between atoms: O_1  and  C_2 
REMARK    2  A    between atoms: C_2  and  C_3 
REMARK    3  A    between atoms: C_2  and  C_5 
ROOT
HETATM    1  C   LIG     1      18.886  38.705  21.184  1.00  0.00     0.125 C 
ENDROOT
BRANCH   1   2
HETATM    2  O   LIG     1      18.801  40.101  21.356  1.00  0.00    -0.395 OA
HETATM    3  H   LIG     1      18.931  40.291  22.321  1.00  0.00     0.210 HD
ENDBRANCH   1   2
BRANCH   1   4
HETATM    4  C   LIG     1      17.563  38.071  21.668  1.00  0.00     0.028 C 
HETATM    5  C   LIG     1      16.848  38.964  22.682  1.00  0.00     0.007 C 
ENDBRANCH   1   4
BRANCH   1   6
HETATM    6  C   LIG     1      19.254  38.372  19.695  1.00  0.00    -0.025 C 
HETATM    7  C   LIG     1      20.784  38.507  19.514  1.00  0.00     0.017 C 
HETATM    8  C   LIG     1      18.863  36.918  19.340  1.00  0.00     0.017 C 
HETATM    9  C   LIG     1      18.557  39.337  18.710  1.00  0.00     0.017 C 
ENDBRANCH   1   6
TORSDOF 3
ENDMDL
MODEL 6
REMARK VINA RESULT:      -4.3      1.784      3.435
REMARK  3 active torsions:
REMARK  status: ('A' for Active; 'I' for Inactive)
REMARK    1  A    between atoms: O_1  and  C_2 
REMARK    2  A    between atoms: C_2  and  C_3 
REMARK    3  A    between atoms: C_2  and  C_5 
ROOT
HETATM    1  C   LIG     1      17.342  36.093  22.253  1.00  0.00     0.125 C 
ENDROOT
BRANCH   1   2
HETATM    2  O   LIG     1      16.890  35.123  23.171  1.00  0.00    -0.395 OA
HETATM    3  H   LIG     1      16.231  34.550  22.700  1.00  0.00     0.210 HD
ENDBRANCH   1   2
BRANCH   1   4
HETATM    4  C   LIG     1      16.738  35.773  20.867  1.00  0.00     0.028 C 
HETATM    5  C   LIG     1      15.991  34.439  20.872  1.00  0.00     0.007 C 
ENDBRANCH   1   4
BRANCH   1   6
HETATM    6  C   LIG     1      17.006  37.530  22.787  1.00  0.00    -0.025 C 
HETATM    7  C   LIG     1      15.474  37.734  22.749  1.00  0.00     0.017 C 
HETATM    8  C   LIG     1      17.468  37.698  24.253  1.00  0.00     0.017 C 
HETATM    9  C   LIG     1      17.667  38.625  21.920  1.00  0.00     0.017 C 
ENDBRANCH   1   6
TORSDOF 3
ENDMDL
MODEL 7
REMARK VINA RESULT:      -4.3      2.284      3.622
REMARK  3 active torsions:
REMARK  status: ('A' for Active; 'I' for Inactive)
REMARK    1  A    between atoms: O_1  and  C_2 
REMARK    2  A    between atoms: C_2  and  C_3 
REMARK    3  A    between atoms: C_2  and  C_5 
ROOT
HETATM    1  C   LIG     1      17.821  37.266  21.702  1.00  0.00     0.125 C 
ENDROOT
BRANCH   1   2
HETATM    2  O   LIG     1      17.738  36.689  20.419  1.00  0.00    -0.395 OA
HETATM    3  H   LIG     1      18.211  35.817  20.452  1.00  0.00     0.210 HD
ENDBRANCH   1   2
BRANCH   1   4
HETATM    4  C   LIG     1      17.750  38.802  21.553  1.00  0.00     0.028 C 
HETATM    5  C   LIG     1      18.805  39.323  20.577  1.00  0.00     0.007 C 
ENDBRANCH   1   4
BRANCH   1   6
HETATM    6  C   LIG     1      16.715  36.656  22.633  1.00  0.00    -0.025 C 
HETATM    7  C   LIG     1      16.627  37.498  23.927  1.00  0.00     0.017 C 
HETATM    8  C   LIG     1      15.329  36.698  21.948  1.00  0.00     0.017 C 
HETATM    9  C   LIG     1      17.042  35.197  23.020  1.00  0.00     0.017 C 
ENDBRANCH   1   6
TORSDOF 3
ENDMDL
MODEL 8
REMARK VINA RESULT:      -3.9     11.566     12.977
REMARK  3 active torsions:
REMARK  status: ('A' for Active; 'I' for Inactive)
REMARK    1  A    between atoms: O_1  and  C_2 
REMARK    2  A    between atoms: C_2  and  C_3 
REMARK    3  A    between atoms: C_2  and  C_5 
ROOT
HETATM    1  C   LIG     1      19.165  34.440  11.636  1.00  0.00     0.125 C 
ENDROOT
BRANCH   1   2
HETATM    2  O   LIG     1      18.479  34.551  10.410  1.00  0.00    -0.395 OA
HETATM    3  H   LIG     1      18.378  35.518  10.211  1.00  0.00     0.210 HD
ENDBRANCH   1   2
BRANCH   1   4
HETATM    4  C   LIG     1      18.475  33.346  12.484  1.00  0.00     0.028 C 
HETATM    5  C   LIG     1      18.040  33.881  13.848  1.00  0.00     0.007 C 
ENDBRANCH   1   4
BRANCH   1   6
HETATM    6  C   LIG     1      20.690  34.186  11.374  1.00  0.00    -0.025 C 
HETATM    7  C   LIG     1      21.169  35.127  10.244  1.00  0.00     0.017 C 
HETATM    8  C   LIG     1      21.529  34.498  12.635  1.00  0.00     0.017 C 
HETATM    9  C   LIG     1      20.956  32.727  10.940  1.00  0.00     0.017 C 
ENDBRANCH   1   6
TORSDOF 3
ENDMDL
MODEL 9
REMARK VINA RESULT:      -3.9      9.073     10.713
REMARK  3 active torsions:
REMARK  status: ('A' for Active; 'I' for Inactive)
REMARK    1  A    between atoms: O_1  and  C_2 
REMARK    2  A    between atoms: C_2  and  C_3 
REMARK    3  A    between atoms: C_2  and  C_5 
ROOT
HETATM    1  C   LIG     1      14.010  30.511  15.825  1.00  0.00     0.125 C 
ENDROOT
BRANCH   1   2
HETATM    2  O   LIG     1      12.686  30.198  15.459  1.00  0.00    -0.395 OA
HETATM    3  H   LIG     1      12.103  30.929  15.793  1.00  0.00     0.210 HD
ENDBRANCH   1   2
BRANCH   1   4
HETATM    4  C   LIG     1      14.863  30.609  14.540  1.00  0.00     0.028 C 
HETATM    5  C   LIG     1      15.216  29.227  13.991  1.00  0.00     0.007 C 
ENDBRANCH   1   4
BRANCH   1   6
HETATM    6  C   LIG     1      14.027  31.806  16.711  1.00  0.00    -0.025 C 
HETATM    7  C   LIG     1      15.128  32.758  16.188  1.00  0.00     0.017 C 
HETATM    8  C   LIG     1      12.676  32.553  16.625  1.00  0.00     0.017 C 
HETATM    9  C   LIG     1      14.328  31.476  18.190  1.00  0.00     0.017 C 
ENDBRANCH   1   6
TORSDOF 3
ENDMDL
MODEL 10
REMARK VINA RESULT:      -3.7      8.623     10.187
REMARK  3 active torsions:
REMARK  status: ('A' for Active; 'I' for Inactive)
REMARK    1  A    between atoms: O_1  and  C_2 
REMARK    2  A    between atoms: C_2  and  C_3 
REMARK    3  A    between atoms: C_2  and  C_5 
ROOT
HETATM    1  C   LIG     1      14.934  31.251  15.907  1.00  0.00     0.125 C 
ENDROOT
BRANCH   1   2
HETATM    2  O   LIG     1      13.947  30.512  15.226  1.00  0.00    -0.395 OA
HETATM    3  H   LIG     1      14.196  30.494  14.265  1.00  0.00     0.210 HD
ENDBRANCH   1   2
BRANCH   1   4
HETATM    4  C   LIG     1      15.808  31.980  14.862  1.00  0.00     0.028 C 
HETATM    5  C   LIG     1      15.673  31.349  13.476  1.00  0.00     0.007 C 
ENDBRANCH   1   4
BRANCH   1   6
HETATM    6  C   LIG     1      14.259  32.200  16.959  1.00  0.00    -0.025 C 
HETATM    7  C   LIG     1      12.728  32.179  16.745  1.00  0.00     0.017 C 
HETATM    8  C   LIG     1      14.541  31.718  18.401  1.00  0.00     0.017 C 
HETATM    9  C   LIG     1      14.755  33.655  16.808  1.00  0.00     0.017 C 
ENDBRANCH   1   6
TORSDOF 3
ENDMDL
MODEL 11
REMARK VINA RESULT:      -3.6      3.232      4.167
REMARK  3 active torsions:
REMARK  status: ('A' for Active; 'I' for Inactive)
REMARK    1  A    between atoms: O_1  and  C_2 
REMARK    2  A    between atoms: C_2  and  C_3 
REMARK    3  A    between atoms: C_2  and  C_5 
ROOT
HETATM    1  C   LIG     1      17.319  35.964  20.928  1.00  0.00     0.125 C 
ENDROOT
BRANCH   1   2
HETATM    2  O   LIG     1      17.959  36.321  19.724  1.00  0.00    -0.395 OA
HETATM    3  H   LIG     1      18.705  36.935  19.952  1.00  0.00     0.210 HD
ENDBRANCH   1   2
BRANCH   1   4
HETATM    4  C   LIG     1      17.191  37.229  21.807  1.00  0.00     0.028 C 
HETATM    5  C   LIG     1      18.050  38.375  21.274  1.00  0.00     0.007 C 
ENDBRANCH   1   4
BRANCH   1   6
HETATM    6  C   LIG     1      15.956  35.253  20.617  1.00  0.00    -0.025 C 
HETATM    7  C   LIG     1      16.000  33.814  21.181  1.00  0.00     0.017 C 
HETATM    8  C   LIG     1      14.779  35.991  21.297  1.00  0.00     0.017 C 
HETATM    9  C   LIG     1      15.691  35.175  19.097  1.00  0.00     0.017 C 
ENDBRANCH   1   6
TORSDOF 3
ENDMDL
MODEL 12
REMARK VINA RESULT:      -3.4     12.195     13.125
REMARK  3 active torsions:
REMARK  status: ('A' for Active; 'I' for Inactive)
REMARK    1  A    between atoms: O_1  and  C_2 
REMARK    2  A    between atoms: C_2  and  C_3 
REMARK    3  A    between atoms: C_2  and  C_5 
ROOT
HETATM    1  C   LIG     1      19.235  34.063  11.792  1.00  0.00     0.125 C 
ENDROOT
BRANCH   1   2
HETATM    2  O   LIG     1      19.047  34.491  13.122  1.00  0.00    -0.395 OA
HETATM    3  H   LIG     1      19.939  34.724  13.490  1.00  0.00     0.210 HD
ENDBRANCH   1   2
BRANCH   1   4
HETATM    4  C   LIG     1      18.440  35.005  10.859  1.00  0.00     0.028 C 
HETATM    5  C   LIG     1      17.145  35.486  11.513  1.00  0.00     0.007 C 
ENDBRANCH   1   4
BRANCH   1   6
HETATM    6  C   LIG     1      20.768  33.979  11.471  1.00  0.00    -0.025 C 
HETATM    7  C   LIG     1      21.083  32.583  10.887  1.00  0.00     0.017 C 
HETATM    8  C   LIG     1      21.171  35.035  10.415  1.00  0.00     0.017 C 
HETATM    9  C   LIG     1      21.625  34.183  12.740  1.00  0.00     0.017 C 
ENDBRANCH   1   6
TORSDOF 3
ENDMDL
MODEL 13
REMARK VINA RESULT:      -3.4     17.645     19.468
REMARK  3 active torsions:
REMARK  status: ('A' for Active; 'I' for Inactive)
REMARK    1  A    between atoms: O_1  and  C_2 
REMARK    2  A    between atoms: C_2  and  C_3 
REMARK    3  A    between atoms: C_2  and  C_5 
ROOT
HETATM    1  C   LIG     1      21.440  23.332  35.989  1.00  0.00     0.125 C 
ENDROOT
BRANCH   1   2
HETATM    2  O   LIG     1      21.098  24.594  36.515  1.00  0.00    -0.395 OA
HETATM    3  H   LIG     1      20.136  24.748  36.321  1.00  0.00     0.210 HD
ENDBRANCH   1   2
BRANCH   1   4
HETATM    4  C   LIG     1      21.677  23.484  34.469  1.00  0.00     0.028 C 
HETATM    5  C   LIG     1      20.506  22.930  33.657  1.00  0.00     0.007 C 
ENDBRANCH   1   4
BRANCH   1   6
HETATM    6  C   LIG     1      22.660  22.738  36.776  1.00  0.00    -0.025 C 
HETATM    7  C   LIG     1      22.356  21.267  37.140  1.00  0.00     0.017 C 
HETATM    8  C   LIG     1      23.940  22.755  35.909  1.00  0.00     0.017 C 
HETATM    9  C   LIG     1      22.925  23.520  38.082  1.00  0.00     0.017 C 
ENDBRANCH   1   6
TORSDOF 3
ENDMDL
MODEL 14
REMARK VINA RESULT:      -3.3     17.380     18.815
REMARK  3 active torsions:
REMARK  status: ('A' for Active; 'I' for Inactive)
REMARK    1  A    between atoms: O_1  and  C_2 
REMARK    2  A    between atoms: C_2  and  C_3 
REMARK    3  A    between atoms: C_2  and  C_5 
ROOT
HETATM    1  C   LIG     1      21.762  23.697  35.348  1.00  0.00     0.125 C 
ENDROOT
BRANCH   1   2
HETATM    2  O   LIG     1      20.926  24.394  36.243  1.00  0.00    -0.395 OA
HETATM    3  H   LIG     1      20.330  24.977  35.703  1.00  0.00     0.210 HD
ENDBRANCH   1   2
BRANCH   1   4
HETATM    4  C   LIG     1      23.015  23.222  36.119  1.00  0.00     0.028 C 
HETATM    5  C   LIG     1      22.814  23.313  37.631  1.00  0.00     0.007 C 
ENDBRANCH   1   4
BRANCH   1   6
HETATM    6  C   LIG     1      20.957  22.544  34.653  1.00  0.00    -0.025 C 
HETATM    7  C   LIG     1      21.949  21.468  34.153  1.00  0.00     0.017 C 
HETATM    8  C   LIG     1      19.988  21.866  35.649  1.00  0.00     0.017 C 
HETATM    9  C   LIG     1      20.151  23.066  33.442  1.00  0.00     0.017 C 
ENDBRANCH   1   6
TORSDOF 3
ENDMDL
MODEL 15
REMARK VINA RESULT:      -3.2     11.519     12.934
REMARK  3 active torsions:
REMARK  status: ('A' for Active; 'I' for Inactive)
REMARK    1  A    between atoms: O_1  and  C_2 
REMARK    2  A    between atoms: C_2  and  C_3 
REMARK    3  A    between atoms: C_2  and  C_5 
ROOT
HETATM    1  C   LIG     1      19.574  33.818  12.212  1.00  0.00     0.125 C 
ENDROOT
BRANCH   1   2
HETATM    2  O   LIG     1      20.432  34.650  12.960  1.00  0.00    -0.395 OA
HETATM    3  H   LIG     1      21.248  34.803  12.415  1.00  0.00     0.210 HD
ENDBRANCH   1   2
BRANCH   1   4
HETATM    4  C   LIG     1      18.117  34.108  12.640  1.00  0.00     0.028 C 
HETATM    5  C   LIG     1      17.858  33.680  14.084  1.00  0.00     0.007 C 
ENDBRANCH   1   4
BRANCH   1   6
HETATM    6  C   LIG     1      19.847  34.011  10.679  1.00  0.00    -0.025 C 
HETATM    7  C   LIG     1      19.936  32.622  10.006  1.00  0.00     0.017 C 
HETATM    8  C   LIG     1      18.694  34.790  10.005  1.00  0.00     0.017 C 
HETATM    9  C   LIG     1      21.175  34.760  10.430  1.00  0.00     0.017 C 
ENDBRANCH   1   6
TORSDOF 3
ENDMDL
MODEL 16
REMARK VINA RESULT:      -3.1     16.225     17.945
REMARK  3 active torsions:
REMARK  status: ('A' for Active; 'I' for Inactive)
REMARK    1  A    between atoms: O_1  and  C_2 
REMARK    2  A    between atoms: C_2  and  C_3 
REMARK    3  A    between atoms: C_2  and  C_5 
ROOT
HETATM    1  C   LIG     1      26.662  29.791  37.540  1.00  0.00     0.125 C 
ENDROOT
BRANCH   1   2
HETATM    2  O   LIG     1      25.324  29.703  37.975  1.00  0.00    -0.395 OA
HETATM    3  H   LIG     1      25.282  30.085  38.890  1.00  0.00     0.210 HD
ENDBRANCH   1   2
BRANCH   1   4
HETATM    4  C   LIG     1      26.959  28.583  36.623  1.00  0.00     0.028 C 
HETATM    5  C   LIG     1      27.588  27.427  37.401  1.00  0.00     0.007 C 
ENDBRANCH   1   4
BRANCH   1   6
HETATM    6  C   LIG     1      26.914  31.187  36.869  1.00  0.00    -0.025 C 
HETATM    7  C   LIG     1      28.278  31.157  36.143  1.00  0.00     0.017 C 
HETATM    8  C   LIG     1      25.825  31.500  35.816  1.00  0.00     0.017 C 
HETATM    9  C   LIG     1      26.942  32.322  37.917  1.00  0.00     0.017 C 
ENDBRANCH   1   6
TORSDOF 3
ENDMDL
MODEL 17
REMARK VINA RESULT:      -3.1     15.913     17.138
REMARK  3 active torsions:
REMARK  status: ('A' for Active; 'I' for Inactive)
REMARK    1  A    between atoms: O_1  and  C_2 
REMARK    2  A    between atoms: C_2  and  C_3 
REMARK    3  A    between atoms: C_2  and  C_5 
ROOT
HETATM    1  C   LIG     1      23.537  21.118  20.301  1.00  0.00     0.125 C 
ENDROOT
BRANCH   1   2
HETATM    2  O   LIG     1      23.074  19.789  20.382  1.00  0.00    -0.395 OA
HETATM    3  H   LIG     1      22.655  19.565  19.511  1.00  0.00     0.210 HD
ENDBRANCH   1   2
BRANCH   1   4
HETATM    4  C   LIG     1      22.996  21.744  18.995  1.00  0.00     0.028 C 
HETATM    5  C   LIG     1      24.123  22.314  18.134  1.00  0.00     0.007 C 
ENDBRANCH   1   4
BRANCH   1   6
HETATM    6  C   LIG     1      23.145  21.901  21.602  1.00  0.00    -0.025 C 
HETATM    7  C   LIG     1      21.969  22.852  21.282  1.00  0.00     0.017 C 
HETATM    8  C   LIG     1      22.679  20.930  22.713  1.00  0.00     0.017 C 
HETATM    9  C   LIG     1      24.326  22.744  22.133  1.00  0.00     0.017 C 
ENDBRANCH   1   6
TORSDOF 3
ENDMDL
MODEL 18
REMARK VINA RESULT:      -3.0     19.604     20.577
REMARK  3 active torsions:
REMARK  status: ('A' for Active; 'I' for Inactive)
REMARK    1  A    between atoms: O_1  and  C_2 
REMARK    2  A    between atoms: C_2  and  C_3 
REMARK    3  A    between atoms: C_2  and  C_5 
ROOT
HETATM    1  C   LIG     1      16.143  18.753  14.825  1.00  0.00     0.125 C 
ENDROOT
BRANCH   1   2
HETATM    2  O   LIG     1      16.759  19.958  15.218  1.00  0.00    -0.395 OA
HETATM    3  H   LIG     1      16.041  20.581  15.505  1.00  0.00     0.210 HD
ENDBRANCH   1   2
BRANCH   1   4
HETATM    4  C   LIG     1      14.779  18.645  15.544  1.00  0.00     0.028 C 
HETATM    5  C   LIG     1      14.933  18.731  17.062  1.00  0.00     0.007 C 
ENDBRANCH   1   4
BRANCH   1   6
HETATM    6  C   LIG     1      16.056  18.684  13.261  1.00  0.00    -0.025 C 
HETATM    7  C   LIG     1      16.068  20.122  12.693  1.00  0.00     0.017 C 
HETATM    8  C   LIG     1      17.272  17.933  12.670  1.00  0.00     0.017 C 
HETATM    9  C   LIG     1      14.758  17.986  12.796  1.00  0.00     0.017 C 
ENDBRANCH   1   6
TORSDOF 3
ENDMDL
MODEL 19
REMARK VINA RESULT:      -2.9      8.803     10.207
REMARK  3 active torsions:
REMARK  status: ('A' for Active; 'I' for Inactive)
REMARK    1  A    between atoms: O_1  and  C_2 
REMARK    2  A    between atoms: C_2  and  C_3 
REMARK    3  A    between atoms: C_2  and  C_5 
ROOT
HETATM    1  C   LIG     1      14.578  31.885  15.598  1.00  0.00     0.125 C 
ENDROOT
BRANCH   1   2
HETATM    2  O   LIG     1      13.902  30.773  16.138  1.00  0.00    -0.395 OA
HETATM    3  H   LIG     1      14.429  29.963  15.911  1.00  0.00     0.210 HD
ENDBRANCH   1   2
BRANCH   1   4
HETATM    4  C   LIG     1      14.961  32.834  16.756  1.00  0.00     0.028 C 
HETATM    5  C   LIG     1      14.675  32.204  18.119  1.00  0.00     0.007 C 
ENDBRANCH   1   4
BRANCH   1   6
HETATM    6  C   LIG     1      15.793  31.401  14.732  1.00  0.00    -0.025 C 
HETATM    7  C   LIG     1      15.692  29.871  14.535  1.00  0.00     0.017 C 
HETATM    8  C   LIG     1      15.774  32.059  13.333  1.00  0.00     0.017 C 
HETATM    9  C   LIG     1      17.141  31.717  15.419  1.00  0.00     0.017 C 
ENDBRANCH   1   6
TORSDOF 3
ENDMDL
MODEL 20
REMARK VINA RESULT:      -2.9      9.537     11.151
REMARK  3 active torsions:
REMARK  status: ('A' for Active; 'I' for Inactive)
REMARK    1  A    between atoms: O_1  and  C_2 
REMARK    2  A    between atoms: C_2  and  C_3 
REMARK    3  A    between atoms: C_2  and  C_5 
ROOT
HETATM    1  C   LIG     1      15.291  30.769  15.110  1.00  0.00     0.125 C 
ENDROOT
BRANCH   1   2
HETATM    2  O   LIG     1      14.066  31.001  15.767  1.00  0.00    -0.395 OA
HETATM    3  H   LIG     1      13.493  31.530  15.153  1.00  0.00     0.210 HD
ENDBRANCH   1   2
BRANCH   1   4
HETATM    4  C   LIG     1      14.996  30.098  13.750  1.00  0.00     0.028 C 
HETATM    5  C   LIG     1      15.321  28.604  13.776  1.00  0.00     0.007 C 
ENDBRANCH   1   4
BRANCH   1   6
HETATM    6  C   LIG     1      16.103  32.108  15.007  1.00  0.00    -0.025 C 
HETATM    7  C   LIG     1      17.546  31.859  15.501  1.00  0.00     0.017 C 
HETATM    8  C   LIG     1      16.183  32.596  13.542  1.00  0.00     0.017 C 
HETATM    9  C   LIG     1      15.473  33.220  15.875  1.00  0.00     0.017 C 
ENDBRANCH   1   6
TORSDOF 3
ENDMDL
