MODEL 1
REMARK VINA RESULT:      -4.7      0.000      0.000
REMARK  1 active torsions:
REMARK  status: ('A' for Active; 'I' for Inactive)
REMARK    1  A    between atoms: C_3  and  C_4 
ROOT
HETATM    1 CL   LIG     1      26.635  25.799  19.744  1.00  0.00    -0.081 Cl
HETATM    2  C   LIG     1      27.644  25.160  18.440  1.00  0.00     0.070 A 
HETATM    3  C   LIG     1      27.566  23.799  18.090  1.00  0.00     0.023 A 
HETATM    4  C   LIG     1      28.371  23.293  17.050  1.00  0.00     0.070 A 
HETATM    5 CL   LIG     1      28.277  21.585  16.608  1.00  0.00    -0.081 Cl
HETATM    6  C   LIG     1      29.251  24.147  16.366  1.00  0.00     0.080 A 
HETATM    7 CL   LIG     1      30.262  23.513  15.064  1.00  0.00    -0.081 Cl
HETATM    8  C   LIG     1      29.329  25.506  16.716  1.00  0.00     0.081 A 
HETATM    9 CL   LIG     1      30.436  26.578  15.855  1.00  0.00    -0.081 Cl
HETATM   10  C   LIG     1      28.526  26.013  17.753  1.00  0.00     0.080 A 
HETATM   11 CL   LIG     1      28.623  27.720  18.193  1.00  0.00    -0.081 Cl
ENDROOT
BRANCH   3  12
HETATM   12  C   LIG     1      26.641  22.900  18.813  1.00  0.00     0.003 A 
HETATM   13  C   LIG     1      25.343  22.723  18.321  1.00  0.00     0.040 A 
HETATM   14  C   LIG     1      24.443  21.882  18.979  1.00  0.00     0.058 A 
HETATM   15  C   LIG     1      24.838  21.205  20.146  1.00  0.00     0.079 A 
HETATM   16 CL   LIG     1      22.824  21.695  18.317  1.00  0.00    -0.082 Cl
HETATM   17  C   LIG     1      26.141  21.377  20.648  1.00  0.00     0.080 A 
HETATM   18 CL   LIG     1      23.698  20.143  20.975  1.00  0.00    -0.081 Cl
HETATM   19 CL   LIG     1      26.642  20.529  22.113  1.00  0.00    -0.081 Cl
HETATM   20  C   LIG     1      27.045  22.225  19.982  1.00  0.00     0.068 A 
HETATM   21 CL   LIG     1      28.683  22.446  20.607  1.00  0.00    -0.082 Cl
ENDBRANCH   3  12
TORSDOF 1
ENDMDL
MODEL 2
REMARK VINA RESULT:      -4.7      0.071      2.626
REMARK  1 active torsions:
REMARK  status: ('A' for Active; 'I' for Inactive)
REMARK    1  A    between atoms: C_3  and  C_4 
ROOT
HETATM    1 CL   LIG     1      28.271  21.540  16.677  1.00  0.00    -0.081 Cl
HETATM    2  C   LIG     1      28.381  23.254  17.098  1.00  0.00     0.070 A 
HETATM    3  C   LIG     1      27.577  23.781  18.126  1.00  0.00     0.023 A 
HETATM    4  C   LIG     1      27.667  25.147  18.459  1.00  0.00     0.070 A 
HETATM    5 CL   LIG     1      26.660  25.812  19.750  1.00  0.00    -0.081 Cl
HETATM    6  C   LIG     1      28.557  25.981  17.763  1.00  0.00     0.080 A 
HETATM    7 CL   LIG     1      28.669  27.694  18.178  1.00  0.00    -0.081 Cl
HETATM    8  C   LIG     1      29.358  25.455  16.735  1.00  0.00     0.081 A 
HETATM    9 CL   LIG     1      30.475  26.505  15.860  1.00  0.00    -0.081 Cl
HETATM   10  C   LIG     1      29.270  24.092  16.402  1.00  0.00     0.080 A 
HETATM   11 CL   LIG     1      30.277  23.431  15.111  1.00  0.00    -0.081 Cl
ENDROOT
BRANCH   3  12
HETATM   12  C   LIG     1      26.639  22.902  18.857  1.00  0.00     0.003 A 
HETATM   13  C   LIG     1      25.348  22.717  18.351  1.00  0.00     0.040 A 
HETATM   14  C   LIG     1      24.435  21.894  19.016  1.00  0.00     0.058 A 
HETATM   15  C   LIG     1      24.812  21.244  20.203  1.00  0.00     0.079 A 
HETATM   16 CL   LIG     1      22.825  21.697  18.335  1.00  0.00    -0.082 Cl
HETATM   17  C   LIG     1      26.108  21.423  20.719  1.00  0.00     0.080 A 
HETATM   18 CL   LIG     1      23.657  20.204  21.040  1.00  0.00    -0.081 Cl
HETATM   19 CL   LIG     1      26.586  20.608  22.210  1.00  0.00    -0.081 Cl
HETATM   20  C   LIG     1      27.025  22.253  20.046  1.00  0.00     0.068 A 
HETATM   21 CL   LIG     1      28.654  22.483  20.689  1.00  0.00    -0.082 Cl
ENDBRANCH   3  12
TORSDOF 1
ENDMDL
MODEL 3
REMARK VINA RESULT:      -4.6      4.809      7.125
REMARK  1 active torsions:
REMARK  status: ('A' for Active; 'I' for Inactive)
REMARK    1  A    between atoms: C_3  and  C_4 
ROOT
HETATM    1 CL   LIG     1      23.245  20.587  24.478  1.00  0.00    -0.081 Cl
HETATM    2  C   LIG     1      24.508  21.821  24.576  1.00  0.00     0.070 A 
HETATM    3  C   LIG     1      25.278  22.134  23.440  1.00  0.00     0.023 A 
HETATM    4  C   LIG     1      26.284  23.117  23.521  1.00  0.00     0.070 A 
HETATM    5 CL   LIG     1      27.253  23.513  22.098  1.00  0.00    -0.081 Cl
HETATM    6  C   LIG     1      26.518  23.782  24.736  1.00  0.00     0.080 A 
HETATM    7 CL   LIG     1      27.779  25.013  24.840  1.00  0.00    -0.081 Cl
HETATM    8  C   LIG     1      25.749  23.468  25.870  1.00  0.00     0.081 A 
HETATM    9 CL   LIG     1      26.045  24.304  27.397  1.00  0.00    -0.081 Cl
HETATM   10  C   LIG     1      24.745  22.488  25.791  1.00  0.00     0.080 A 
HETATM   11 CL   LIG     1      23.779  22.093  27.215  1.00  0.00    -0.081 Cl
ENDROOT
BRANCH   3  12
HETATM   12  C   LIG     1      25.032  21.431  22.162  1.00  0.00     0.003 A 
HETATM   13  C   LIG     1      25.744  20.259  21.883  1.00  0.00     0.040 A 
HETATM   14  C   LIG     1      25.538  19.570  20.686  1.00  0.00     0.058 A 
HETATM   15  C   LIG     1      24.609  20.053  19.749  1.00  0.00     0.079 A 
HETATM   16 CL   LIG     1      26.460  18.102  20.388  1.00  0.00    -0.082 Cl
HETATM   17  C   LIG     1      23.888  21.231  20.021  1.00  0.00     0.080 A 
HETATM   18 CL   LIG     1      24.350  19.181  18.237  1.00  0.00    -0.081 Cl
HETATM   19 CL   LIG     1      22.719  21.842  18.847  1.00  0.00    -0.081 Cl
HETATM   20  C   LIG     1      24.099  21.922  21.229  1.00  0.00     0.068 A 
HETATM   21 CL   LIG     1      23.197  23.401  21.576  1.00  0.00    -0.082 Cl
ENDBRANCH   3  12
TORSDOF 1
ENDMDL
MODEL 4
REMARK VINA RESULT:      -4.6      4.814      7.198
REMARK  1 active torsions:
REMARK  status: ('A' for Active; 'I' for Inactive)
REMARK    1  A    between atoms: C_3  and  C_4 
ROOT
HETATM    1 CL   LIG     1      27.241  23.568  22.192  1.00  0.00    -0.081 Cl
HETATM    2  C   LIG     1      26.275  23.130  23.607  1.00  0.00     0.070 A 
HETATM    3  C   LIG     1      25.283  22.136  23.503  1.00  0.00     0.023 A 
HETATM    4  C   LIG     1      24.516  21.788  24.632  1.00  0.00     0.070 A 
HETATM    5 CL   LIG     1      23.270  20.542  24.507  1.00  0.00    -0.081 Cl
HETATM    6  C   LIG     1      24.740  22.435  25.859  1.00  0.00     0.080 A 
HETATM    7 CL   LIG     1      23.777  22.001  27.274  1.00  0.00    -0.081 Cl
HETATM    8  C   LIG     1      25.730  23.428  25.961  1.00  0.00     0.081 A 
HETATM    9 CL   LIG     1      26.009  24.241  27.503  1.00  0.00    -0.081 Cl
HETATM   10  C   LIG     1      26.497  23.775  24.835  1.00  0.00     0.080 A 
HETATM   11 CL   LIG     1      27.740  25.023  24.964  1.00  0.00    -0.081 Cl
ENDROOT
BRANCH   3  12
HETATM   12  C   LIG     1      25.046  21.457  22.211  1.00  0.00     0.003 A 
HETATM   13  C   LIG     1      25.776  20.304  21.906  1.00  0.00     0.040 A 
HETATM   14  C   LIG     1      25.579  19.637  20.694  1.00  0.00     0.058 A 
HETATM   15  C   LIG     1      24.640  20.125  19.769  1.00  0.00     0.079 A 
HETATM   16 CL   LIG     1      26.523  18.191  20.362  1.00  0.00    -0.082 Cl
HETATM   17  C   LIG     1      23.901  21.285  20.068  1.00  0.00     0.080 A 
HETATM   18 CL   LIG     1      24.392  19.282  18.239  1.00  0.00    -0.081 Cl
HETATM   19 CL   LIG     1      22.720  21.902  18.909  1.00  0.00    -0.081 Cl
HETATM   20  C   LIG     1      24.103  21.953  21.290  1.00  0.00     0.068 A 
HETATM   21 CL   LIG     1      23.178  23.410  21.670  1.00  0.00    -0.082 Cl
ENDBRANCH   3  12
TORSDOF 1
ENDMDL
MODEL 5
REMARK VINA RESULT:      -4.6      5.165      6.868
REMARK  1 active torsions:
REMARK  status: ('A' for Active; 'I' for Inactive)
REMARK    1  A    between atoms: C_3  and  C_4 
ROOT
HETATM    1 CL   LIG     1      23.158  23.379  21.640  1.00  0.00    -0.081 Cl
HETATM    2  C   LIG     1      24.049  21.899  21.259  1.00  0.00     0.070 A 
HETATM    3  C   LIG     1      24.976  21.377  22.181  1.00  0.00     0.023 A 
HETATM    4  C   LIG     1      25.684  20.198  21.874  1.00  0.00     0.070 A 
HETATM    5 CL   LIG     1      26.848  19.538  23.028  1.00  0.00    -0.081 Cl
HETATM    6  C   LIG     1      25.465  19.547  20.649  1.00  0.00     0.080 A 
HETATM    7 CL   LIG     1      26.353  18.070  20.263  1.00  0.00    -0.081 Cl
HETATM    8  C   LIG     1      24.540  20.070  19.729  1.00  0.00     0.081 A 
HETATM    9 CL   LIG     1      24.267  19.251  18.189  1.00  0.00    -0.081 Cl
HETATM   10  C   LIG     1      23.832  21.246  20.033  1.00  0.00     0.080 A 
HETATM   11 CL   LIG     1      22.671  21.903  18.877  1.00  0.00    -0.081 Cl
ENDROOT
BRANCH   3  12
HETATM   12  C   LIG     1      25.207  22.065  23.469  1.00  0.00     0.003 A 
HETATM   13  C   LIG     1      26.203  23.044  23.547  1.00  0.00     0.040 A 
HETATM   14  C   LIG     1      26.449  23.713  24.749  1.00  0.00     0.058 A 
HETATM   15  C   LIG     1      25.693  23.404  25.892  1.00  0.00     0.079 A 
HETATM   16 CL   LIG     1      27.713  24.936  24.790  1.00  0.00    -0.082 Cl
HETATM   17  C   LIG     1      24.689  22.421  25.823  1.00  0.00     0.080 A 
HETATM   18 CL   LIG     1      26.005  24.251  27.408  1.00  0.00    -0.081 Cl
HETATM   19 CL   LIG     1      23.736  22.029  27.257  1.00  0.00    -0.081 Cl
HETATM   20  C   LIG     1      24.444  21.749  24.610  1.00  0.00     0.068 A 
HETATM   21 CL   LIG     1      23.185  20.513  24.517  1.00  0.00    -0.082 Cl
ENDBRANCH   3  12
TORSDOF 1
ENDMDL
MODEL 6
REMARK VINA RESULT:      -4.5      1.742      6.497
REMARK  1 active torsions:
REMARK  status: ('A' for Active; 'I' for Inactive)
REMARK    1  A    between atoms: C_3  and  C_4 
ROOT
HETATM    1 CL   LIG     1      24.859  23.178  17.880  1.00  0.00    -0.081 Cl
HETATM    2  C   LIG     1      25.154  23.027  19.617  1.00  0.00     0.070 A 
HETATM    3  C   LIG     1      26.366  23.484  20.169  1.00  0.00     0.023 A 
HETATM    4  C   LIG     1      26.598  23.362  21.554  1.00  0.00     0.070 A 
HETATM    5 CL   LIG     1      28.117  23.934  22.251  1.00  0.00    -0.081 Cl
HETATM    6  C   LIG     1      25.620  22.784  22.380  1.00  0.00     0.080 A 
HETATM    7 CL   LIG     1      25.911  22.630  24.115  1.00  0.00    -0.081 Cl
HETATM    8  C   LIG     1      24.411  22.327  21.828  1.00  0.00     0.081 A 
HETATM    9 CL   LIG     1      23.184  21.600  22.868  1.00  0.00    -0.081 Cl
HETATM   10  C   LIG     1      24.178  22.448  20.447  1.00  0.00     0.080 A 
HETATM   11 CL   LIG     1      22.659  21.875  19.754  1.00  0.00    -0.081 Cl
ENDROOT
BRANCH   3  12
HETATM   12  C   LIG     1      27.395  24.090  19.297  1.00  0.00     0.003 A 
HETATM   13  C   LIG     1      27.451  25.483  19.180  1.00  0.00     0.040 A 
HETATM   14  C   LIG     1      28.410  26.089  18.365  1.00  0.00     0.058 A 
HETATM   15  C   LIG     1      29.328  25.299  17.654  1.00  0.00     0.079 A 
HETATM   16 CL   LIG     1      28.435  27.845  18.255  1.00  0.00    -0.082 Cl
HETATM   17  C   LIG     1      29.280  23.897  17.767  1.00  0.00     0.080 A 
HETATM   18 CL   LIG     1      30.539  26.067  16.626  1.00  0.00    -0.081 Cl
HETATM   19 CL   LIG     1      30.433  22.899  16.876  1.00  0.00    -0.081 Cl
HETATM   20  C   LIG     1      28.313  23.290  18.589  1.00  0.00     0.068 A 
HETATM   21 CL   LIG     1      28.246  21.530  18.734  1.00  0.00    -0.082 Cl
ENDBRANCH   3  12
TORSDOF 1
ENDMDL
MODEL 7
REMARK VINA RESULT:      -4.5      1.736      6.295
REMARK  1 active torsions:
REMARK  status: ('A' for Active; 'I' for Inactive)
REMARK    1  A    between atoms: C_3  and  C_4 
ROOT
HETATM    1 CL   LIG     1      28.067  23.672  22.346  1.00  0.00    -0.081 Cl
HETATM    2  C   LIG     1      26.550  23.178  21.583  1.00  0.00     0.070 A 
HETATM    3  C   LIG     1      26.359  23.370  20.202  1.00  0.00     0.023 A 
HETATM    4  C   LIG     1      25.149  22.975  19.598  1.00  0.00     0.070 A 
HETATM    5 CL   LIG     1      24.905  23.214  17.864  1.00  0.00    -0.081 Cl
HETATM    6  C   LIG     1      24.135  22.391  20.375  1.00  0.00     0.080 A 
HETATM    7 CL   LIG     1      22.618  21.897  19.619  1.00  0.00    -0.081 Cl
HETATM    8  C   LIG     1      24.327  22.200  21.755  1.00  0.00     0.081 A 
HETATM    9 CL   LIG     1      23.051  21.467  22.730  1.00  0.00    -0.081 Cl
HETATM   10  C   LIG     1      25.534  22.593  22.359  1.00  0.00     0.080 A 
HETATM   11 CL   LIG     1      25.774  22.354  24.091  1.00  0.00    -0.081 Cl
ENDROOT
BRANCH   3  12
HETATM   12  C   LIG     1      27.427  23.987  19.385  1.00  0.00     0.003 A 
HETATM   13  C   LIG     1      27.448  25.377  19.234  1.00  0.00     0.040 A 
HETATM   14  C   LIG     1      28.441  25.994  18.469  1.00  0.00     0.058 A 
HETATM   15  C   LIG     1      29.430  25.216  17.844  1.00  0.00     0.079 A 
HETATM   16 CL   LIG     1      28.420  27.746  18.312  1.00  0.00    -0.082 Cl
HETATM   17  C   LIG     1      29.417  23.817  17.991  1.00  0.00     0.080 A 
HETATM   18 CL   LIG     1      30.684  25.997  16.879  1.00  0.00    -0.081 Cl
HETATM   19 CL   LIG     1      30.658  22.834  17.208  1.00  0.00    -0.081 Cl
HETATM   20  C   LIG     1      28.415  23.199  18.763  1.00  0.00     0.068 A 
HETATM   21 CL   LIG     1      28.393  21.443  18.952  1.00  0.00    -0.082 Cl
ENDBRANCH   3  12
TORSDOF 1
ENDMDL
MODEL 8
REMARK VINA RESULT:      -4.4      4.832      6.723
REMARK  1 active torsions:
REMARK  status: ('A' for Active; 'I' for Inactive)
REMARK    1  A    between atoms: C_3  and  C_4 
ROOT
HETATM    1 CL   LIG     1      23.181  23.410  21.661  1.00  0.00    -0.081 Cl
HETATM    2  C   LIG     1      24.057  21.917  21.299  1.00  0.00     0.070 A 
HETATM    3  C   LIG     1      24.999  21.413  22.215  1.00  0.00     0.023 A 
HETATM    4  C   LIG     1      25.696  20.223  21.923  1.00  0.00     0.070 A 
HETATM    5 CL   LIG     1      26.879  19.586  23.070  1.00  0.00    -0.081 Cl
HETATM    6  C   LIG     1      25.450  19.544  20.719  1.00  0.00     0.080 A 
HETATM    7 CL   LIG     1      26.324  18.053  20.352  1.00  0.00    -0.081 Cl
HETATM    8  C   LIG     1      24.509  20.049  19.804  1.00  0.00     0.081 A 
HETATM    9 CL   LIG     1      24.202  19.195  18.290  1.00  0.00    -0.081 Cl
HETATM   10  C   LIG     1      23.813  21.235  20.094  1.00  0.00     0.080 A 
HETATM   11 CL   LIG     1      22.632  21.870  18.945  1.00  0.00    -0.081 Cl
ENDROOT
BRANCH   3  12
HETATM   12  C   LIG     1      25.259  22.130  23.481  1.00  0.00     0.003 A 
HETATM   13  C   LIG     1      24.488  21.820  24.607  1.00  0.00     0.040 A 
HETATM   14  C   LIG     1      24.706  22.479  25.820  1.00  0.00     0.058 A 
HETATM   15  C   LIG     1      25.706  23.461  25.916  1.00  0.00     0.079 A 
HETATM   16 CL   LIG     1      23.709  22.050  27.204  1.00  0.00    -0.082 Cl
HETATM   17  C   LIG     1      26.486  23.779  24.789  1.00  0.00     0.080 A 
HETATM   18 CL   LIG     1      25.979  24.291  27.449  1.00  0.00    -0.081 Cl
HETATM   19 CL   LIG     1      27.743  25.013  24.904  1.00  0.00    -0.081 Cl
HETATM   20  C   LIG     1      26.263  23.113  23.569  1.00  0.00     0.068 A 
HETATM   21 CL   LIG     1      27.239  23.508  22.150  1.00  0.00    -0.082 Cl
ENDBRANCH   3  12
TORSDOF 1
ENDMDL
MODEL 9
REMARK VINA RESULT:      -4.4      5.156      6.739
REMARK  1 active torsions:
REMARK  status: ('A' for Active; 'I' for Inactive)
REMARK    1  A    between atoms: C_3  and  C_4 
ROOT
HETATM    1 CL   LIG     1      24.474  22.341  26.391  1.00  0.00    -0.081 Cl
HETATM    2  C   LIG     1      25.845  23.262  25.758  1.00  0.00     0.070 A 
HETATM    3  C   LIG     1      26.178  23.181  24.393  1.00  0.00     0.023 A 
HETATM    4  C   LIG     1      27.271  23.916  23.892  1.00  0.00     0.070 A 
HETATM    5 CL   LIG     1      27.694  23.818  22.179  1.00  0.00    -0.081 Cl
HETATM    6  C   LIG     1      28.026  24.726  24.756  1.00  0.00     0.080 A 
HETATM    7 CL   LIG     1      29.397  25.646  24.129  1.00  0.00    -0.081 Cl
HETATM    8  C   LIG     1      27.693  24.805  26.119  1.00  0.00     0.081 A 
HETATM    9 CL   LIG     1      28.644  25.823  27.203  1.00  0.00    -0.081 Cl
HETATM   10  C   LIG     1      26.603  24.073  26.620  1.00  0.00     0.080 A 
HETATM   11 CL   LIG     1      26.185  24.172  28.333  1.00  0.00    -0.081 Cl
ENDROOT
BRANCH   3  12
HETATM   12  C   LIG     1      25.384  22.326  23.485  1.00  0.00     0.003 A 
HETATM   13  C   LIG     1      24.249  22.862  22.867  1.00  0.00     0.040 A 
HETATM   14  C   LIG     1      23.475  22.083  22.004  1.00  0.00     0.058 A 
HETATM   15  C   LIG     1      23.834  20.748  21.751  1.00  0.00     0.079 A 
HETATM   16 CL   LIG     1      22.060  22.808  21.253  1.00  0.00    -0.082 Cl
HETATM   17  C   LIG     1      24.973  20.200  22.369  1.00  0.00     0.080 A 
HETATM   18 CL   LIG     1      22.854  19.765  20.661  1.00  0.00    -0.081 Cl
HETATM   19 CL   LIG     1      25.428  18.523  22.055  1.00  0.00    -0.081 Cl
HETATM   20  C   LIG     1      25.751  20.989  23.238  1.00  0.00     0.068 A 
HETATM   21 CL   LIG     1      27.183  20.307  24.016  1.00  0.00    -0.082 Cl
ENDBRANCH   3  12
TORSDOF 1
ENDMDL
MODEL 10
REMARK VINA RESULT:      -4.4      5.167      6.958
REMARK  1 active torsions:
REMARK  status: ('A' for Active; 'I' for Inactive)
REMARK    1  A    between atoms: C_3  and  C_4 
ROOT
HETATM    1 CL   LIG     1      27.651  23.873  22.193  1.00  0.00    -0.081 Cl
HETATM    2  C   LIG     1      27.241  23.931  23.912  1.00  0.00     0.070 A 
HETATM    3  C   LIG     1      26.166  23.169  24.408  1.00  0.00     0.023 A 
HETATM    4  C   LIG     1      25.842  23.217  25.778  1.00  0.00     0.070 A 
HETATM    5 CL   LIG     1      24.494  22.262  26.404  1.00  0.00    -0.081 Cl
HETATM    6  C   LIG     1      26.591  24.027  26.647  1.00  0.00     0.080 A 
HETATM    7 CL   LIG     1      26.185  24.090  28.365  1.00  0.00    -0.081 Cl
HETATM    8  C   LIG     1      27.664  24.789  26.152  1.00  0.00     0.081 A 
HETATM    9 CL   LIG     1      28.603  25.807  27.246  1.00  0.00    -0.081 Cl
HETATM   10  C   LIG     1      27.988  24.741  24.785  1.00  0.00     0.080 A 
HETATM   11 CL   LIG     1      29.335  25.698  24.163  1.00  0.00    -0.081 Cl
ENDROOT
BRANCH   3  12
HETATM   12  C   LIG     1      25.377  22.318  23.491  1.00  0.00     0.003 A 
HETATM   13  C   LIG     1      24.243  22.855  22.873  1.00  0.00     0.040 A 
HETATM   14  C   LIG     1      23.474  22.080  22.001  1.00  0.00     0.058 A 
HETATM   15  C   LIG     1      23.838  20.749  21.740  1.00  0.00     0.079 A 
HETATM   16 CL   LIG     1      22.059  22.807  21.251  1.00  0.00    -0.082 Cl
HETATM   17  C   LIG     1      24.977  20.199  22.356  1.00  0.00     0.080 A 
HETATM   18 CL   LIG     1      22.865  19.772  20.638  1.00  0.00    -0.081 Cl
HETATM   19 CL   LIG     1      25.438  18.526  22.031  1.00  0.00    -0.081 Cl
HETATM   20  C   LIG     1      25.749  20.984  23.234  1.00  0.00     0.068 A 
HETATM   21 CL   LIG     1      27.180  20.300  24.012  1.00  0.00    -0.082 Cl
ENDBRANCH   3  12
TORSDOF 1
ENDMDL
MODEL 11
REMARK VINA RESULT:      -4.3      1.735      6.129
REMARK  1 active torsions:
REMARK  status: ('A' for Active; 'I' for Inactive)
REMARK    1  A    between atoms: C_3  and  C_4 
ROOT
HETATM    1 CL   LIG     1      29.157  23.703  21.078  1.00  0.00    -0.081 Cl
HETATM    2  C   LIG     1      27.430  23.334  20.980  1.00  0.00     0.070 A 
HETATM    3  C   LIG     1      26.799  23.237  19.725  1.00  0.00     0.023 A 
HETATM    4  C   LIG     1      25.423  22.943  19.651  1.00  0.00     0.070 A 
HETATM    5 CL   LIG     1      24.627  22.820  18.078  1.00  0.00    -0.081 Cl
HETATM    6  C   LIG     1      24.683  22.748  20.829  1.00  0.00     0.080 A 
HETATM    7 CL   LIG     1      22.958  22.381  20.736  1.00  0.00    -0.081 Cl
HETATM    8  C   LIG     1      25.314  22.846  22.081  1.00  0.00     0.081 A 
HETATM    9 CL   LIG     1      24.382  22.603  23.560  1.00  0.00    -0.081 Cl
HETATM   10  C   LIG     1      26.686  23.139  22.157  1.00  0.00     0.080 A 
HETATM   11 CL   LIG     1      27.478  23.263  23.730  1.00  0.00    -0.081 Cl
ENDROOT
BRANCH   3  12
HETATM   12  C   LIG     1      27.579  23.444  18.486  1.00  0.00     0.003 A 
HETATM   13  C   LIG     1      27.984  22.330  17.744  1.00  0.00     0.040 A 
HETATM   14  C   LIG     1      28.722  22.489  16.568  1.00  0.00     0.058 A 
HETATM   15  C   LIG     1      29.064  23.776  16.123  1.00  0.00     0.079 A 
HETATM   16 CL   LIG     1      29.204  21.053  15.674  1.00  0.00    -0.082 Cl
HETATM   17  C   LIG     1      28.661  24.904  16.863  1.00  0.00     0.080 A 
HETATM   18 CL   LIG     1      29.997  23.974  14.638  1.00  0.00    -0.081 Cl
HETATM   19 CL   LIG     1      29.089  26.524  16.307  1.00  0.00    -0.081 Cl
HETATM   20  C   LIG     1      27.917  24.739  18.046  1.00  0.00     0.068 A 
HETATM   21 CL   LIG     1      27.409  26.150  18.980  1.00  0.00    -0.082 Cl
ENDBRANCH   3  12
TORSDOF 1
ENDMDL
MODEL 12
REMARK VINA RESULT:      -4.3      1.677      6.244
REMARK  1 active torsions:
REMARK  status: ('A' for Active; 'I' for Inactive)
REMARK    1  A    between atoms: C_3  and  C_4 
ROOT
HETATM    1 CL   LIG     1      24.665  22.951  17.928  1.00  0.00    -0.081 Cl
HETATM    2  C   LIG     1      25.445  22.992  19.515  1.00  0.00     0.070 A 
HETATM    3  C   LIG     1      26.823  23.263  19.617  1.00  0.00     0.023 A 
HETATM    4  C   LIG     1      27.441  23.296  20.882  1.00  0.00     0.070 A 
HETATM    5 CL   LIG     1      29.170  23.635  21.015  1.00  0.00    -0.081 Cl
HETATM    6  C   LIG     1      26.683  23.057  22.040  1.00  0.00     0.080 A 
HETATM    7 CL   LIG     1      27.457  23.096  23.626  1.00  0.00    -0.081 Cl
HETATM    8  C   LIG     1      25.307  22.786  21.937  1.00  0.00     0.081 A 
HETATM    9 CL   LIG     1      24.356  22.484  23.393  1.00  0.00    -0.081 Cl
HETATM   10  C   LIG     1      24.689  22.753  20.675  1.00  0.00     0.080 A 
HETATM   11 CL   LIG     1      22.961  22.412  20.546  1.00  0.00    -0.081 Cl
ENDROOT
BRANCH   3  12
HETATM   12  C   LIG     1      27.621  23.513  18.397  1.00  0.00     0.003 A 
HETATM   13  C   LIG     1      28.049  22.423  17.631  1.00  0.00     0.040 A 
HETATM   14  C   LIG     1      28.806  22.622  16.473  1.00  0.00     0.058 A 
HETATM   15  C   LIG     1      29.142  23.925  16.069  1.00  0.00     0.079 A 
HETATM   16 CL   LIG     1      29.317  21.216  15.548  1.00  0.00    -0.082 Cl
HETATM   17  C   LIG     1      28.715  25.027  16.833  1.00  0.00     0.080 A 
HETATM   18 CL   LIG     1      30.097  24.173  14.606  1.00  0.00    -0.081 Cl
HETATM   19 CL   LIG     1      29.135  26.666  16.330  1.00  0.00    -0.081 Cl
HETATM   20  C   LIG     1      27.953  24.822  17.999  1.00  0.00     0.068 A 
HETATM   21 CL   LIG     1      27.415  26.202  18.963  1.00  0.00    -0.082 Cl
ENDBRANCH   3  12
TORSDOF 1
ENDMDL
MODEL 13
REMARK VINA RESULT:      -4.2      4.823      6.912
REMARK  1 active torsions:
REMARK  status: ('A' for Active; 'I' for Inactive)
REMARK    1  A    between atoms: C_3  and  C_4 
ROOT
HETATM    1 CL   LIG     1      27.185  23.524  22.119  1.00  0.00    -0.081 Cl
HETATM    2  C   LIG     1      26.242  23.114  23.558  1.00  0.00     0.070 A 
HETATM    3  C   LIG     1      25.250  22.118  23.490  1.00  0.00     0.023 A 
HETATM    4  C   LIG     1      24.501  21.793  24.639  1.00  0.00     0.070 A 
HETATM    5 CL   LIG     1      23.254  20.544  24.559  1.00  0.00    -0.081 Cl
HETATM    6  C   LIG     1      24.745  22.465  25.848  1.00  0.00     0.080 A 
HETATM    7 CL   LIG     1      23.805  22.060  27.287  1.00  0.00    -0.081 Cl
HETATM    8  C   LIG     1      25.735  23.460  25.914  1.00  0.00     0.081 A 
HETATM    9 CL   LIG     1      26.039  24.304  27.434  1.00  0.00    -0.081 Cl
HETATM   10  C   LIG     1      26.484  23.785  24.769  1.00  0.00     0.080 A 
HETATM   11 CL   LIG     1      27.728  25.035  24.852  1.00  0.00    -0.081 Cl
ENDROOT
BRANCH   3  12
HETATM   12  C   LIG     1      24.992  21.413  22.216  1.00  0.00     0.003 A 
HETATM   13  C   LIG     1      24.065  21.951  21.318  1.00  0.00     0.040 A 
HETATM   14  C   LIG     1      23.796  21.312  20.105  1.00  0.00     0.058 A 
HETATM   15  C   LIG     1      24.461  20.117  19.779  1.00  0.00     0.079 A 
HETATM   16 CL   LIG     1      22.621  22.032  19.013  1.00  0.00    -0.082 Cl
HETATM   17  C   LIG     1      25.396  19.569  20.676  1.00  0.00     0.080 A 
HETATM   18 CL   LIG     1      24.121  19.312  18.246  1.00  0.00    -0.081 Cl
HETATM   19 CL   LIG     1      26.234  18.069  20.271  1.00  0.00    -0.081 Cl
HETATM   20  C   LIG     1      25.664  20.217  21.897  1.00  0.00     0.068 A 
HETATM   21 CL   LIG     1      26.837  19.533  23.028  1.00  0.00    -0.082 Cl
ENDBRANCH   3  12
TORSDOF 1
ENDMDL
MODEL 14
REMARK VINA RESULT:      -4.2      4.807      6.876
REMARK  1 active torsions:
REMARK  status: ('A' for Active; 'I' for Inactive)
REMARK    1  A    between atoms: C_3  and  C_4 
ROOT
HETATM    1 CL   LIG     1      23.251  20.563  24.537  1.00  0.00    -0.081 Cl
HETATM    2  C   LIG     1      24.508  21.804  24.624  1.00  0.00     0.070 A 
HETATM    3  C   LIG     1      25.261  22.126  23.480  1.00  0.00     0.023 A 
HETATM    4  C   LIG     1      26.261  23.116  23.553  1.00  0.00     0.070 A 
HETATM    5 CL   LIG     1      27.210  23.524  22.119  1.00  0.00    -0.081 Cl
HETATM    6  C   LIG     1      26.506  23.777  24.767  1.00  0.00     0.080 A 
HETATM    7 CL   LIG     1      27.761  25.016  24.860  1.00  0.00    -0.081 Cl
HETATM    8  C   LIG     1      25.754  23.454  25.910  1.00  0.00     0.081 A 
HETATM    9 CL   LIG     1      26.064  24.285  27.436  1.00  0.00    -0.081 Cl
HETATM   10  C   LIG     1      24.756  22.467  25.839  1.00  0.00     0.080 A 
HETATM   11 CL   LIG     1      23.811  22.061  27.274  1.00  0.00    -0.081 Cl
ENDROOT
BRANCH   3  12
HETATM   12  C   LIG     1      25.004  21.428  22.202  1.00  0.00     0.003 A 
HETATM   13  C   LIG     1      24.073  21.967  21.308  1.00  0.00     0.040 A 
HETATM   14  C   LIG     1      23.805  21.333  20.093  1.00  0.00     0.058 A 
HETATM   15  C   LIG     1      24.472  20.143  19.760  1.00  0.00     0.079 A 
HETATM   16 CL   LIG     1      22.625  22.056  19.006  1.00  0.00    -0.082 Cl
HETATM   17  C   LIG     1      25.411  19.593  20.652  1.00  0.00     0.080 A 
HETATM   18 CL   LIG     1      24.132  19.344  18.223  1.00  0.00    -0.081 Cl
HETATM   19 CL   LIG     1      26.252  18.097  20.238  1.00  0.00    -0.081 Cl
HETATM   20  C   LIG     1      25.678  20.235  21.876  1.00  0.00     0.068 A 
HETATM   21 CL   LIG     1      26.855  19.549  23.001  1.00  0.00    -0.082 Cl
ENDBRANCH   3  12
TORSDOF 1
ENDMDL
MODEL 15
REMARK VINA RESULT:      -4.2      5.037      6.786
REMARK  1 active torsions:
REMARK  status: ('A' for Active; 'I' for Inactive)
REMARK    1  A    between atoms: C_3  and  C_4 
ROOT
HETATM    1 CL   LIG     1      22.119  22.287  21.458  1.00  0.00    -0.081 Cl
HETATM    2  C   LIG     1      23.349  21.129  20.934  1.00  0.00     0.070 A 
HETATM    3  C   LIG     1      23.987  20.303  21.878  1.00  0.00     0.023 A 
HETATM    4  C   LIG     1      24.966  19.381  21.458  1.00  0.00     0.070 A 
HETATM    5 CL   LIG     1      25.770  18.342  22.639  1.00  0.00    -0.081 Cl
HETATM    6  C   LIG     1      25.305  19.289  20.097  1.00  0.00     0.080 A 
HETATM    7 CL   LIG     1      26.533  18.135  19.570  1.00  0.00    -0.081 Cl
HETATM    8  C   LIG     1      24.667  20.115  19.155  1.00  0.00     0.081 A 
HETATM    9 CL   LIG     1      25.095  19.999  17.447  1.00  0.00    -0.081 Cl
HETATM   10  C   LIG     1      23.690  21.035  19.573  1.00  0.00     0.080 A 
HETATM   11 CL   LIG     1      22.890  22.073  18.390  1.00  0.00    -0.081 Cl
ENDROOT
BRANCH   3  12
HETATM   12  C   LIG     1      23.632  20.402  23.310  1.00  0.00     0.003 A 
HETATM   13  C   LIG     1      22.669  19.532  23.833  1.00  0.00     0.040 A 
HETATM   14  C   LIG     1      22.309  19.598  25.181  1.00  0.00     0.058 A 
HETATM   15  C   LIG     1      22.914  20.545  26.024  1.00  0.00     0.079 A 
HETATM   16 CL   LIG     1      21.094  18.479  25.785  1.00  0.00    -0.082 Cl
HETATM   17  C   LIG     1      23.884  21.425  25.507  1.00  0.00     0.080 A 
HETATM   18 CL   LIG     1      22.458  20.627  27.727  1.00  0.00    -0.081 Cl
HETATM   19 CL   LIG     1      24.648  22.616  26.562  1.00  0.00    -0.081 Cl
HETATM   20  C   LIG     1      24.244  21.355  24.148  1.00  0.00     0.068 A 
HETATM   21 CL   LIG     1      25.460  22.456  23.493  1.00  0.00    -0.082 Cl
ENDBRANCH   3  12
TORSDOF 1
ENDMDL
MODEL 16
REMARK VINA RESULT:      -4.1      9.116     10.922
REMARK  1 active torsions:
REMARK  status: ('A' for Active; 'I' for Inactive)
REMARK    1  A    between atoms: C_3  and  C_4 
ROOT
HETATM    1 CL   LIG     1      25.876  23.507  27.980  1.00  0.00    -0.081 Cl
HETATM    2  C   LIG     1      27.127  24.440  27.150  1.00  0.00     0.070 A 
HETATM    3  C   LIG     1      28.084  25.156  27.894  1.00  0.00     0.023 A 
HETATM    4  C   LIG     1      29.080  25.898  27.230  1.00  0.00     0.070 A 
HETATM    5 CL   LIG     1      30.283  26.798  28.160  1.00  0.00    -0.081 Cl
HETATM    6  C   LIG     1      29.116  25.924  25.826  1.00  0.00     0.080 A 
HETATM    7 CL   LIG     1      30.364  26.856  24.992  1.00  0.00    -0.081 Cl
HETATM    8  C   LIG     1      28.160  25.210  25.083  1.00  0.00     0.081 A 
HETATM    9 CL   LIG     1      28.206  25.245  23.319  1.00  0.00    -0.081 Cl
HETATM   10  C   LIG     1      27.166  24.469  25.745  1.00  0.00     0.080 A 
HETATM   11 CL   LIG     1      25.965  23.572  24.812  1.00  0.00    -0.081 Cl
ENDROOT
BRANCH   3  12
HETATM   12  C   LIG     1      28.044  25.130  29.372  1.00  0.00     0.003 A 
HETATM   13  C   LIG     1      27.318  26.115  30.049  1.00  0.00     0.040 A 
HETATM   14  C   LIG     1      27.259  26.122  31.445  1.00  0.00     0.058 A 
HETATM   15  C   LIG     1      27.932  25.132  32.181  1.00  0.00     0.079 A 
HETATM   16 CL   LIG     1      26.331  27.384  32.245  1.00  0.00    -0.082 Cl
HETATM   17  C   LIG     1      28.664  24.136  31.508  1.00  0.00     0.080 A 
HETATM   18 CL   LIG     1      27.855  25.141  33.944  1.00  0.00    -0.081 Cl
HETATM   19 CL   LIG     1      29.512  22.890  32.428  1.00  0.00    -0.081 Cl
HETATM   20  C   LIG     1      28.721  24.133  30.102  1.00  0.00     0.068 A 
HETATM   21 CL   LIG     1      29.639  22.886  29.251  1.00  0.00    -0.082 Cl
ENDBRANCH   3  12
TORSDOF 1
ENDMDL
MODEL 17
REMARK VINA RESULT:      -4.1      2.650      6.760
REMARK  1 active torsions:
REMARK  status: ('A' for Active; 'I' for Inactive)
REMARK    1  A    between atoms: C_3  and  C_4 
ROOT
HETATM    1 CL   LIG     1      25.012  23.067  19.813  1.00  0.00    -0.081 Cl
HETATM    2  C   LIG     1      25.686  23.152  21.446  1.00  0.00     0.070 A 
HETATM    3  C   LIG     1      26.984  23.658  21.648  1.00  0.00     0.023 A 
HETATM    4  C   LIG     1      27.518  23.724  22.950  1.00  0.00     0.070 A 
HETATM    5 CL   LIG     1      29.147  24.357  23.208  1.00  0.00    -0.081 Cl
HETATM    6  C   LIG     1      26.755  23.284  24.044  1.00  0.00     0.080 A 
HETATM    7 CL   LIG     1      27.424  23.365  25.676  1.00  0.00    -0.081 Cl
HETATM    8  C   LIG     1      25.459  22.778  23.841  1.00  0.00     0.081 A 
HETATM    9 CL   LIG     1      24.502  22.225  25.217  1.00  0.00    -0.081 Cl
HETATM   10  C   LIG     1      24.925  22.712  22.543  1.00  0.00     0.080 A 
HETATM   11 CL   LIG     1      23.297  22.077  22.288  1.00  0.00    -0.081 Cl
ENDROOT
BRANCH   3  12
HETATM   12  C   LIG     1      27.787  24.118  20.495  1.00  0.00     0.003 A 
HETATM   13  C   LIG     1      27.674  25.448  20.076  1.00  0.00     0.040 A 
HETATM   14  C   LIG     1      28.417  25.917  18.990  1.00  0.00     0.058 A 
HETATM   15  C   LIG     1      29.288  25.051  18.309  1.00  0.00     0.079 A 
HETATM   16 CL   LIG     1      28.236  27.599  18.507  1.00  0.00    -0.082 Cl
HETATM   17  C   LIG     1      29.410  23.711  18.723  1.00  0.00     0.080 A 
HETATM   18 CL   LIG     1      30.227  25.646  16.938  1.00  0.00    -0.081 Cl
HETATM   19 CL   LIG     1      30.503  22.618  17.871  1.00  0.00    -0.081 Cl
HETATM   20  C   LIG     1      28.659  23.243  19.818  1.00  0.00     0.068 A 
HETATM   21 CL   LIG     1      28.806  21.562  20.343  1.00  0.00    -0.082 Cl
ENDBRANCH   3  12
TORSDOF 1
ENDMDL
MODEL 18
REMARK VINA RESULT:      -3.9      2.895      7.003
REMARK  1 active torsions:
REMARK  status: ('A' for Active; 'I' for Inactive)
REMARK    1  A    between atoms: C_3  and  C_4 
ROOT
HETATM    1 CL   LIG     1      27.087  23.851  23.873  1.00  0.00    -0.081 Cl
HETATM    2  C   LIG     1      25.753  22.701  23.719  1.00  0.00     0.070 A 
HETATM    3  C   LIG     1      25.412  22.181  22.456  1.00  0.00     0.023 A 
HETATM    4  C   LIG     1      24.348  21.265  22.337  1.00  0.00     0.070 A 
HETATM    5 CL   LIG     1      23.917  20.610  20.754  1.00  0.00    -0.081 Cl
HETATM    6  C   LIG     1      23.629  20.873  23.478  1.00  0.00     0.080 A 
HETATM    7 CL   LIG     1      22.294  19.726  23.329  1.00  0.00    -0.081 Cl
HETATM    8  C   LIG     1      23.970  21.393  24.739  1.00  0.00     0.081 A 
HETATM    9 CL   LIG     1      23.064  20.900  26.171  1.00  0.00    -0.081 Cl
HETATM   10  C   LIG     1      25.031  22.307  24.859  1.00  0.00     0.080 A 
HETATM   11 CL   LIG     1      25.458  22.960  26.443  1.00  0.00    -0.081 Cl
ENDROOT
BRANCH   3  12
HETATM   12  C   LIG     1      26.168  22.596  21.255  1.00  0.00     0.003 A 
HETATM   13  C   LIG     1      25.790  23.764  20.585  1.00  0.00     0.040 A 
HETATM   14  C   LIG     1      26.482  24.186  19.447  1.00  0.00     0.058 A 
HETATM   15  C   LIG     1      27.568  23.435  18.967  1.00  0.00     0.079 A 
HETATM   16 CL   LIG     1      25.965  25.663  18.643  1.00  0.00    -0.082 Cl
HETATM   17  C   LIG     1      27.956  22.259  19.635  1.00  0.00     0.080 A 
HETATM   18 CL   LIG     1      28.441  23.970  17.529  1.00  0.00    -0.081 Cl
HETATM   19 CL   LIG     1      29.320  21.311  19.036  1.00  0.00    -0.081 Cl
HETATM   20  C   LIG     1      27.256  21.837  20.782  1.00  0.00     0.068 A 
HETATM   21 CL   LIG     1      27.738  20.361  21.625  1.00  0.00    -0.082 Cl
ENDBRANCH   3  12
TORSDOF 1
ENDMDL
MODEL 19
REMARK VINA RESULT:      -3.9      3.014      4.258
REMARK  1 active torsions:
REMARK  status: ('A' for Active; 'I' for Inactive)
REMARK    1  A    between atoms: C_3  and  C_4 
ROOT
HETATM    1 CL   LIG     1      26.481  23.028  24.405  1.00  0.00    -0.081 Cl
HETATM    2  C   LIG     1      27.355  23.956  23.180  1.00  0.00     0.070 A 
HETATM    3  C   LIG     1      27.080  23.755  21.814  1.00  0.00     0.023 A 
HETATM    4  C   LIG     1      27.778  24.496  20.840  1.00  0.00     0.070 A 
HETATM    5 CL   LIG     1      27.436  24.248  19.124  1.00  0.00    -0.081 Cl
HETATM    6  C   LIG     1      28.749  25.432  21.233  1.00  0.00     0.080 A 
HETATM    7 CL   LIG     1      29.626  26.360  20.012  1.00  0.00    -0.081 Cl
HETATM    8  C   LIG     1      29.024  25.631  22.597  1.00  0.00     0.081 A 
HETATM    9 CL   LIG     1      30.245  26.807  23.089  1.00  0.00    -0.081 Cl
HETATM   10  C   LIG     1      28.328  24.893  23.570  1.00  0.00     0.080 A 
HETATM   11 CL   LIG     1      28.674  25.143  25.283  1.00  0.00    -0.081 Cl
ENDROOT
BRANCH   3  12
HETATM   12  C   LIG     1      26.059  22.768  21.401  1.00  0.00     0.003 A 
HETATM   13  C   LIG     1      24.719  23.163  21.336  1.00  0.00     0.040 A 
HETATM   14  C   LIG     1      23.729  22.257  20.951  1.00  0.00     0.058 A 
HETATM   15  C   LIG     1      24.076  20.935  20.624  1.00  0.00     0.079 A 
HETATM   16 CL   LIG     1      22.060  22.807  20.885  1.00  0.00    -0.082 Cl
HETATM   17  C   LIG     1      25.421  20.528  20.686  1.00  0.00     0.080 A 
HETATM   18 CL   LIG     1      22.823  19.791  20.137  1.00  0.00    -0.081 Cl
HETATM   19 CL   LIG     1      25.862  18.868  20.278  1.00  0.00    -0.081 Cl
HETATM   20  C   LIG     1      26.416  21.445  21.075  1.00  0.00     0.068 A 
HETATM   21 CL   LIG     1      28.108  20.940  21.156  1.00  0.00    -0.082 Cl
ENDBRANCH   3  12
TORSDOF 1
ENDMDL
MODEL 20
REMARK VINA RESULT:      -3.9      9.763     12.195
REMARK  1 active torsions:
REMARK  status: ('A' for Active; 'I' for Inactive)
REMARK    1  A    between atoms: C_3  and  C_4 
ROOT
HETATM    1 CL   LIG     1      27.292  27.682  29.766  1.00  0.00    -0.081 Cl
HETATM    2  C   LIG     1      27.590  26.242  30.747  1.00  0.00     0.070 A 
HETATM    3  C   LIG     1      27.821  25.000  30.125  1.00  0.00     0.023 A 
HETATM    4  C   LIG     1      28.059  23.854  30.910  1.00  0.00     0.070 A 
HETATM    5 CL   LIG     1      28.349  22.293  30.134  1.00  0.00    -0.081 Cl
HETATM    6  C   LIG     1      28.063  23.952  32.311  1.00  0.00     0.080 A 
HETATM    7 CL   LIG     1      28.358  22.516  33.295  1.00  0.00    -0.081 Cl
HETATM    8  C   LIG     1      27.831  25.193  32.931  1.00  0.00     0.081 A 
HETATM    9 CL   LIG     1      27.835  25.314  34.692  1.00  0.00    -0.081 Cl
HETATM   10  C   LIG     1      27.594  26.337  32.149  1.00  0.00     0.080 A 
HETATM   11 CL   LIG     1      27.303  27.894  32.928  1.00  0.00    -0.081 Cl
ENDROOT
BRANCH   3  12
HETATM   12  C   LIG     1      27.815  24.898  28.650  1.00  0.00     0.003 A 
HETATM   13  C   LIG     1      26.649  24.472  28.004  1.00  0.00     0.040 A 
HETATM   14  C   LIG     1      26.607  24.363  26.612  1.00  0.00     0.058 A 
HETATM   15  C   LIG     1      27.743  24.682  25.849  1.00  0.00     0.079 A 
HETATM   16 CL   LIG     1      25.116  23.824  25.852  1.00  0.00    -0.082 Cl
HETATM   17  C   LIG     1      28.920  25.112  26.489  1.00  0.00     0.080 A 
HETATM   18 CL   LIG     1      27.688  24.545  24.090  1.00  0.00    -0.081 Cl
HETATM   19 CL   LIG     1      30.350  25.514  25.535  1.00  0.00    -0.081 Cl
HETATM   20  C   LIG     1      28.958  25.220  27.892  1.00  0.00     0.068 A 
HETATM   21 CL   LIG     1      30.432  25.758  28.703  1.00  0.00    -0.082 Cl
ENDBRANCH   3  12
TORSDOF 1
ENDMDL
