REMARK  1 active torsions:
REMARK  status: ('A' for Active; 'I' for Inactive)
REMARK    1  A    between atoms: C_3  and  C_4 
ROOT
HETATM    1 CL   LIG     1       0.451  -0.417  -2.744  1.00  0.00    -0.081 Cl
HETATM    2  C   LIG     1       1.400  -0.173  -1.272  1.00  0.00     0.070 A 
HETATM    3  C   LIG     1       0.751   0.001  -0.035  1.00  0.00     0.023 A 
HETATM    4  C   LIG     1       1.510   0.195   1.136  1.00  0.00     0.070 A 
HETATM    5 CL   LIG     1       0.700   0.414   2.691  1.00  0.00    -0.081 Cl
HETATM    6  C   LIG     1       2.913   0.216   1.067  1.00  0.00     0.080 A 
HETATM    7 CL   LIG     1       3.865   0.461   2.534  1.00  0.00    -0.081 Cl
HETATM    8  C   LIG     1       3.560   0.043  -0.169  1.00  0.00     0.081 A 
HETATM    9 CL   LIG     1       5.323   0.071  -0.254  1.00  0.00    -0.081 Cl
HETATM   10  C   LIG     1       2.804  -0.151  -1.338  1.00  0.00     0.080 A 
HETATM   11 CL   LIG     1       3.617  -0.368  -2.890  1.00  0.00    -0.081 Cl
ENDROOT
BRANCH   3  12
HETATM   12  C   LIG     1      -0.726  -0.019   0.036  1.00  0.00     0.003 A 
HETATM   13  C   LIG     1      -1.379  -1.237   0.252  1.00  0.00     0.040 A 
HETATM   14  C   LIG     1      -2.773  -1.293   0.324  1.00  0.00     0.058 A 
HETATM   15  C   LIG     1      -3.531  -0.119   0.179  1.00  0.00     0.079 A 
HETATM   16 CL   LIG     1      -3.542  -2.851   0.598  1.00  0.00    -0.082 Cl
HETATM   17  C   LIG     1      -2.883   1.111  -0.038  1.00  0.00     0.080 A 
HETATM   18 CL   LIG     1      -5.292  -0.192   0.271  1.00  0.00    -0.081 Cl
HETATM   19 CL   LIG     1      -3.831   2.589  -0.221  1.00  0.00    -0.081 Cl
HETATM   20  C   LIG     1      -1.478   1.163  -0.110  1.00  0.00     0.068 A 
HETATM   21 CL   LIG     1      -0.658   2.704  -0.383  1.00  0.00    -0.082 Cl
ENDBRANCH   3  12
TORSDOF 1
