REMARK  11 active torsions:
REMARK  status: ('A' for Active; 'I' for Inactive)
REMARK    1  A    between atoms: C_2  and  C_7 
REMARK    2  A    between atoms: C_2  and  O_3 
REMARK    3  A    between atoms: O_3  and  C_4 
REMARK    4  A    between atoms: C_8  and  C_10 
REMARK    5  A    between atoms: C_11  and  C_12 
REMARK    6  A    between atoms: C_12  and  C_13 
REMARK    7  A    between atoms: C_13  and  C_15 
REMARK    8  A    between atoms: C_15  and  C_16 
REMARK    9  A    between atoms: C_16  and  C_17 
REMARK   10  A    between atoms: C_17  and  C_18 
REMARK   11  A    between atoms: C_18  and  O_19 
ROOT
HETATM    1  C   LIG     1      -2.048   0.902   2.286  1.00  0.00     0.003 C 
HETATM    2  C   LIG     1      -0.738   1.105   2.099  1.00  0.00    -0.026 C 
ENDROOT
BRANCH   2   3
HETATM    3  C   LIG     1      -0.033   0.781   0.802  1.00  0.00     0.031 C 
BRANCH   3   4
HETATM    4  C   LIG     1       1.437   1.259   0.746  1.00  0.00    -0.015 C 
HETATM    5  C   LIG     1       1.544   2.785   0.912  1.00  0.00     0.010 C 
BRANCH   4   6
HETATM    6  C   LIG     1       2.321   0.490   1.760  1.00  0.00     0.004 C 
BRANCH   6   7
HETATM    7  C   LIG     1       3.834   0.775   1.662  1.00  0.00     0.003 C 
BRANCH   7   8
HETATM    8  C   LIG     1       4.500   0.556   0.280  1.00  0.00     0.037 C 
BRANCH   8   9
HETATM    9  C   LIG     1       4.607  -0.905  -0.287  1.00  0.00     0.053 C 
HETATM   10  C   LIG     1       4.893  -1.910   0.846  1.00  0.00     0.045 C 
HETATM   11  C   LIG     1       3.305  -1.352  -1.002  1.00  0.00     0.045 C 
BRANCH   9  12
HETATM   12  O   LIG     1       5.735  -1.006  -1.161  1.00  0.00    -0.386 OA
HETATM   13  C   LIG     1       5.595  -0.296  -2.379  1.00  0.00     0.202 C 
ENDBRANCH   9  12
ENDBRANCH   8   9
ENDBRANCH   7   8
ENDBRANCH   6   7
ENDBRANCH   4   6
ENDBRANCH   3   4
ENDBRANCH   2   3
BRANCH   1  14
HETATM   14  C   LIG     1      -2.931   0.293   1.271  1.00  0.00    -0.057 C 
HETATM   15  C   LIG     1      -3.883   1.064   0.712  1.00  0.00     0.089 C 
HETATM   16  C   LIG     1      -2.755  -1.167   0.950  1.00  0.00     0.048 C 
BRANCH  15  17
HETATM   17  C   LIG     1      -4.859   0.636  -0.312  1.00  0.00     0.283 C 
HETATM   18  O   LIG     1      -5.588   1.515  -0.846  1.00  0.00    -0.260 OA
BRANCH  17  19
HETATM   19  O   LIG     1      -4.994  -0.713  -0.674  1.00  0.00    -0.313 OA
BRANCH  19  20
HETATM   20  C   LIG     1      -5.871  -1.228  -1.683  1.00  0.00     0.124 C 
HETATM   21  C   LIG     1      -7.341  -0.953  -1.349  1.00  0.00     0.040 C 
HETATM   22  C   LIG     1      -5.489  -0.708  -3.072  1.00  0.00     0.040 C 
ENDBRANCH  19  20
ENDBRANCH  17  19
ENDBRANCH  15  17
ENDBRANCH   1  14
TORSDOF 11
