MODEL 1
REMARK VINA RESULT:      -7.9      0.000      0.000
REMARK  11 active torsions:
REMARK  status: ('A' for Active; 'I' for Inactive)
REMARK    1  A    between atoms: C_2  and  C_7 
REMARK    2  A    between atoms: C_2  and  O_3 
REMARK    3  A    between atoms: O_3  and  C_4 
REMARK    4  A    between atoms: C_8  and  C_10 
REMARK    5  A    between atoms: C_11  and  C_12 
REMARK    6  A    between atoms: C_12  and  C_13 
REMARK    7  A    between atoms: C_13  and  C_15 
REMARK    8  A    between atoms: C_15  and  C_16 
REMARK    9  A    between atoms: C_16  and  C_17 
REMARK   10  A    between atoms: C_17  and  C_18 
REMARK   11  A    between atoms: C_18  and  O_19 
ROOT
HETATM    1  C   LIG     1      13.848  31.147  15.990  1.00  0.00     0.003 C 
HETATM    2  C   LIG     1      13.776  31.514  17.276  1.00  0.00    -0.026 C 
ENDROOT
BRANCH   2   3
HETATM    3  C   LIG     1      14.916  32.190  18.003  1.00  0.00     0.031 C 
BRANCH   3   4
HETATM    4  C   LIG     1      14.736  32.254  19.538  1.00  0.00    -0.015 C 
HETATM    5  C   LIG     1      14.983  30.885  20.196  1.00  0.00     0.010 C 
BRANCH   4   6
HETATM    6  C   LIG     1      15.602  33.376  20.162  1.00  0.00     0.004 C 
BRANCH   6   7
HETATM    7  C   LIG     1      14.923  34.181  21.290  1.00  0.00     0.003 C 
BRANCH   7   8
HETATM    8  C   LIG     1      15.157  35.713  21.295  1.00  0.00     0.037 C 
BRANCH   8   9
HETATM    9  C   LIG     1      16.497  36.273  21.893  1.00  0.00     0.053 C 
HETATM   10  C   LIG     1      17.030  35.344  23.001  1.00  0.00     0.045 C 
HETATM   11  C   LIG     1      17.604  36.414  20.816  1.00  0.00     0.045 C 
BRANCH   9  12
HETATM   12  O   LIG     1      16.253  37.522  22.546  1.00  0.00    -0.386 OA
HETATM   13  C   LIG     1      16.564  37.528  23.929  1.00  0.00     0.202 C 
ENDBRANCH   9  12
ENDBRANCH   8   9
ENDBRANCH   7   8
ENDBRANCH   6   7
ENDBRANCH   4   6
ENDBRANCH   3   4
ENDBRANCH   2   3
BRANCH   1  14
HETATM   14  C   LIG     1      15.060  31.312  15.163  1.00  0.00    -0.057 C 
HETATM   15  C   LIG     1      15.780  32.441  15.308  1.00  0.00     0.089 C 
HETATM   16  C   LIG     1      15.401  30.236  14.166  1.00  0.00     0.048 C 
BRANCH  15  17
HETATM   17  C   LIG     1      17.013  32.787  14.571  1.00  0.00     0.283 C 
HETATM   18  O   LIG     1      18.121  32.623  15.150  1.00  0.00    -0.260 OA
BRANCH  17  19
HETATM   19  O   LIG     1      16.964  33.305  13.267  1.00  0.00    -0.313 OA
BRANCH  19  20
HETATM   20  C   LIG     1      17.961  34.131  12.654  1.00  0.00     0.124 C 
HETATM   21  C   LIG     1      19.029  33.294  11.941  1.00  0.00     0.040 C 
HETATM   22  C   LIG     1      17.328  35.170  11.724  1.00  0.00     0.040 C 
ENDBRANCH  19  20
ENDBRANCH  17  19
ENDBRANCH  15  17
ENDBRANCH   1  14
TORSDOF 11
ENDMDL
MODEL 2
REMARK VINA RESULT:      -7.5      2.066      3.625
REMARK  11 active torsions:
REMARK  status: ('A' for Active; 'I' for Inactive)
REMARK    1  A    between atoms: C_2  and  C_7 
REMARK    2  A    between atoms: C_2  and  O_3 
REMARK    3  A    between atoms: O_3  and  C_4 
REMARK    4  A    between atoms: C_8  and  C_10 
REMARK    5  A    between atoms: C_11  and  C_12 
REMARK    6  A    between atoms: C_12  and  C_13 
REMARK    7  A    between atoms: C_13  and  C_15 
REMARK    8  A    between atoms: C_15  and  C_16 
REMARK    9  A    between atoms: C_16  and  C_17 
REMARK   10  A    between atoms: C_17  and  C_18 
REMARK   11  A    between atoms: C_18  and  O_19 
ROOT
HETATM    1  C   LIG     1      14.792  31.870  18.875  1.00  0.00     0.003 C 
HETATM    2  C   LIG     1      15.328  32.761  19.719  1.00  0.00    -0.026 C 
ENDROOT
BRANCH   2   3
HETATM    3  C   LIG     1      15.765  34.142  19.287  1.00  0.00     0.031 C 
BRANCH   3   4
HETATM    4  C   LIG     1      15.678  35.209  20.404  1.00  0.00    -0.015 C 
HETATM    5  C   LIG     1      14.423  35.019  21.273  1.00  0.00     0.010 C 
BRANCH   4   6
HETATM    6  C   LIG     1      16.979  35.255  21.244  1.00  0.00     0.004 C 
BRANCH   6   7
HETATM    7  C   LIG     1      16.775  35.220  22.773  1.00  0.00     0.003 C 
BRANCH   7   8
HETATM    8  C   LIG     1      17.408  36.375  23.591  1.00  0.00     0.037 C 
BRANCH   8   9
HETATM    9  C   LIG     1      16.849  37.831  23.404  1.00  0.00     0.053 C 
HETATM   10  C   LIG     1      17.710  38.620  22.398  1.00  0.00     0.045 C 
HETATM   11  C   LIG     1      15.388  37.835  22.885  1.00  0.00     0.045 C 
BRANCH   9  12
HETATM   12  O   LIG     1      16.962  38.556  24.632  1.00  0.00    -0.386 OA
HETATM   13  C   LIG     1      17.453  37.791  25.718  1.00  0.00     0.202 C 
ENDBRANCH   9  12
ENDBRANCH   8   9
ENDBRANCH   7   8
ENDBRANCH   6   7
ENDBRANCH   4   6
ENDBRANCH   3   4
ENDBRANCH   2   3
BRANCH   1  14
HETATM   14  C   LIG     1      14.619  32.119  17.430  1.00  0.00    -0.057 C 
HETATM   15  C   LIG     1      15.694  31.988  16.629  1.00  0.00     0.089 C 
HETATM   16  C   LIG     1      13.266  32.553  16.933  1.00  0.00     0.048 C 
BRANCH  15  17
HETATM   17  C   LIG     1      15.721  32.198  15.167  1.00  0.00     0.283 C 
HETATM   18  O   LIG     1      16.061  33.331  14.732  1.00  0.00    -0.260 OA
BRANCH  17  19
HETATM   19  O   LIG     1      15.360  31.176  14.275  1.00  0.00    -0.313 OA
BRANCH  19  20
HETATM   20  C   LIG     1      14.851  29.886  14.638  1.00  0.00     0.124 C 
HETATM   21  C   LIG     1      13.319  29.862  14.635  1.00  0.00     0.040 C 
HETATM   22  C   LIG     1      15.446  28.784  13.756  1.00  0.00     0.040 C 
ENDBRANCH  19  20
ENDBRANCH  17  19
ENDBRANCH  15  17
ENDBRANCH   1  14
TORSDOF 11
ENDMDL
MODEL 3
REMARK VINA RESULT:      -7.5      2.767      5.977
REMARK  11 active torsions:
REMARK  status: ('A' for Active; 'I' for Inactive)
REMARK    1  A    between atoms: C_2  and  C_7 
REMARK    2  A    between atoms: C_2  and  O_3 
REMARK    3  A    between atoms: O_3  and  C_4 
REMARK    4  A    between atoms: C_8  and  C_10 
REMARK    5  A    between atoms: C_11  and  C_12 
REMARK    6  A    between atoms: C_12  and  C_13 
REMARK    7  A    between atoms: C_13  and  C_15 
REMARK    8  A    between atoms: C_15  and  C_16 
REMARK    9  A    between atoms: C_16  and  C_17 
REMARK   10  A    between atoms: C_17  and  C_18 
REMARK   11  A    between atoms: C_18  and  O_19 
ROOT
HETATM    1  C   LIG     1      17.028  34.494  21.595  1.00  0.00     0.003 C 
HETATM    2  C   LIG     1      16.901  35.570  22.381  1.00  0.00    -0.026 C 
ENDROOT
BRANCH   2   3
HETATM    3  C   LIG     1      15.754  36.547  22.257  1.00  0.00     0.031 C 
BRANCH   3   4
HETATM    4  C   LIG     1      15.946  37.852  23.065  1.00  0.00    -0.015 C 
HETATM    5  C   LIG     1      16.648  37.589  24.409  1.00  0.00     0.010 C 
BRANCH   4   6
HETATM    6  C   LIG     1      16.665  38.937  22.224  1.00  0.00     0.004 C 
BRANCH   6   7
HETATM    7  C   LIG     1      18.197  38.783  22.123  1.00  0.00     0.003 C 
BRANCH   7   8
HETATM    8  C   LIG     1      18.906  39.561  20.986  1.00  0.00     0.037 C 
BRANCH   8   9
HETATM    9  C   LIG     1      19.136  38.846  19.606  1.00  0.00     0.053 C 
HETATM   10  C   LIG     1      20.634  38.834  19.242  1.00  0.00     0.045 C 
HETATM   11  C   LIG     1      18.638  37.377  19.619  1.00  0.00     0.045 C 
BRANCH   9  12
HETATM   12  O   LIG     1      18.509  39.593  18.560  1.00  0.00    -0.386 OA
HETATM   13  C   LIG     1      18.999  39.305  17.262  1.00  0.00     0.202 C 
ENDBRANCH   9  12
ENDBRANCH   8   9
ENDBRANCH   7   8
ENDBRANCH   6   7
ENDBRANCH   4   6
ENDBRANCH   3   4
ENDBRANCH   2   3
BRANCH   1  14
HETATM   14  C   LIG     1      16.098  34.175  20.493  1.00  0.00    -0.057 C 
HETATM   15  C   LIG     1      15.855  32.878  20.222  1.00  0.00     0.089 C 
HETATM   16  C   LIG     1      15.509  35.310  19.700  1.00  0.00     0.048 C 
BRANCH  15  17
HETATM   17  C   LIG     1      14.964  32.364  19.162  1.00  0.00     0.283 C 
HETATM   18  O   LIG     1      14.195  31.404  19.442  1.00  0.00    -0.260 OA
BRANCH  17  19
HETATM   19  O   LIG     1      14.978  32.907  17.868  1.00  0.00    -0.313 OA
BRANCH  19  20
HETATM   20  C   LIG     1      15.433  32.242  16.683  1.00  0.00     0.124 C 
HETATM   21  C   LIG     1      14.316  31.422  16.029  1.00  0.00     0.040 C 
HETATM   22  C   LIG     1      16.073  33.229  15.702  1.00  0.00     0.040 C 
ENDBRANCH  19  20
ENDBRANCH  17  19
ENDBRANCH  15  17
ENDBRANCH   1  14
TORSDOF 11
ENDMDL
MODEL 4
REMARK VINA RESULT:      -7.3      2.256      7.809
REMARK  11 active torsions:
REMARK  status: ('A' for Active; 'I' for Inactive)
REMARK    1  A    between atoms: C_2  and  C_7 
REMARK    2  A    between atoms: C_2  and  O_3 
REMARK    3  A    between atoms: O_3  and  C_4 
REMARK    4  A    between atoms: C_8  and  C_10 
REMARK    5  A    between atoms: C_11  and  C_12 
REMARK    6  A    between atoms: C_12  and  C_13 
REMARK    7  A    between atoms: C_13  and  C_15 
REMARK    8  A    between atoms: C_15  and  C_16 
REMARK    9  A    between atoms: C_16  and  C_17 
REMARK   10  A    between atoms: C_17  and  C_18 
REMARK   11  A    between atoms: C_18  and  O_19 
ROOT
HETATM    1  C   LIG     1      17.161  36.450  23.747  1.00  0.00     0.003 C 
HETATM    2  C   LIG     1      16.930  35.196  23.341  1.00  0.00    -0.026 C 
ENDROOT
BRANCH   2   3
HETATM    3  C   LIG     1      16.639  34.838  21.901  1.00  0.00     0.031 C 
BRANCH   3   4
HETATM    4  C   LIG     1      15.134  34.670  21.585  1.00  0.00    -0.015 C 
HETATM    5  C   LIG     1      14.609  35.815  20.701  1.00  0.00     0.010 C 
BRANCH   4   6
HETATM    6  C   LIG     1      14.835  33.274  20.983  1.00  0.00     0.004 C 
BRANCH   6   7
HETATM    7  C   LIG     1      15.688  32.890  19.756  1.00  0.00     0.003 C 
BRANCH   7   8
HETATM    8  C   LIG     1      14.975  32.106  18.625  1.00  0.00     0.037 C 
BRANCH   8   9
HETATM    9  C   LIG     1      15.050  32.659  17.156  1.00  0.00     0.053 C 
HETATM   10  C   LIG     1      14.123  31.855  16.224  1.00  0.00     0.045 C 
HETATM   11  C   LIG     1      14.633  34.151  17.071  1.00  0.00     0.045 C 
BRANCH   9  12
HETATM   12  O   LIG     1      16.365  32.460  16.628  1.00  0.00    -0.386 OA
HETATM   13  C   LIG     1      16.397  32.138  15.249  1.00  0.00     0.202 C 
ENDBRANCH   9  12
ENDBRANCH   8   9
ENDBRANCH   7   8
ENDBRANCH   6   7
ENDBRANCH   4   6
ENDBRANCH   3   4
ENDBRANCH   2   3
BRANCH   1  14
HETATM   14  C   LIG     1      17.103  37.621  22.849  1.00  0.00    -0.057 C 
HETATM   15  C   LIG     1      18.212  37.948  22.159  1.00  0.00     0.089 C 
HETATM   16  C   LIG     1      15.826  38.416  22.788  1.00  0.00     0.048 C 
BRANCH  15  17
HETATM   17  C   LIG     1      18.350  39.081  21.220  1.00  0.00     0.283 C 
HETATM   18  O   LIG     1      18.666  40.209  21.687  1.00  0.00    -0.260 OA
BRANCH  17  19
HETATM   19  O   LIG     1      18.117  38.923  19.845  1.00  0.00    -0.313 OA
BRANCH  19  20
HETATM   20  C   LIG     1      19.093  38.548  18.866  1.00  0.00     0.124 C 
HETATM   21  C   LIG     1      18.890  39.302  17.547  1.00  0.00     0.040 C 
HETATM   22  C   LIG     1      20.516  38.709  19.407  1.00  0.00     0.040 C 
ENDBRANCH  19  20
ENDBRANCH  17  19
ENDBRANCH  15  17
ENDBRANCH   1  14
TORSDOF 11
ENDMDL
MODEL 5
REMARK VINA RESULT:      -7.2      2.803      9.152
REMARK  11 active torsions:
REMARK  status: ('A' for Active; 'I' for Inactive)
REMARK    1  A    between atoms: C_2  and  C_7 
REMARK    2  A    between atoms: C_2  and  O_3 
REMARK    3  A    between atoms: O_3  and  C_4 
REMARK    4  A    between atoms: C_8  and  C_10 
REMARK    5  A    between atoms: C_11  and  C_12 
REMARK    6  A    between atoms: C_12  and  C_13 
REMARK    7  A    between atoms: C_13  and  C_15 
REMARK    8  A    between atoms: C_15  and  C_16 
REMARK    9  A    between atoms: C_16  and  C_17 
REMARK   10  A    between atoms: C_17  and  C_18 
REMARK   11  A    between atoms: C_18  and  O_19 
ROOT
HETATM    1  C   LIG     1      17.748  37.096  20.607  1.00  0.00     0.003 C 
HETATM    2  C   LIG     1      17.299  35.839  20.508  1.00  0.00    -0.026 C 
ENDROOT
BRANCH   2   3
HETATM    3  C   LIG     1      16.791  35.051  21.693  1.00  0.00     0.031 C 
BRANCH   3   4
HETATM    4  C   LIG     1      15.288  34.697  21.619  1.00  0.00    -0.015 C 
HETATM    5  C   LIG     1      14.465  35.841  21.001  1.00  0.00     0.010 C 
BRANCH   4   6
HETATM    6  C   LIG     1      15.060  33.346  20.894  1.00  0.00     0.004 C 
BRANCH   6   7
HETATM    7  C   LIG     1      15.680  33.243  19.485  1.00  0.00     0.003 C 
BRANCH   7   8
HETATM    8  C   LIG     1      15.041  32.220  18.512  1.00  0.00     0.037 C 
BRANCH   8   9
HETATM    9  C   LIG     1      14.582  32.710  17.092  1.00  0.00     0.053 C 
HETATM   10  C   LIG     1      14.661  34.246  16.993  1.00  0.00     0.045 C 
HETATM   11  C   LIG     1      15.455  32.114  15.957  1.00  0.00     0.045 C 
BRANCH   9  12
HETATM   12  O   LIG     1      13.199  32.400  16.894  1.00  0.00    -0.386 OA
HETATM   13  C   LIG     1      12.956  31.078  16.445  1.00  0.00     0.202 C 
ENDBRANCH   9  12
ENDBRANCH   8   9
ENDBRANCH   7   8
ENDBRANCH   6   7
ENDBRANCH   4   6
ENDBRANCH   3   4
ENDBRANCH   2   3
BRANCH   1  14
HETATM   14  C   LIG     1      17.846  37.827  21.887  1.00  0.00    -0.057 C 
HETATM   15  C   LIG     1      17.026  37.464  22.891  1.00  0.00     0.089 C 
HETATM   16  C   LIG     1      18.820  38.971  21.987  1.00  0.00     0.048 C 
BRANCH  15  17
HETATM   17  C   LIG     1      16.972  38.075  24.235  1.00  0.00     0.283 C 
HETATM   18  O   LIG     1      16.844  39.326  24.317  1.00  0.00    -0.260 OA
BRANCH  17  19
HETATM   19  O   LIG     1      17.081  37.295  25.397  1.00  0.00    -0.313 OA
BRANCH  19  20
HETATM   20  C   LIG     1      17.952  36.172  25.577  1.00  0.00     0.124 C 
HETATM   21  C   LIG     1      18.692  36.238  26.917  1.00  0.00     0.040 C 
HETATM   22  C   LIG     1      17.200  34.850  25.399  1.00  0.00     0.040 C 
ENDBRANCH  19  20
ENDBRANCH  17  19
ENDBRANCH  15  17
ENDBRANCH   1  14
TORSDOF 11
ENDMDL
MODEL 6
REMARK VINA RESULT:      -7.1      1.676      9.218
REMARK  11 active torsions:
REMARK  status: ('A' for Active; 'I' for Inactive)
REMARK    1  A    between atoms: C_2  and  C_7 
REMARK    2  A    between atoms: C_2  and  O_3 
REMARK    3  A    between atoms: O_3  and  C_4 
REMARK    4  A    between atoms: C_8  and  C_10 
REMARK    5  A    between atoms: C_11  and  C_12 
REMARK    6  A    between atoms: C_12  and  C_13 
REMARK    7  A    between atoms: C_13  and  C_15 
REMARK    8  A    between atoms: C_15  and  C_16 
REMARK    9  A    between atoms: C_16  and  C_17 
REMARK   10  A    between atoms: C_17  and  C_18 
REMARK   11  A    between atoms: C_18  and  O_19 
ROOT
HETATM    1  C   LIG     1      16.626  36.056  20.438  1.00  0.00     0.003 C 
HETATM    2  C   LIG     1      16.106  35.026  19.759  1.00  0.00    -0.026 C 
ENDROOT
BRANCH   2   3
HETATM    3  C   LIG     1      15.600  33.770  20.430  1.00  0.00     0.031 C 
BRANCH   3   4
HETATM    4  C   LIG     1      15.505  32.546  19.489  1.00  0.00    -0.015 C 
HETATM    5  C   LIG     1      14.745  31.382  20.148  1.00  0.00     0.010 C 
BRANCH   4   6
HETATM    6  C   LIG     1      14.910  32.936  18.112  1.00  0.00     0.004 C 
BRANCH   6   7
HETATM    7  C   LIG     1      14.747  31.772  17.113  1.00  0.00     0.003 C 
BRANCH   7   8
HETATM    8  C   LIG     1      14.616  32.148  15.615  1.00  0.00     0.037 C 
BRANCH   8   9
HETATM    9  C   LIG     1      15.773  31.749  14.630  1.00  0.00     0.053 C 
HETATM   10  C   LIG     1      17.131  31.742  15.358  1.00  0.00     0.045 C 
HETATM   11  C   LIG     1      15.557  30.343  14.012  1.00  0.00     0.045 C 
BRANCH   9  12
HETATM   12  O   LIG     1      15.908  32.744  13.610  1.00  0.00    -0.386 OA
HETATM   13  C   LIG     1      17.246  33.120  13.336  1.00  0.00     0.202 C 
ENDBRANCH   9  12
ENDBRANCH   8   9
ENDBRANCH   7   8
ENDBRANCH   6   7
ENDBRANCH   4   6
ENDBRANCH   3   4
ENDBRANCH   2   3
BRANCH   1  14
HETATM   14  C   LIG     1      16.810  36.055  21.903  1.00  0.00    -0.057 C 
HETATM   15  C   LIG     1      16.663  37.220  22.563  1.00  0.00     0.089 C 
HETATM   16  C   LIG     1      17.201  34.767  22.577  1.00  0.00     0.048 C 
BRANCH  15  17
HETATM   17  C   LIG     1      16.811  37.419  24.020  1.00  0.00     0.283 C 
HETATM   18  O   LIG     1      15.998  38.187  24.603  1.00  0.00    -0.260 OA
BRANCH  17  19
HETATM   19  O   LIG     1      17.837  36.792  24.743  1.00  0.00    -0.313 OA
BRANCH  19  20
HETATM   20  C   LIG     1      17.720  36.241  26.060  1.00  0.00     0.124 C 
HETATM   21  C   LIG     1      17.288  34.771  26.022  1.00  0.00     0.040 C 
HETATM   22  C   LIG     1      19.008  36.441  26.864  1.00  0.00     0.040 C 
ENDBRANCH  19  20
ENDBRANCH  17  19
ENDBRANCH  15  17
ENDBRANCH   1  14
TORSDOF 11
ENDMDL
MODEL 7
REMARK VINA RESULT:      -7.0      2.209      8.002
REMARK  11 active torsions:
REMARK  status: ('A' for Active; 'I' for Inactive)
REMARK    1  A    between atoms: C_2  and  C_7 
REMARK    2  A    between atoms: C_2  and  O_3 
REMARK    3  A    between atoms: O_3  and  C_4 
REMARK    4  A    between atoms: C_8  and  C_10 
REMARK    5  A    between atoms: C_11  and  C_12 
REMARK    6  A    between atoms: C_12  and  C_13 
REMARK    7  A    between atoms: C_13  and  C_15 
REMARK    8  A    between atoms: C_15  and  C_16 
REMARK    9  A    between atoms: C_16  and  C_17 
REMARK   10  A    between atoms: C_17  and  C_18 
REMARK   11  A    between atoms: C_18  and  O_19 
ROOT
HETATM    1  C   LIG     1      16.568  35.406  22.367  1.00  0.00     0.003 C 
HETATM    2  C   LIG     1      16.068  34.580  21.440  1.00  0.00    -0.026 C 
ENDROOT
BRANCH   2   3
HETATM    3  C   LIG     1      15.683  35.038  20.052  1.00  0.00     0.031 C 
BRANCH   3   4
HETATM    4  C   LIG     1      15.667  33.908  18.996  1.00  0.00    -0.015 C 
HETATM    5  C   LIG     1      15.184  32.577  19.597  1.00  0.00     0.010 C 
BRANCH   4   6
HETATM    6  C   LIG     1      14.858  34.319  17.740  1.00  0.00     0.004 C 
BRANCH   6   7
HETATM    7  C   LIG     1      15.552  34.043  16.390  1.00  0.00     0.003 C 
BRANCH   7   8
HETATM    8  C   LIG     1      15.443  32.602  15.828  1.00  0.00     0.037 C 
BRANCH   8   9
HETATM    9  C   LIG     1      16.492  32.124  14.761  1.00  0.00     0.053 C 
HETATM   10  C   LIG     1      16.077  32.577  13.348  1.00  0.00     0.045 C 
HETATM   11  C   LIG     1      17.911  32.684  15.043  1.00  0.00     0.045 C 
BRANCH   9  12
HETATM   12  O   LIG     1      16.505  30.695  14.700  1.00  0.00    -0.386 OA
HETATM   13  C   LIG     1      15.238  30.109  14.460  1.00  0.00     0.202 C 
ENDBRANCH   9  12
ENDBRANCH   8   9
ENDBRANCH   7   8
ENDBRANCH   6   7
ENDBRANCH   4   6
ENDBRANCH   3   4
ENDBRANCH   2   3
BRANCH   1  14
HETATM   14  C   LIG     1      16.746  36.857  22.154  1.00  0.00    -0.057 C 
HETATM   15  C   LIG     1      17.870  37.276  21.543  1.00  0.00     0.089 C 
HETATM   16  C   LIG     1      15.688  37.793  22.673  1.00  0.00     0.048 C 
BRANCH  15  17
HETATM   17  C   LIG     1      18.228  38.680  21.247  1.00  0.00     0.283 C 
HETATM   18  O   LIG     1      18.468  39.451  22.215  1.00  0.00    -0.260 OA
BRANCH  17  19
HETATM   19  O   LIG     1      18.283  39.157  19.929  1.00  0.00    -0.313 OA
BRANCH  19  20
HETATM   20  C   LIG     1      19.149  38.672  18.895  1.00  0.00     0.124 C 
HETATM   21  C   LIG     1      18.886  39.375  17.560  1.00  0.00     0.040 C 
HETATM   22  C   LIG     1      20.620  38.761  19.313  1.00  0.00     0.040 C 
ENDBRANCH  19  20
ENDBRANCH  17  19
ENDBRANCH  15  17
ENDBRANCH   1  14
TORSDOF 11
ENDMDL
MODEL 8
REMARK VINA RESULT:      -6.9      2.150      8.037
REMARK  11 active torsions:
REMARK  status: ('A' for Active; 'I' for Inactive)
REMARK    1  A    between atoms: C_2  and  C_7 
REMARK    2  A    between atoms: C_2  and  O_3 
REMARK    3  A    between atoms: O_3  and  C_4 
REMARK    4  A    between atoms: C_8  and  C_10 
REMARK    5  A    between atoms: C_11  and  C_12 
REMARK    6  A    between atoms: C_12  and  C_13 
REMARK    7  A    between atoms: C_13  and  C_15 
REMARK    8  A    between atoms: C_15  and  C_16 
REMARK    9  A    between atoms: C_16  and  C_17 
REMARK   10  A    between atoms: C_17  and  C_18 
REMARK   11  A    between atoms: C_18  and  O_19 
ROOT
HETATM    1  C   LIG     1      14.923  34.538  21.408  1.00  0.00     0.003 C 
HETATM    2  C   LIG     1      14.689  33.382  20.773  1.00  0.00    -0.026 C 
ENDROOT
BRANCH   2   3
HETATM    3  C   LIG     1      15.771  32.599  20.066  1.00  0.00     0.031 C 
BRANCH   3   4
HETATM    4  C   LIG     1      15.415  32.199  18.615  1.00  0.00    -0.015 C 
HETATM    5  C   LIG     1      14.192  31.266  18.567  1.00  0.00     0.010 C 
BRANCH   4   6
HETATM    6  C   LIG     1      15.244  33.446  17.711  1.00  0.00     0.004 C 
BRANCH   6   7
HETATM    7  C   LIG     1      15.424  33.192  16.200  1.00  0.00     0.003 C 
BRANCH   7   8
HETATM    8  C   LIG     1      16.164  31.894  15.791  1.00  0.00     0.037 C 
BRANCH   8   9
HETATM    9  C   LIG     1      15.545  30.991  14.664  1.00  0.00     0.053 C 
HETATM   10  C   LIG     1      14.066  30.679  14.966  1.00  0.00     0.045 C 
HETATM   11  C   LIG     1      15.614  31.667  13.270  1.00  0.00     0.045 C 
BRANCH   9  12
HETATM   12  O   LIG     1      16.194  29.716  14.651  1.00  0.00    -0.386 OA
HETATM   13  C   LIG     1      15.471  28.700  13.980  1.00  0.00     0.202 C 
ENDBRANCH   9  12
ENDBRANCH   8   9
ENDBRANCH   7   8
ENDBRANCH   6   7
ENDBRANCH   4   6
ENDBRANCH   3   4
ENDBRANCH   2   3
BRANCH   1  14
HETATM   14  C   LIG     1      16.245  35.196  21.439  1.00  0.00    -0.057 C 
HETATM   15  C   LIG     1      16.662  35.838  20.332  1.00  0.00     0.089 C 
HETATM   16  C   LIG     1      17.077  35.074  22.687  1.00  0.00     0.048 C 
BRANCH  15  17
HETATM   17  C   LIG     1      17.947  36.549  20.170  1.00  0.00     0.283 C 
HETATM   18  O   LIG     1      18.637  36.307  19.142  1.00  0.00    -0.260 OA
BRANCH  17  19
HETATM   19  O   LIG     1      18.408  37.455  21.137  1.00  0.00    -0.313 OA
BRANCH  19  20
HETATM   20  C   LIG     1      17.883  38.766  21.377  1.00  0.00     0.124 C 
HETATM   21  C   LIG     1      17.194  38.859  22.742  1.00  0.00     0.040 C 
HETATM   22  C   LIG     1      18.962  39.839  21.202  1.00  0.00     0.040 C 
ENDBRANCH  19  20
ENDBRANCH  17  19
ENDBRANCH  15  17
ENDBRANCH   1  14
TORSDOF 11
ENDMDL
MODEL 9
REMARK VINA RESULT:      -6.6      1.312      1.963
REMARK  11 active torsions:
REMARK  status: ('A' for Active; 'I' for Inactive)
REMARK    1  A    between atoms: C_2  and  C_7 
REMARK    2  A    between atoms: C_2  and  O_3 
REMARK    3  A    between atoms: O_3  and  C_4 
REMARK    4  A    between atoms: C_8  and  C_10 
REMARK    5  A    between atoms: C_11  and  C_12 
REMARK    6  A    between atoms: C_12  and  C_13 
REMARK    7  A    between atoms: C_13  and  C_15 
REMARK    8  A    between atoms: C_15  and  C_16 
REMARK    9  A    between atoms: C_16  and  C_17 
REMARK   10  A    between atoms: C_17  and  C_18 
REMARK   11  A    between atoms: C_18  and  O_19 
ROOT
HETATM    1  C   LIG     1      12.854  31.091  16.312  1.00  0.00     0.003 C 
HETATM    2  C   LIG     1      13.370  31.577  17.447  1.00  0.00    -0.026 C 
ENDROOT
BRANCH   2   3
HETATM    3  C   LIG     1      14.857  31.710  17.683  1.00  0.00     0.031 C 
BRANCH   3   4
HETATM    4  C   LIG     1      15.327  33.161  17.944  1.00  0.00    -0.015 C 
HETATM    5  C   LIG     1      14.583  34.167  17.049  1.00  0.00     0.010 C 
BRANCH   4   6
HETATM    6  C   LIG     1      15.235  33.524  19.447  1.00  0.00     0.004 C 
BRANCH   6   7
HETATM    7  C   LIG     1      15.613  34.978  19.796  1.00  0.00     0.003 C 
BRANCH   7   8
HETATM    8  C   LIG     1      15.322  35.450  21.244  1.00  0.00     0.037 C 
BRANCH   8   9
HETATM    9  C   LIG     1      16.448  36.207  22.036  1.00  0.00     0.053 C 
HETATM   10  C   LIG     1      17.060  35.296  23.117  1.00  0.00     0.045 C 
HETATM   11  C   LIG     1      17.596  36.682  21.108  1.00  0.00     0.045 C 
BRANCH   9  12
HETATM   12  O   LIG     1      15.880  37.304  22.757  1.00  0.00    -0.386 OA
HETATM   13  C   LIG     1      16.539  37.604  23.975  1.00  0.00     0.202 C 
ENDBRANCH   9  12
ENDBRANCH   8   9
ENDBRANCH   7   8
ENDBRANCH   6   7
ENDBRANCH   4   6
ENDBRANCH   3   4
ENDBRANCH   2   3
BRANCH   1  14
HETATM   14  C   LIG     1      13.676  30.585  15.194  1.00  0.00    -0.057 C 
HETATM   15  C   LIG     1      14.808  31.247  14.888  1.00  0.00     0.089 C 
HETATM   16  C   LIG     1      13.183  29.389  14.425  1.00  0.00     0.048 C 
BRANCH  15  17
HETATM   17  C   LIG     1      15.754  30.899  13.807  1.00  0.00     0.283 C 
HETATM   18  O   LIG     1      15.977  29.679  13.579  1.00  0.00    -0.260 OA
BRANCH  17  19
HETATM   19  O   LIG     1      16.409  31.891  13.061  1.00  0.00    -0.313 OA
BRANCH  19  20
HETATM   20  C   LIG     1      17.141  32.999  13.598  1.00  0.00     0.124 C 
HETATM   21  C   LIG     1      17.632  32.716  15.022  1.00  0.00     0.040 C 
HETATM   22  C   LIG     1      18.283  33.416  12.667  1.00  0.00     0.040 C 
ENDBRANCH  19  20
ENDBRANCH  17  19
ENDBRANCH  15  17
ENDBRANCH   1  14
TORSDOF 11
ENDMDL
MODEL 10
REMARK VINA RESULT:      -6.4      3.539      9.398
REMARK  11 active torsions:
REMARK  status: ('A' for Active; 'I' for Inactive)
REMARK    1  A    between atoms: C_2  and  C_7 
REMARK    2  A    between atoms: C_2  and  O_3 
REMARK    3  A    between atoms: O_3  and  C_4 
REMARK    4  A    between atoms: C_8  and  C_10 
REMARK    5  A    between atoms: C_11  and  C_12 
REMARK    6  A    between atoms: C_12  and  C_13 
REMARK    7  A    between atoms: C_13  and  C_15 
REMARK    8  A    between atoms: C_15  and  C_16 
REMARK    9  A    between atoms: C_16  and  C_17 
REMARK   10  A    between atoms: C_17  and  C_18 
REMARK   11  A    between atoms: C_18  and  O_19 
ROOT
HETATM    1  C   LIG     1      19.003  39.503  21.697  1.00  0.00     0.003 C 
HETATM    2  C   LIG     1      18.994  39.116  20.416  1.00  0.00    -0.026 C 
ENDROOT
BRANCH   2   3
HETATM    3  C   LIG     1      17.968  38.159  19.854  1.00  0.00     0.031 C 
BRANCH   3   4
HETATM    4  C   LIG     1      18.425  36.682  19.837  1.00  0.00    -0.015 C 
HETATM    5  C   LIG     1      19.943  36.560  19.616  1.00  0.00     0.010 C 
BRANCH   4   6
HETATM    6  C   LIG     1      17.949  35.927  21.104  1.00  0.00     0.004 C 
BRANCH   6   7
HETATM    7  C   LIG     1      16.500  35.401  21.050  1.00  0.00     0.003 C 
BRANCH   7   8
HETATM    8  C   LIG     1      16.078  34.640  19.767  1.00  0.00     0.037 C 
BRANCH   8   9
HETATM    9  C   LIG     1      15.281  33.294  19.912  1.00  0.00     0.053 C 
HETATM   10  C   LIG     1      16.245  32.092  19.954  1.00  0.00     0.045 C 
HETATM   11  C   LIG     1      14.421  33.259  21.202  1.00  0.00     0.045 C 
BRANCH   9  12
HETATM   12  O   LIG     1      14.476  33.078  18.750  1.00  0.00    -0.386 OA
HETATM   13  C   LIG     1      15.110  32.326  17.731  1.00  0.00     0.202 C 
ENDBRANCH   9  12
ENDBRANCH   8   9
ENDBRANCH   7   8
ENDBRANCH   6   7
ENDBRANCH   4   6
ENDBRANCH   3   4
ENDBRANCH   2   3
BRANCH   1  14
HETATM   14  C   LIG     1      18.050  39.000  22.707  1.00  0.00    -0.057 C 
HETATM   15  C   LIG     1      18.547  38.465  23.839  1.00  0.00     0.089 C 
HETATM   16  C   LIG     1      16.578  39.064  22.400  1.00  0.00     0.048 C 
BRANCH  15  17
HETATM   17  C   LIG     1      17.759  37.908  24.957  1.00  0.00     0.283 C 
HETATM   18  O   LIG     1      16.615  38.390  25.180  1.00  0.00    -0.260 OA
BRANCH  17  19
HETATM   19  O   LIG     1      18.267  36.883  25.770  1.00  0.00    -0.313 OA
BRANCH  19  20
HETATM   20  C   LIG     1      17.701  35.576  25.926  1.00  0.00     0.124 C 
HETATM   21  C   LIG     1      17.202  35.013  24.591  1.00  0.00     0.040 C 
HETATM   22  C   LIG     1      18.678  34.625  26.624  1.00  0.00     0.040 C 
ENDBRANCH  19  20
ENDBRANCH  17  19
ENDBRANCH  15  17
ENDBRANCH   1  14
TORSDOF 11
ENDMDL
MODEL 11
REMARK VINA RESULT:      -6.4      2.555      5.711
REMARK  11 active torsions:
REMARK  status: ('A' for Active; 'I' for Inactive)
REMARK    1  A    between atoms: C_2  and  C_7 
REMARK    2  A    between atoms: C_2  and  O_3 
REMARK    3  A    between atoms: O_3  and  C_4 
REMARK    4  A    between atoms: C_8  and  C_10 
REMARK    5  A    between atoms: C_11  and  C_12 
REMARK    6  A    between atoms: C_12  and  C_13 
REMARK    7  A    between atoms: C_13  and  C_15 
REMARK    8  A    between atoms: C_15  and  C_16 
REMARK    9  A    between atoms: C_16  and  C_17 
REMARK   10  A    between atoms: C_17  and  C_18 
REMARK   11  A    between atoms: C_18  and  O_19 
ROOT
HETATM    1  C   LIG     1      16.387  34.784  21.645  1.00  0.00     0.003 C 
HETATM    2  C   LIG     1      17.349  35.714  21.616  1.00  0.00    -0.026 C 
ENDROOT
BRANCH   2   3
HETATM    3  C   LIG     1      17.864  36.324  20.332  1.00  0.00     0.031 C 
BRANCH   3   4
HETATM    4  C   LIG     1      18.636  37.650  20.529  1.00  0.00    -0.015 C 
HETATM    5  C   LIG     1      19.465  38.013  19.284  1.00  0.00     0.010 C 
BRANCH   4   6
HETATM    6  C   LIG     1      17.689  38.797  20.965  1.00  0.00     0.004 C 
BRANCH   6   7
HETATM    7  C   LIG     1      17.827  39.240  22.436  1.00  0.00     0.003 C 
BRANCH   7   8
HETATM    8  C   LIG     1      16.984  38.467  23.482  1.00  0.00     0.037 C 
BRANCH   8   9
HETATM    9  C   LIG     1      17.722  37.727  24.654  1.00  0.00     0.053 C 
HETATM   10  C   LIG     1      19.239  37.994  24.598  1.00  0.00     0.045 C 
HETATM   11  C   LIG     1      17.211  38.179  26.046  1.00  0.00     0.045 C 
BRANCH   9  12
HETATM   12  O   LIG     1      17.593  36.311  24.492  1.00  0.00    -0.386 OA
HETATM   13  C   LIG     1      17.405  35.600  25.703  1.00  0.00     0.202 C 
ENDBRANCH   9  12
ENDBRANCH   8   9
ENDBRANCH   7   8
ENDBRANCH   6   7
ENDBRANCH   4   6
ENDBRANCH   3   4
ENDBRANCH   2   3
BRANCH   1  14
HETATM   14  C   LIG     1      15.766  34.216  20.432  1.00  0.00    -0.057 C 
HETATM   15  C   LIG     1      15.666  32.876  20.336  1.00  0.00     0.089 C 
HETATM   16  C   LIG     1      15.323  35.158  19.345  1.00  0.00     0.048 C 
BRANCH  15  17
HETATM   17  C   LIG     1      15.083  32.126  19.205  1.00  0.00     0.283 C 
HETATM   18  O   LIG     1      14.444  31.068  19.456  1.00  0.00    -0.260 OA
BRANCH  17  19
HETATM   19  O   LIG     1      15.247  32.557  17.880  1.00  0.00    -0.313 OA
BRANCH  19  20
HETATM   20  C   LIG     1      14.690  31.931  16.718  1.00  0.00     0.124 C 
HETATM   21  C   LIG     1      13.207  32.277  16.544  1.00  0.00     0.040 C 
HETATM   22  C   LIG     1      15.508  32.256  15.464  1.00  0.00     0.040 C 
ENDBRANCH  19  20
ENDBRANCH  17  19
ENDBRANCH  15  17
ENDBRANCH   1  14
TORSDOF 11
ENDMDL
MODEL 12
REMARK VINA RESULT:      -6.0      1.813      9.037
REMARK  11 active torsions:
REMARK  status: ('A' for Active; 'I' for Inactive)
REMARK    1  A    between atoms: C_2  and  C_7 
REMARK    2  A    between atoms: C_2  and  O_3 
REMARK    3  A    between atoms: O_3  and  C_4 
REMARK    4  A    between atoms: C_8  and  C_10 
REMARK    5  A    between atoms: C_11  and  C_12 
REMARK    6  A    between atoms: C_12  and  C_13 
REMARK    7  A    between atoms: C_13  and  C_15 
REMARK    8  A    between atoms: C_15  and  C_16 
REMARK    9  A    between atoms: C_16  and  C_17 
REMARK   10  A    between atoms: C_17  and  C_18 
REMARK   11  A    between atoms: C_18  and  O_19 
ROOT
HETATM    1  C   LIG     1      18.255  36.782  20.417  1.00  0.00     0.003 C 
HETATM    2  C   LIG     1      17.570  35.894  19.685  1.00  0.00    -0.026 C 
ENDROOT
BRANCH   2   3
HETATM    3  C   LIG     1      16.105  35.601  19.908  1.00  0.00     0.031 C 
BRANCH   3   4
HETATM    4  C   LIG     1      15.830  34.240  20.589  1.00  0.00    -0.015 C 
HETATM    5  C   LIG     1      14.881  34.389  21.792  1.00  0.00     0.010 C 
BRANCH   4   6
HETATM    6  C   LIG     1      15.330  33.187  19.568  1.00  0.00     0.004 C 
BRANCH   6   7
HETATM    7  C   LIG     1      15.409  33.617  18.089  1.00  0.00     0.003 C 
BRANCH   7   8
HETATM    8  C   LIG     1      15.464  32.484  17.032  1.00  0.00     0.037 C 
BRANCH   8   9
HETATM    9  C   LIG     1      16.184  32.758  15.663  1.00  0.00     0.053 C 
HETATM   10  C   LIG     1      15.472  32.017  14.515  1.00  0.00     0.045 C 
HETATM   11  C   LIG     1      16.213  34.268  15.310  1.00  0.00     0.045 C 
BRANCH   9  12
HETATM   12  O   LIG     1      17.506  32.211  15.691  1.00  0.00    -0.386 OA
HETATM   13  C   LIG     1      18.422  32.854  14.822  1.00  0.00     0.202 C 
ENDBRANCH   9  12
ENDBRANCH   8   9
ENDBRANCH   7   8
ENDBRANCH   6   7
ENDBRANCH   4   6
ENDBRANCH   3   4
ENDBRANCH   2   3
BRANCH   1  14
HETATM   14  C   LIG     1      17.671  37.527  21.551  1.00  0.00    -0.057 C 
HETATM   15  C   LIG     1      17.167  36.822  22.582  1.00  0.00     0.089 C 
HETATM   16  C   LIG     1      17.622  39.029  21.473  1.00  0.00     0.048 C 
BRANCH  15  17
HETATM   17  C   LIG     1      16.541  37.385  23.797  1.00  0.00     0.283 C 
HETATM   18  O   LIG     1      15.366  37.833  23.710  1.00  0.00    -0.260 OA
BRANCH  17  19
HETATM   19  O   LIG     1      17.233  37.443  25.016  1.00  0.00    -0.313 OA
BRANCH  19  20
HETATM   20  C   LIG     1      17.495  36.336  25.887  1.00  0.00     0.124 C 
HETATM   21  C   LIG     1      17.311  34.995  25.168  1.00  0.00     0.040 C 
HETATM   22  C   LIG     1      18.875  36.455  26.540  1.00  0.00     0.040 C 
ENDBRANCH  19  20
ENDBRANCH  17  19
ENDBRANCH  15  17
ENDBRANCH   1  14
TORSDOF 11
ENDMDL
MODEL 13
REMARK VINA RESULT:      -5.9      2.294      4.045
REMARK  11 active torsions:
REMARK  status: ('A' for Active; 'I' for Inactive)
REMARK    1  A    between atoms: C_2  and  C_7 
REMARK    2  A    between atoms: C_2  and  O_3 
REMARK    3  A    between atoms: O_3  and  C_4 
REMARK    4  A    between atoms: C_8  and  C_10 
REMARK    5  A    between atoms: C_11  and  C_12 
REMARK    6  A    between atoms: C_12  and  C_13 
REMARK    7  A    between atoms: C_13  and  C_15 
REMARK    8  A    between atoms: C_15  and  C_16 
REMARK    9  A    between atoms: C_16  and  C_17 
REMARK   10  A    between atoms: C_17  and  C_18 
REMARK   11  A    between atoms: C_18  and  O_19 
ROOT
HETATM    1  C   LIG     1      15.268  31.797  19.374  1.00  0.00     0.003 C 
HETATM    2  C   LIG     1      15.722  32.818  20.112  1.00  0.00    -0.026 C 
ENDROOT
BRANCH   2   3
HETATM    3  C   LIG     1      15.557  34.264  19.704  1.00  0.00     0.031 C 
BRANCH   3   4
HETATM    4  C   LIG     1      16.114  35.277  20.731  1.00  0.00    -0.015 C 
HETATM    5  C   LIG     1      17.197  36.177  20.110  1.00  0.00     0.010 C 
BRANCH   4   6
HETATM    6  C   LIG     1      14.976  36.093  21.395  1.00  0.00     0.004 C 
BRANCH   6   7
HETATM    7  C   LIG     1      15.398  36.934  22.618  1.00  0.00     0.003 C 
BRANCH   7   8
HETATM    8  C   LIG     1      16.916  37.023  22.917  1.00  0.00     0.037 C 
BRANCH   8   9
HETATM    9  C   LIG     1      17.547  38.429  23.222  1.00  0.00     0.053 C 
HETATM   10  C   LIG     1      18.646  38.766  22.196  1.00  0.00     0.045 C 
HETATM   11  C   LIG     1      16.492  39.565  23.180  1.00  0.00     0.045 C 
BRANCH   9  12
HETATM   12  O   LIG     1      18.220  38.396  24.484  1.00  0.00    -0.386 OA
HETATM   13  C   LIG     1      17.457  37.834  25.538  1.00  0.00     0.202 C 
ENDBRANCH   9  12
ENDBRANCH   8   9
ENDBRANCH   7   8
ENDBRANCH   6   7
ENDBRANCH   4   6
ENDBRANCH   3   4
ENDBRANCH   2   3
BRANCH   1  14
HETATM   14  C   LIG     1      14.609  31.968  18.064  1.00  0.00    -0.057 C 
HETATM   15  C   LIG     1      13.899  30.936  17.570  1.00  0.00     0.089 C 
HETATM   16  C   LIG     1      14.805  33.266  17.326  1.00  0.00     0.048 C 
BRANCH  15  17
HETATM   17  C   LIG     1      13.176  30.915  16.281  1.00  0.00     0.283 C 
HETATM   18  O   LIG     1      11.918  30.826  16.304  1.00  0.00    -0.260 OA
BRANCH  17  19
HETATM   19  O   LIG     1      13.861  30.972  15.058  1.00  0.00    -0.313 OA
BRANCH  19  20
HETATM   20  C   LIG     1      15.204  30.531  14.827  1.00  0.00     0.124 C 
HETATM   21  C   LIG     1      15.244  29.267  13.962  1.00  0.00     0.040 C 
HETATM   22  C   LIG     1      16.068  31.654  14.245  1.00  0.00     0.040 C 
ENDBRANCH  19  20
ENDBRANCH  17  19
ENDBRANCH  15  17
ENDBRANCH   1  14
TORSDOF 11
ENDMDL
MODEL 14
REMARK VINA RESULT:      -5.6      5.681      8.949
REMARK  11 active torsions:
REMARK  status: ('A' for Active; 'I' for Inactive)
REMARK    1  A    between atoms: C_2  and  C_7 
REMARK    2  A    between atoms: C_2  and  O_3 
REMARK    3  A    between atoms: O_3  and  C_4 
REMARK    4  A    between atoms: C_8  and  C_10 
REMARK    5  A    between atoms: C_11  and  C_12 
REMARK    6  A    between atoms: C_12  and  C_13 
REMARK    7  A    between atoms: C_13  and  C_15 
REMARK    8  A    between atoms: C_15  and  C_16 
REMARK    9  A    between atoms: C_16  and  C_17 
REMARK   10  A    between atoms: C_17  and  C_18 
REMARK   11  A    between atoms: C_18  and  O_19 
ROOT
HETATM    1  C   LIG     1      14.360  30.406  15.431  1.00  0.00     0.003 C 
HETATM    2  C   LIG     1      15.210  31.404  15.161  1.00  0.00    -0.026 C 
ENDROOT
BRANCH   2   3
HETATM    3  C   LIG     1      15.759  31.666  13.778  1.00  0.00     0.031 C 
BRANCH   3   4
HETATM    4  C   LIG     1      16.623  32.945  13.673  1.00  0.00    -0.015 C 
HETATM    5  C   LIG     1      17.150  33.388  15.049  1.00  0.00     0.010 C 
BRANCH   4   6
HETATM    6  C   LIG     1      17.757  32.777  12.631  1.00  0.00     0.004 C 
BRANCH   6   7
HETATM    7  C   LIG     1      18.480  34.080  12.230  1.00  0.00     0.003 C 
BRANCH   7   8
HETATM    8  C   LIG     1      19.288  34.054  10.908  1.00  0.00     0.037 C 
BRANCH   8   9
HETATM    9  C   LIG     1      20.857  34.098  10.978  1.00  0.00     0.053 C 
HETATM   10  C   LIG     1      21.404  35.311  10.200  1.00  0.00     0.045 C 
HETATM   11  C   LIG     1      21.375  34.195  12.437  1.00  0.00     0.045 C 
BRANCH   9  12
HETATM   12  O   LIG     1      21.405  32.957  10.311  1.00  0.00    -0.386 OA
HETATM   13  C   LIG     1      20.663  31.764  10.490  1.00  0.00     0.202 C 
ENDBRANCH   9  12
ENDBRANCH   8   9
ENDBRANCH   7   8
ENDBRANCH   6   7
ENDBRANCH   4   6
ENDBRANCH   3   4
ENDBRANCH   2   3
BRANCH   1  14
HETATM   14  C   LIG     1      13.911  29.424  14.423  1.00  0.00    -0.057 C 
HETATM   15  C   LIG     1      12.587  29.221  14.279  1.00  0.00     0.089 C 
HETATM   16  C   LIG     1      14.953  28.666  13.645  1.00  0.00     0.048 C 
BRANCH  15  17
HETATM   17  C   LIG     1      11.949  28.283  13.332  1.00  0.00     0.283 C 
HETATM   18  O   LIG     1      10.848  28.614  12.814  1.00  0.00    -0.260 OA
BRANCH  17  19
HETATM   19  O   LIG     1      12.533  27.044  13.026  1.00  0.00    -0.313 OA
BRANCH  19  20
HETATM   20  C   LIG     1      12.253  26.247  11.869  1.00  0.00     0.124 C 
HETATM   21  C   LIG     1      13.534  25.680  11.249  1.00  0.00     0.040 C 
HETATM   22  C   LIG     1      11.231  25.150  12.182  1.00  0.00     0.040 C 
ENDBRANCH  19  20
ENDBRANCH  17  19
ENDBRANCH  15  17
ENDBRANCH   1  14
TORSDOF 11
ENDMDL
MODEL 15
REMARK VINA RESULT:      -5.3     14.013     15.356
REMARK  11 active torsions:
REMARK  status: ('A' for Active; 'I' for Inactive)
REMARK    1  A    between atoms: C_2  and  C_7 
REMARK    2  A    between atoms: C_2  and  O_3 
REMARK    3  A    between atoms: O_3  and  C_4 
REMARK    4  A    between atoms: C_8  and  C_10 
REMARK    5  A    between atoms: C_11  and  C_12 
REMARK    6  A    between atoms: C_12  and  C_13 
REMARK    7  A    between atoms: C_13  and  C_15 
REMARK    8  A    between atoms: C_15  and  C_16 
REMARK    9  A    between atoms: C_16  and  C_17 
REMARK   10  A    between atoms: C_17  and  C_18 
REMARK   11  A    between atoms: C_18  and  O_19 
ROOT
HETATM    1  C   LIG     1      22.746  22.139  20.339  1.00  0.00     0.003 C 
HETATM    2  C   LIG     1      23.473  22.857  21.203  1.00  0.00    -0.026 C 
ENDROOT
BRANCH   2   3
HETATM    3  C   LIG     1      24.912  22.536  21.533  1.00  0.00     0.031 C 
BRANCH   3   4
HETATM    4  C   LIG     1      25.931  23.553  20.968  1.00  0.00    -0.015 C 
HETATM    5  C   LIG     1      27.222  23.588  21.806  1.00  0.00     0.010 C 
BRANCH   4   6
HETATM    6  C   LIG     1      26.208  23.301  19.465  1.00  0.00     0.004 C 
BRANCH   6   7
HETATM    7  C   LIG     1      26.092  24.544  18.557  1.00  0.00     0.003 C 
BRANCH   7   8
HETATM    8  C   LIG     1      26.772  25.843  19.058  1.00  0.00     0.037 C 
BRANCH   8   9
HETATM    9  C   LIG     1      28.269  26.115  18.667  1.00  0.00     0.053 C 
HETATM   10  C   LIG     1      28.683  25.250  17.460  1.00  0.00     0.045 C 
HETATM   11  C   LIG     1      28.516  27.600  18.295  1.00  0.00     0.045 C 
BRANCH   9  12
HETATM   12  O   LIG     1      29.133  25.700  19.729  1.00  0.00    -0.386 OA
HETATM   13  C   LIG     1      30.442  26.235  19.660  1.00  0.00     0.202 C 
ENDBRANCH   9  12
ENDBRANCH   8   9
ENDBRANCH   7   8
ENDBRANCH   6   7
ENDBRANCH   4   6
ENDBRANCH   3   4
ENDBRANCH   2   3
BRANCH   1  14
HETATM   14  C   LIG     1      23.251  20.929  19.659  1.00  0.00    -0.057 C 
HETATM   15  C   LIG     1      23.609  21.031  18.365  1.00  0.00     0.089 C 
HETATM   16  C   LIG     1      23.292  19.637  20.429  1.00  0.00     0.048 C 
BRANCH  15  17
HETATM   17  C   LIG     1      24.130  19.937  17.518  1.00  0.00     0.283 C 
HETATM   18  O   LIG     1      25.321  20.013  17.111  1.00  0.00    -0.260 OA
BRANCH  17  19
HETATM   19  O   LIG     1      23.323  18.849  17.152  1.00  0.00    -0.313 OA
BRANCH  19  20
HETATM   20  C   LIG     1      21.937  18.913  16.796  1.00  0.00     0.124 C 
HETATM   21  C   LIG     1      21.710  18.519  15.333  1.00  0.00     0.040 C 
HETATM   22  C   LIG     1      21.077  18.085  17.755  1.00  0.00     0.040 C 
ENDBRANCH  19  20
ENDBRANCH  17  19
ENDBRANCH  15  17
ENDBRANCH   1  14
TORSDOF 11
ENDMDL
MODEL 16
REMARK VINA RESULT:      -5.2      4.573      9.271
REMARK  11 active torsions:
REMARK  status: ('A' for Active; 'I' for Inactive)
REMARK    1  A    between atoms: C_2  and  C_7 
REMARK    2  A    between atoms: C_2  and  O_3 
REMARK    3  A    between atoms: O_3  and  C_4 
REMARK    4  A    between atoms: C_8  and  C_10 
REMARK    5  A    between atoms: C_11  and  C_12 
REMARK    6  A    between atoms: C_12  and  C_13 
REMARK    7  A    between atoms: C_13  and  C_15 
REMARK    8  A    between atoms: C_15  and  C_16 
REMARK    9  A    between atoms: C_16  and  C_17 
REMARK   10  A    between atoms: C_17  and  C_18 
REMARK   11  A    between atoms: C_18  and  O_19 
ROOT
HETATM    1  C   LIG     1      17.071  39.530  22.543  1.00  0.00     0.003 C 
HETATM    2  C   LIG     1      18.170  39.683  21.796  1.00  0.00    -0.026 C 
ENDROOT
BRANCH   2   3
HETATM    3  C   LIG     1      19.020  38.521  21.336  1.00  0.00     0.031 C 
BRANCH   3   4
HETATM    4  C   LIG     1      19.102  38.368  19.798  1.00  0.00    -0.015 C 
HETATM    5  C   LIG     1      20.403  38.968  19.238  1.00  0.00     0.010 C 
BRANCH   4   6
HETATM    6  C   LIG     1      18.894  36.895  19.364  1.00  0.00     0.004 C 
BRANCH   6   7
HETATM    7  C   LIG     1      18.062  36.034  20.337  1.00  0.00     0.003 C 
BRANCH   7   8
HETATM    8  C   LIG     1      16.522  36.082  20.174  1.00  0.00     0.037 C 
BRANCH   8   9
HETATM    9  C   LIG     1      15.718  34.733  20.169  1.00  0.00     0.053 C 
HETATM   10  C   LIG     1      15.122  34.458  18.774  1.00  0.00     0.045 C 
HETATM   11  C   LIG     1      16.606  33.521  20.555  1.00  0.00     0.045 C 
BRANCH   9  12
HETATM   12  O   LIG     1      14.586  34.839  21.038  1.00  0.00    -0.386 OA
HETATM   13  C   LIG     1      14.222  33.626  21.672  1.00  0.00     0.202 C 
ENDBRANCH   9  12
ENDBRANCH   8   9
ENDBRANCH   7   8
ENDBRANCH   6   7
ENDBRANCH   4   6
ENDBRANCH   3   4
ENDBRANCH   2   3
BRANCH   1  14
HETATM   14  C   LIG     1      16.600  38.222  23.043  1.00  0.00    -0.057 C 
HETATM   15  C   LIG     1      17.481  37.435  23.689  1.00  0.00     0.089 C 
HETATM   16  C   LIG     1      15.179  37.816  22.761  1.00  0.00     0.048 C 
BRANCH  15  17
HETATM   17  C   LIG     1      17.201  36.098  24.254  1.00  0.00     0.283 C 
HETATM   18  O   LIG     1      17.147  35.116  23.466  1.00  0.00    -0.260 OA
BRANCH  17  19
HETATM   19  O   LIG     1      16.981  35.917  25.628  1.00  0.00    -0.313 OA
BRANCH  19  20
HETATM   20  C   LIG     1      17.994  35.845  26.639  1.00  0.00     0.124 C 
HETATM   21  C   LIG     1      18.811  34.554  26.529  1.00  0.00     0.040 C 
HETATM   22  C   LIG     1      18.882  37.092  26.628  1.00  0.00     0.040 C 
ENDBRANCH  19  20
ENDBRANCH  17  19
ENDBRANCH  15  17
ENDBRANCH   1  14
TORSDOF 11
ENDMDL
