REMARK  1 active torsions:
REMARK  status: ('A' for Active; 'I' for Inactive)
REMARK    1  A    between atoms: C_5  and  C_9 
ROOT
HETATM    1 CL   LIG     1       0.748   2.746  -0.156  1.00  0.00    -0.083 Cl
HETATM    2  C   LIG     1       1.490   1.150  -0.135  1.00  0.00     0.045 A 
HETATM    3  C   LIG     1       2.885   1.053  -0.208  1.00  0.00     0.026 A 
HETATM    4  C   LIG     1       3.506  -0.199  -0.183  1.00  0.00     0.025 A 
HETATM    5  C   LIG     1       0.711  -0.020  -0.038  1.00  0.00     0.001 A 
HETATM    6  C   LIG     1       1.342  -1.273  -0.012  1.00  0.00     0.038 A 
HETATM    7  C   LIG     1       2.736  -1.361  -0.085  1.00  0.00     0.035 A 
HETATM    8 CL   LIG     1       3.518  -2.931  -0.052  1.00  0.00    -0.084 Cl
ENDROOT
BRANCH   5   9
HETATM    9  C   LIG     1      -0.763   0.049   0.038  1.00  0.00     0.019 A 
HETATM   10  C   LIG     1      -1.531   0.179  -1.137  1.00  0.00     0.046 A 
HETATM   11  C   LIG     1      -2.926   0.243  -1.056  1.00  0.00     0.025 A 
HETATM   12 CL   LIG     1      -0.774   0.254  -2.725  1.00  0.00    -0.083 Cl
HETATM   13  C   LIG     1      -3.563   0.178   0.185  1.00  0.00     0.003 A 
HETATM   14  C   LIG     1      -2.809   0.047   1.352  1.00  0.00     0.025 A 
HETATM   15  C   LIG     1      -1.413  -0.019   1.288  1.00  0.00     0.046 A 
HETATM   16 CL   LIG     1      -0.505  -0.174   2.788  1.00  0.00    -0.083 Cl
ENDBRANCH   5   9
TORSDOF 1
