MODEL 1
REMARK VINA RESULT:      -6.5      0.000      0.000
REMARK  1 active torsions:
REMARK  status: ('A' for Active; 'I' for Inactive)
REMARK    1  A    between atoms: C_7  and  C_8 
ROOT
HETATM    1 CL   LIG     1      18.589  34.806  26.858  1.00  0.00    -0.084 Cl
HETATM    2  C   LIG     1      17.911  35.962  25.725  1.00  0.00     0.035 A 
HETATM    3  C   LIG     1      17.650  37.273  26.135  1.00  0.00     0.025 A 
HETATM    4  C   LIG     1      17.110  38.194  25.234  1.00  0.00     0.026 A 
HETATM    5  C   LIG     1      16.825  37.811  23.917  1.00  0.00     0.045 A 
HETATM    6 CL   LIG     1      16.176  39.017  22.811  1.00  0.00    -0.083 Cl
HETATM    7  C   LIG     1      17.087  36.490  23.498  1.00  0.00    -0.001 A 
HETATM    8  C   LIG     1      17.628  35.571  24.412  1.00  0.00     0.038 A 
ENDROOT
BRANCH   7   9
HETATM    9  C   LIG     1      16.783  36.047  22.120  1.00  0.00    -0.001 A 
HETATM   10  C   LIG     1      15.769  35.100  21.914  1.00  0.00     0.014 A 
HETATM   11  C   LIG     1      15.472  34.652  20.626  1.00  0.00     0.003 A 
HETATM   12  C   LIG     1      16.185  35.144  19.532  1.00  0.00     0.026 A 
HETATM   13  C   LIG     1      17.199  36.090  19.718  1.00  0.00     0.056 A 
HETATM   14 CL   LIG     1      18.065  36.685  18.308  1.00  0.00    -0.083 Cl
HETATM   15  C   LIG     1      17.506  36.548  21.013  1.00  0.00     0.066 A 
HETATM   16 CL   LIG     1      18.763  37.767  21.240  1.00  0.00    -0.082 Cl
ENDBRANCH   7   9
TORSDOF 1
ENDMDL
MODEL 2
REMARK VINA RESULT:      -6.2      1.798      5.326
REMARK  1 active torsions:
REMARK  status: ('A' for Active; 'I' for Inactive)
REMARK    1  A    between atoms: C_7  and  C_8 
ROOT
HETATM    1 CL   LIG     1      14.237  32.956  21.277  1.00  0.00    -0.084 Cl
HETATM    2  C   LIG     1      15.363  34.294  21.134  1.00  0.00     0.035 A 
HETATM    3  C   LIG     1      15.943  34.591  19.898  1.00  0.00     0.025 A 
HETATM    4  C   LIG     1      16.840  35.656  19.782  1.00  0.00     0.026 A 
HETATM    5  C   LIG     1      17.164  36.432  20.902  1.00  0.00     0.045 A 
HETATM    6 CL   LIG     1      18.274  37.783  20.699  1.00  0.00    -0.083 Cl
HETATM    7  C   LIG     1      16.581  36.136  22.153  1.00  0.00    -0.001 A 
HETATM    8  C   LIG     1      15.682  35.062  22.258  1.00  0.00     0.038 A 
ENDROOT
BRANCH   7   9
HETATM    9  C   LIG     1      16.913  36.924  23.359  1.00  0.00    -0.001 A 
HETATM   10  C   LIG     1      16.752  38.318  23.331  1.00  0.00     0.014 A 
HETATM   11  C   LIG     1      17.073  39.089  24.449  1.00  0.00     0.003 A 
HETATM   12  C   LIG     1      17.558  38.477  25.605  1.00  0.00     0.026 A 
HETATM   13  C   LIG     1      17.724  37.089  25.653  1.00  0.00     0.056 A 
HETATM   14 CL   LIG     1      18.332  36.362  27.134  1.00  0.00    -0.083 Cl
HETATM   15  C   LIG     1      17.403  36.303  24.530  1.00  0.00     0.066 A 
HETATM   16 CL   LIG     1      17.581  34.547  24.606  1.00  0.00    -0.082 Cl
ENDBRANCH   7   9
TORSDOF 1
ENDMDL
MODEL 3
REMARK VINA RESULT:      -6.0      1.764      5.183
REMARK  1 active torsions:
REMARK  status: ('A' for Active; 'I' for Inactive)
REMARK    1  A    between atoms: C_7  and  C_8 
ROOT
HETATM    1 CL   LIG     1      14.555  32.687  20.505  1.00  0.00    -0.084 Cl
HETATM    2  C   LIG     1      15.586  34.083  20.759  1.00  0.00     0.035 A 
HETATM    3  C   LIG     1      16.048  34.820  19.665  1.00  0.00     0.025 A 
HETATM    4  C   LIG     1      16.870  35.932  19.866  1.00  0.00     0.026 A 
HETATM    5  C   LIG     1      17.237  36.315  21.162  1.00  0.00     0.045 A 
HETATM    6 CL   LIG     1      18.247  37.743  21.365  1.00  0.00    -0.083 Cl
HETATM    7  C   LIG     1      16.773  35.575  22.270  1.00  0.00    -0.001 A 
HETATM    8  C   LIG     1      15.949  34.458  22.057  1.00  0.00     0.038 A 
ENDROOT
BRANCH   7   9
HETATM    9  C   LIG     1      17.154  35.941  23.651  1.00  0.00    -0.001 A 
HETATM   10  C   LIG     1      17.682  34.956  24.499  1.00  0.00     0.014 A 
HETATM   11  C   LIG     1      18.034  35.268  25.812  1.00  0.00     0.003 A 
HETATM   12  C   LIG     1      17.864  36.567  26.292  1.00  0.00     0.026 A 
HETATM   13  C   LIG     1      17.340  37.564  25.461  1.00  0.00     0.056 A 
HETATM   14 CL   LIG     1      17.149  39.188  26.109  1.00  0.00    -0.083 Cl
HETATM   15  C   LIG     1      16.981  37.258  24.135  1.00  0.00     0.066 A 
HETATM   16 CL   LIG     1      16.354  38.526  23.079  1.00  0.00    -0.082 Cl
ENDBRANCH   7   9
TORSDOF 1
ENDMDL
MODEL 4
REMARK VINA RESULT:      -6.0      2.521      5.015
REMARK  1 active torsions:
REMARK  status: ('A' for Active; 'I' for Inactive)
REMARK    1  A    between atoms: C_7  and  C_8 
ROOT
HETATM    1 CL   LIG     1      14.930  34.020  17.686  1.00  0.00    -0.084 Cl
HETATM    2  C   LIG     1      15.503  34.350  19.311  1.00  0.00     0.035 A 
HETATM    3  C   LIG     1      15.276  33.426  20.334  1.00  0.00     0.025 A 
HETATM    4  C   LIG     1      15.732  33.687  21.629  1.00  0.00     0.026 A 
HETATM    5  C   LIG     1      16.417  34.875  21.911  1.00  0.00     0.045 A 
HETATM    6 CL   LIG     1      16.999  35.145  23.550  1.00  0.00    -0.083 Cl
HETATM    7  C   LIG     1      16.649  35.812  20.881  1.00  0.00    -0.001 A 
HETATM    8  C   LIG     1      16.185  35.540  19.584  1.00  0.00     0.038 A 
ENDROOT
BRANCH   7   9
HETATM    9  C   LIG     1      17.355  37.084  21.147  1.00  0.00    -0.001 A 
HETATM   10  C   LIG     1      16.892  37.922  22.173  1.00  0.00     0.014 A 
HETATM   11  C   LIG     1      17.528  39.135  22.436  1.00  0.00     0.003 A 
HETATM   12  C   LIG     1      18.632  39.525  21.676  1.00  0.00     0.026 A 
HETATM   13  C   LIG     1      19.108  38.703  20.650  1.00  0.00     0.056 A 
HETATM   14 CL   LIG     1      20.506  39.235  19.723  1.00  0.00    -0.083 Cl
HETATM   15  C   LIG     1      18.473  37.477  20.377  1.00  0.00     0.066 A 
HETATM   16 CL   LIG     1      19.099  36.427  19.103  1.00  0.00    -0.082 Cl
ENDBRANCH   7   9
TORSDOF 1
ENDMDL
MODEL 5
REMARK VINA RESULT:      -5.7      1.590      2.126
REMARK  1 active torsions:
REMARK  status: ('A' for Active; 'I' for Inactive)
REMARK    1  A    between atoms: C_7  and  C_8 
ROOT
HETATM    1 CL   LIG     1      17.650  34.686  26.435  1.00  0.00    -0.084 Cl
HETATM    2  C   LIG     1      17.459  36.024  25.316  1.00  0.00     0.035 A 
HETATM    3  C   LIG     1      17.230  37.314  25.803  1.00  0.00     0.025 A 
HETATM    4  C   LIG     1      17.077  38.381  24.913  1.00  0.00     0.026 A 
HETATM    5  C   LIG     1      17.150  38.166  23.532  1.00  0.00     0.045 A 
HETATM    6 CL   LIG     1      16.983  39.547  22.453  1.00  0.00    -0.083 Cl
HETATM    7  C   LIG     1      17.381  36.865  23.036  1.00  0.00    -0.001 A 
HETATM    8  C   LIG     1      17.532  35.800  23.938  1.00  0.00     0.038 A 
ENDROOT
BRANCH   7   9
HETATM    9  C   LIG     1      17.448  36.599  21.583  1.00  0.00    -0.001 A 
HETATM   10  C   LIG     1      18.500  37.150  20.835  1.00  0.00     0.014 A 
HETATM   11  C   LIG     1      18.581  36.929  19.460  1.00  0.00     0.003 A 
HETATM   12  C   LIG     1      17.612  36.158  18.817  1.00  0.00     0.026 A 
HETATM   13  C   LIG     1      16.556  35.600  19.546  1.00  0.00     0.056 A 
HETATM   14 CL   LIG     1      15.362  34.630  18.693  1.00  0.00    -0.083 Cl
HETATM   15  C   LIG     1      16.466  35.817  20.933  1.00  0.00     0.066 A 
HETATM   16 CL   LIG     1      15.152  35.082  21.855  1.00  0.00    -0.082 Cl
ENDBRANCH   7   9
TORSDOF 1
ENDMDL
MODEL 6
REMARK VINA RESULT:      -5.1     15.168     16.214
REMARK  1 active torsions:
REMARK  status: ('A' for Active; 'I' for Inactive)
REMARK    1  A    between atoms: C_7  and  C_8 
ROOT
HETATM    1 CL   LIG     1      27.946  27.169  18.777  1.00  0.00    -0.084 Cl
HETATM    2  C   LIG     1      27.695  25.727  19.743  1.00  0.00     0.035 A 
HETATM    3  C   LIG     1      28.737  25.216  20.522  1.00  0.00     0.025 A 
HETATM    4  C   LIG     1      28.538  24.067  21.292  1.00  0.00     0.026 A 
HETATM    5  C   LIG     1      27.297  23.419  21.288  1.00  0.00     0.045 A 
HETATM    6 CL   LIG     1      27.086  21.994  22.299  1.00  0.00    -0.083 Cl
HETATM    7  C   LIG     1      26.241  23.931  20.503  1.00  0.00    -0.001 A 
HETATM    8  C   LIG     1      26.452  25.085  19.732  1.00  0.00     0.038 A 
ENDROOT
BRANCH   7   9
HETATM    9  C   LIG     1      24.922  23.263  20.462  1.00  0.00    -0.001 A 
HETATM   10  C   LIG     1      24.004  23.501  21.496  1.00  0.00     0.014 A 
HETATM   11  C   LIG     1      22.758  22.872  21.493  1.00  0.00     0.003 A 
HETATM   12  C   LIG     1      22.417  22.000  20.459  1.00  0.00     0.026 A 
HETATM   13  C   LIG     1      23.320  21.751  19.419  1.00  0.00     0.056 A 
HETATM   14 CL   LIG     1      22.843  20.649  18.134  1.00  0.00    -0.083 Cl
HETATM   15  C   LIG     1      24.579  22.380  19.413  1.00  0.00     0.066 A 
HETATM   16 CL   LIG     1      25.701  22.091  18.081  1.00  0.00    -0.082 Cl
ENDBRANCH   7   9
TORSDOF 1
ENDMDL
MODEL 7
REMARK VINA RESULT:      -5.0     15.516     16.892
REMARK  1 active torsions:
REMARK  status: ('A' for Active; 'I' for Inactive)
REMARK    1  A    between atoms: C_7  and  C_8 
ROOT
HETATM    1 CL   LIG     1      28.018  27.289  18.626  1.00  0.00    -0.084 Cl
HETATM    2  C   LIG     1      27.847  25.556  18.415  1.00  0.00     0.035 A 
HETATM    3  C   LIG     1      28.893  24.812  17.862  1.00  0.00     0.025 A 
HETATM    4  C   LIG     1      28.758  23.432  17.693  1.00  0.00     0.026 A 
HETATM    5  C   LIG     1      27.576  22.785  18.074  1.00  0.00     0.045 A 
HETATM    6 CL   LIG     1      27.467  21.040  17.871  1.00  0.00    -0.083 Cl
HETATM    7  C   LIG     1      26.517  23.532  18.633  1.00  0.00    -0.001 A 
HETATM    8  C   LIG     1      26.662  24.919  18.797  1.00  0.00     0.038 A 
ENDROOT
BRANCH   7   9
HETATM    9  C   LIG     1      25.249  22.884  19.032  1.00  0.00    -0.001 A 
HETATM   10  C   LIG     1      24.349  22.473  18.037  1.00  0.00     0.014 A 
HETATM   11  C   LIG     1      23.138  21.873  18.384  1.00  0.00     0.003 A 
HETATM   12  C   LIG     1      22.813  21.679  19.727  1.00  0.00     0.026 A 
HETATM   13  C   LIG     1      23.698  22.081  20.732  1.00  0.00     0.056 A 
HETATM   14 CL   LIG     1      23.246  21.810  22.411  1.00  0.00    -0.083 Cl
HETATM   15  C   LIG     1      24.922  22.687  20.393  1.00  0.00     0.066 A 
HETATM   16 CL   LIG     1      26.051  23.161  21.664  1.00  0.00    -0.082 Cl
ENDBRANCH   7   9
TORSDOF 1
ENDMDL
MODEL 8
REMARK VINA RESULT:      -5.0     15.519     16.974
REMARK  1 active torsions:
REMARK  status: ('A' for Active; 'I' for Inactive)
REMARK    1  A    between atoms: C_7  and  C_8 
ROOT
HETATM    1 CL   LIG     1      25.056  19.431  16.490  1.00  0.00    -0.084 Cl
HETATM    2  C   LIG     1      24.570  20.486  17.805  1.00  0.00     0.035 A 
HETATM    3  C   LIG     1      23.384  20.237  18.500  1.00  0.00     0.025 A 
HETATM    4  C   LIG     1      22.996  21.077  19.547  1.00  0.00     0.026 A 
HETATM    5  C   LIG     1      23.790  22.172  19.907  1.00  0.00     0.045 A 
HETATM    6 CL   LIG     1      23.275  23.181  21.254  1.00  0.00    -0.083 Cl
HETATM    7  C   LIG     1      24.989  22.428  19.208  1.00  0.00    -0.001 A 
HETATM    8  C   LIG     1      25.369  21.579  18.156  1.00  0.00     0.038 A 
ENDROOT
BRANCH   7   9
HETATM    9  C   LIG     1      25.844  23.586  19.550  1.00  0.00    -0.001 A 
HETATM   10  C   LIG     1      25.834  24.714  18.716  1.00  0.00     0.014 A 
HETATM   11  C   LIG     1      26.642  25.813  19.005  1.00  0.00     0.003 A 
HETATM   12  C   LIG     1      27.469  25.798  20.129  1.00  0.00     0.026 A 
HETATM   13  C   LIG     1      27.492  24.683  20.973  1.00  0.00     0.056 A 
HETATM   14 CL   LIG     1      28.546  24.713  22.381  1.00  0.00    -0.083 Cl
HETATM   15  C   LIG     1      26.680  23.569  20.690  1.00  0.00     0.066 A 
HETATM   16 CL   LIG     1      26.686  22.177  21.777  1.00  0.00    -0.082 Cl
ENDBRANCH   7   9
TORSDOF 1
ENDMDL
MODEL 9
REMARK VINA RESULT:      -4.9     15.514     16.460
REMARK  1 active torsions:
REMARK  status: ('A' for Active; 'I' for Inactive)
REMARK    1  A    between atoms: C_7  and  C_8 
ROOT
HETATM    1 CL   LIG     1      24.691  22.379  24.686  1.00  0.00    -0.084 Cl
HETATM    2  C   LIG     1      24.354  22.315  22.965  1.00  0.00     0.035 A 
HETATM    3  C   LIG     1      23.207  21.664  22.501  1.00  0.00     0.025 A 
HETATM    4  C   LIG     1      22.938  21.611  21.131  1.00  0.00     0.026 A 
HETATM    5  C   LIG     1      23.813  22.208  20.215  1.00  0.00     0.045 A 
HETATM    6 CL   LIG     1      23.413  22.143  18.502  1.00  0.00    -0.083 Cl
HETATM    7  C   LIG     1      24.971  22.866  20.679  1.00  0.00    -0.001 A 
HETATM    8  C   LIG     1      25.234  22.912  22.058  1.00  0.00     0.038 A 
ENDROOT
BRANCH   7   9
HETATM    9  C   LIG     1      25.925  23.494  19.738  1.00  0.00    -0.001 A 
HETATM   10  C   LIG     1      25.940  24.891  19.610  1.00  0.00     0.014 A 
HETATM   11  C   LIG     1      26.817  25.510  18.719  1.00  0.00     0.003 A 
HETATM   12  C   LIG     1      27.688  24.740  17.947  1.00  0.00     0.026 A 
HETATM   13  C   LIG     1      27.689  23.346  18.062  1.00  0.00     0.056 A 
HETATM   14 CL   LIG     1      28.808  22.419  17.072  1.00  0.00    -0.083 Cl
HETATM   15  C   LIG     1      26.807  22.713  18.957  1.00  0.00     0.066 A 
HETATM   16 CL   LIG     1      26.835  20.955  19.124  1.00  0.00    -0.082 Cl
ENDBRANCH   7   9
TORSDOF 1
ENDMDL
MODEL 10
REMARK VINA RESULT:      -4.8     15.615     16.546
REMARK  1 active torsions:
REMARK  status: ('A' for Active; 'I' for Inactive)
REMARK    1  A    between atoms: C_7  and  C_8 
ROOT
HETATM    1 CL   LIG     1      24.855  22.813  24.262  1.00  0.00    -0.084 Cl
HETATM    2  C   LIG     1      24.463  22.592  22.566  1.00  0.00     0.035 A 
HETATM    3  C   LIG     1      23.146  22.323  22.183  1.00  0.00     0.025 A 
HETATM    4  C   LIG     1      22.831  22.146  20.833  1.00  0.00     0.026 A 
HETATM    5  C   LIG     1      23.831  22.236  19.857  1.00  0.00     0.045 A 
HETATM    6 CL   LIG     1      23.379  22.038  18.167  1.00  0.00    -0.083 Cl
HETATM    7  C   LIG     1      25.162  22.508  20.238  1.00  0.00    -0.001 A 
HETATM    8  C   LIG     1      25.467  22.682  21.598  1.00  0.00     0.038 A 
ENDROOT
BRANCH   7   9
HETATM    9  C   LIG     1      26.245  22.594  19.235  1.00  0.00    -0.001 A 
HETATM   10  C   LIG     1      26.790  21.410  18.714  1.00  0.00     0.014 A 
HETATM   11  C   LIG     1      27.824  21.460  17.779  1.00  0.00     0.003 A 
HETATM   12  C   LIG     1      28.325  22.692  17.355  1.00  0.00     0.026 A 
HETATM   13  C   LIG     1      27.794  23.882  17.863  1.00  0.00     0.056 A 
HETATM   14 CL   LIG     1      28.454  25.410  17.294  1.00  0.00    -0.083 Cl
HETATM   15  C   LIG     1      26.751  23.842  18.807  1.00  0.00     0.066 A 
HETATM   16 CL   LIG     1      26.060  25.347  19.419  1.00  0.00    -0.082 Cl
ENDBRANCH   7   9
TORSDOF 1
ENDMDL
MODEL 11
REMARK VINA RESULT:      -4.8     15.316     16.463
REMARK  1 active torsions:
REMARK  status: ('A' for Active; 'I' for Inactive)
REMARK    1  A    between atoms: C_7  and  C_8 
ROOT
HETATM    1 CL   LIG     1      21.681  22.808  21.287  1.00  0.00    -0.084 Cl
HETATM    2  C   LIG     1      23.293  22.389  20.736  1.00  0.00     0.035 A 
HETATM    3  C   LIG     1      23.531  21.139  20.157  1.00  0.00     0.025 A 
HETATM    4  C   LIG     1      24.814  20.803  19.719  1.00  0.00     0.026 A 
HETATM    5  C   LIG     1      25.869  21.713  19.857  1.00  0.00     0.045 A 
HETATM    6 CL   LIG     1      27.461  21.255  19.260  1.00  0.00    -0.083 Cl
HETATM    7  C   LIG     1      25.634  22.976  20.441  1.00  0.00    -0.001 A 
HETATM    8  C   LIG     1      24.341  23.303  20.880  1.00  0.00     0.038 A 
ENDROOT
BRANCH   7   9
HETATM    9  C   LIG     1      26.729  23.955  20.617  1.00  0.00    -0.001 A 
HETATM   10  C   LIG     1      27.482  23.933  21.801  1.00  0.00     0.014 A 
HETATM   11  C   LIG     1      28.509  24.855  22.001  1.00  0.00     0.003 A 
HETATM   12  C   LIG     1      28.795  25.808  21.023  1.00  0.00     0.026 A 
HETATM   13  C   LIG     1      28.056  25.845  19.836  1.00  0.00     0.056 A 
HETATM   14 CL   LIG     1      28.458  27.060  18.629  1.00  0.00    -0.083 Cl
HETATM   15  C   LIG     1      27.017  24.919  19.624  1.00  0.00     0.066 A 
HETATM   16 CL   LIG     1      26.110  24.946  18.110  1.00  0.00    -0.082 Cl
ENDBRANCH   7   9
TORSDOF 1
ENDMDL
MODEL 12
REMARK VINA RESULT:      -4.7      2.863      5.164
REMARK  1 active torsions:
REMARK  status: ('A' for Active; 'I' for Inactive)
REMARK    1  A    between atoms: C_7  and  C_8 
ROOT
HETATM    1 CL   LIG     1      14.685  33.501  17.832  1.00  0.00    -0.084 Cl
HETATM    2  C   LIG     1      15.387  34.064  19.338  1.00  0.00     0.035 A 
HETATM    3  C   LIG     1      15.019  33.469  20.547  1.00  0.00     0.025 A 
HETATM    4  C   LIG     1      15.577  33.917  21.747  1.00  0.00     0.026 A 
HETATM    5  C   LIG     1      16.506  34.964  21.747  1.00  0.00     0.045 A 
HETATM    6 CL   LIG     1      17.206  35.471  23.281  1.00  0.00    -0.083 Cl
HETATM    7  C   LIG     1      16.882  35.568  20.529  1.00  0.00    -0.001 A 
HETATM    8  C   LIG     1      16.314  35.112  19.328  1.00  0.00     0.038 A 
ENDROOT
BRANCH   7   9
HETATM    9  C   LIG     1      17.849  36.687  20.493  1.00  0.00    -0.001 A 
HETATM   10  C   LIG     1      18.989  36.579  19.682  1.00  0.00     0.014 A 
HETATM   11  C   LIG     1      19.926  37.612  19.641  1.00  0.00     0.003 A 
HETATM   12  C   LIG     1      19.736  38.761  20.409  1.00  0.00     0.026 A 
HETATM   13  C   LIG     1      18.605  38.887  21.223  1.00  0.00     0.056 A 
HETATM   14 CL   LIG     1      18.405  40.357  22.168  1.00  0.00    -0.083 Cl
HETATM   15  C   LIG     1      17.654  37.851  21.271  1.00  0.00     0.066 A 
HETATM   16 CL   LIG     1      16.210  38.028  22.273  1.00  0.00    -0.082 Cl
ENDBRANCH   7   9
TORSDOF 1
ENDMDL
MODEL 13
REMARK VINA RESULT:      -4.6     15.310     16.610
REMARK  1 active torsions:
REMARK  status: ('A' for Active; 'I' for Inactive)
REMARK    1  A    between atoms: C_7  and  C_8 
ROOT
HETATM    1 CL   LIG     1      21.939  22.445  21.629  1.00  0.00    -0.084 Cl
HETATM    2  C   LIG     1      23.329  22.314  20.567  1.00  0.00     0.035 A 
HETATM    3  C   LIG     1      23.431  21.240  19.678  1.00  0.00     0.025 A 
HETATM    4  C   LIG     1      24.538  21.135  18.832  1.00  0.00     0.026 A 
HETATM    5  C   LIG     1      25.551  22.100  18.869  1.00  0.00     0.045 A 
HETATM    6 CL   LIG     1      26.910  21.940  17.761  1.00  0.00    -0.083 Cl
HETATM    7  C   LIG     1      25.453  23.186  19.765  1.00  0.00    -0.001 A 
HETATM    8  C   LIG     1      24.337  23.282  20.612  1.00  0.00     0.038 A 
ENDROOT
BRANCH   7   9
HETATM    9  C   LIG     1      26.512  24.215  19.842  1.00  0.00    -0.001 A 
HETATM   10  C   LIG     1      26.467  25.310  18.966  1.00  0.00     0.014 A 
HETATM   11  C   LIG     1      27.462  26.287  19.005  1.00  0.00     0.003 A 
HETATM   12  C   LIG     1      28.511  26.182  19.918  1.00  0.00     0.026 A 
HETATM   13  C   LIG     1      28.572  25.098  20.801  1.00  0.00     0.056 A 
HETATM   14 CL   LIG     1      29.911  25.012  21.938  1.00  0.00    -0.083 Cl
HETATM   15  C   LIG     1      27.574  24.107  20.769  1.00  0.00     0.066 A 
HETATM   16 CL   LIG     1      27.637  22.759  21.908  1.00  0.00    -0.082 Cl
ENDBRANCH   7   9
TORSDOF 1
ENDMDL
MODEL 14
REMARK VINA RESULT:      -4.6     16.198     17.730
REMARK  1 active torsions:
REMARK  status: ('A' for Active; 'I' for Inactive)
REMARK    1  A    between atoms: C_7  and  C_8 
ROOT
HETATM    1 CL   LIG     1      22.438  20.089  18.084  1.00  0.00    -0.084 Cl
HETATM    2  C   LIG     1      24.110  20.580  17.880  1.00  0.00     0.035 A 
HETATM    3  C   LIG     1      24.984  19.791  17.127  1.00  0.00     0.025 A 
HETATM    4  C   LIG     1      26.316  20.181  16.964  1.00  0.00     0.026 A 
HETATM    5  C   LIG     1      26.784  21.362  17.553  1.00  0.00     0.045 A 
HETATM    6 CL   LIG     1      28.461  21.827  17.292  1.00  0.00    -0.083 Cl
HETATM    7  C   LIG     1      25.905  22.162  18.314  1.00  0.00    -0.001 A 
HETATM    8  C   LIG     1      24.569  21.760  18.473  1.00  0.00     0.038 A 
ENDROOT
BRANCH   7   9
HETATM    9  C   LIG     1      26.370  23.407  18.964  1.00  0.00    -0.001 A 
HETATM   10  C   LIG     1      26.273  24.620  18.265  1.00  0.00     0.014 A 
HETATM   11  C   LIG     1      26.718  25.808  18.846  1.00  0.00     0.003 A 
HETATM   12  C   LIG     1      27.265  25.796  20.129  1.00  0.00     0.026 A 
HETATM   13  C   LIG     1      27.369  24.597  20.842  1.00  0.00     0.056 A 
HETATM   14 CL   LIG     1      28.060  24.634  22.459  1.00  0.00    -0.083 Cl
HETATM   15  C   LIG     1      26.923  23.394  20.264  1.00  0.00     0.066 A 
HETATM   16 CL   LIG     1      27.024  21.888  21.181  1.00  0.00    -0.082 Cl
ENDBRANCH   7   9
TORSDOF 1
ENDMDL
MODEL 15
REMARK VINA RESULT:      -4.5     15.314     17.040
REMARK  1 active torsions:
REMARK  status: ('A' for Active; 'I' for Inactive)
REMARK    1  A    between atoms: C_7  and  C_8 
ROOT
HETATM    1 CL   LIG     1      22.020  22.804  20.920  1.00  0.00    -0.084 Cl
HETATM    2  C   LIG     1      23.175  22.042  21.998  1.00  0.00     0.035 A 
HETATM    3  C   LIG     1      23.223  20.649  22.101  1.00  0.00     0.025 A 
HETATM    4  C   LIG     1      24.142  20.041  22.959  1.00  0.00     0.026 A 
HETATM    5  C   LIG     1      25.021  20.820  23.721  1.00  0.00     0.045 A 
HETATM    6 CL   LIG     1      26.183  20.006  24.763  1.00  0.00    -0.083 Cl
HETATM    7  C   LIG     1      24.977  22.227  23.621  1.00  0.00    -0.001 A 
HETATM    8  C   LIG     1      24.048  22.829  22.757  1.00  0.00     0.038 A 
ENDROOT
BRANCH   7   9
HETATM    9  C   LIG     1      25.880  23.081  24.423  1.00  0.00    -0.001 A 
HETATM   10  C   LIG     1      26.993  23.669  23.805  1.00  0.00     0.014 A 
HETATM   11  C   LIG     1      27.871  24.467  24.540  1.00  0.00     0.003 A 
HETATM   12  C   LIG     1      27.646  24.684  25.900  1.00  0.00     0.026 A 
HETATM   13  C   LIG     1      26.540  24.107  26.534  1.00  0.00     0.056 A 
HETATM   14 CL   LIG     1      26.295  24.416  28.248  1.00  0.00    -0.083 Cl
HETATM   15  C   LIG     1      25.650  23.301  25.800  1.00  0.00     0.066 A 
HETATM   16 CL   LIG     1      24.236  22.603  26.596  1.00  0.00    -0.082 Cl
ENDBRANCH   7   9
TORSDOF 1
ENDMDL
MODEL 16
REMARK VINA RESULT:      -4.4     15.210     16.897
REMARK  1 active torsions:
REMARK  status: ('A' for Active; 'I' for Inactive)
REMARK    1  A    between atoms: C_7  and  C_8 
ROOT
HETATM    1 CL   LIG     1      21.803  22.794  21.039  1.00  0.00    -0.084 Cl
HETATM    2  C   LIG     1      23.023  22.054  22.060  1.00  0.00     0.035 A 
HETATM    3  C   LIG     1      23.114  20.662  22.144  1.00  0.00     0.025 A 
HETATM    4  C   LIG     1      24.085  20.071  22.958  1.00  0.00     0.026 A 
HETATM    5  C   LIG     1      24.971  20.867  23.693  1.00  0.00     0.045 A 
HETATM    6 CL   LIG     1      26.197  20.076  24.678  1.00  0.00    -0.083 Cl
HETATM    7  C   LIG     1      24.883  22.273  23.612  1.00  0.00    -0.001 A 
HETATM    8  C   LIG     1      23.903  22.857  22.793  1.00  0.00     0.038 A 
ENDROOT
BRANCH   7   9
HETATM    9  C   LIG     1      25.792  23.145  24.387  1.00  0.00    -0.001 A 
HETATM   10  C   LIG     1      25.397  23.585  25.659  1.00  0.00     0.014 A 
HETATM   11  C   LIG     1      26.227  24.421  26.407  1.00  0.00     0.003 A 
HETATM   12  C   LIG     1      27.459  24.826  25.892  1.00  0.00     0.026 A 
HETATM   13  C   LIG     1      27.871  24.396  24.627  1.00  0.00     0.056 A 
HETATM   14 CL   LIG     1      29.435  24.929  24.023  1.00  0.00    -0.083 Cl
HETATM   15  C   LIG     1      27.040  23.553  23.865  1.00  0.00     0.066 A 
HETATM   16 CL   LIG     1      27.579  22.985  22.282  1.00  0.00    -0.082 Cl
ENDBRANCH   7   9
TORSDOF 1
ENDMDL
MODEL 17
REMARK VINA RESULT:      -4.2     15.961     17.070
REMARK  1 active torsions:
REMARK  status: ('A' for Active; 'I' for Inactive)
REMARK    1  A    between atoms: C_7  and  C_8 
ROOT
HETATM    1 CL   LIG     1      22.484  20.064  18.141  1.00  0.00    -0.084 Cl
HETATM    2  C   LIG     1      23.506  20.898  19.298  1.00  0.00     0.035 A 
HETATM    3  C   LIG     1      23.374  20.635  20.665  1.00  0.00     0.025 A 
HETATM    4  C   LIG     1      24.187  21.299  21.587  1.00  0.00     0.026 A 
HETATM    5  C   LIG     1      25.136  22.231  21.151  1.00  0.00     0.045 A 
HETATM    6 CL   LIG     1      26.158  23.017  22.350  1.00  0.00    -0.083 Cl
HETATM    7  C   LIG     1      25.273  22.500  19.773  1.00  0.00    -0.001 A 
HETATM    8  C   LIG     1      24.450  21.829  18.854  1.00  0.00     0.038 A 
ENDROOT
BRANCH   7   9
HETATM    9  C   LIG     1      26.254  23.491  19.278  1.00  0.00    -0.001 A 
HETATM   10  C   LIG     1      25.950  24.858  19.368  1.00  0.00     0.014 A 
HETATM   11  C   LIG     1      26.849  25.814  18.895  1.00  0.00     0.003 A 
HETATM   12  C   LIG     1      28.059  25.415  18.327  1.00  0.00     0.026 A 
HETATM   13  C   LIG     1      28.381  24.057  18.230  1.00  0.00     0.056 A 
HETATM   14 CL   LIG     1      29.921  23.604  17.512  1.00  0.00    -0.083 Cl
HETATM   15  C   LIG     1      27.480  23.085  18.704  1.00  0.00     0.066 A 
HETATM   16 CL   LIG     1      27.904  21.374  18.612  1.00  0.00    -0.082 Cl
ENDBRANCH   7   9
TORSDOF 1
ENDMDL
MODEL 18
REMARK VINA RESULT:      -4.2     16.153     17.679
REMARK  1 active torsions:
REMARK  status: ('A' for Active; 'I' for Inactive)
REMARK    1  A    between atoms: C_7  and  C_8 
ROOT
HETATM    1 CL   LIG     1      22.063  18.572  18.992  1.00  0.00    -0.084 Cl
HETATM    2  C   LIG     1      23.029  20.025  19.179  1.00  0.00     0.035 A 
HETATM    3  C   LIG     1      23.225  20.878  18.089  1.00  0.00     0.025 A 
HETATM    4  C   LIG     1      23.994  22.035  18.236  1.00  0.00     0.026 A 
HETATM    5  C   LIG     1      24.573  22.348  19.472  1.00  0.00     0.045 A 
HETATM    6 CL   LIG     1      25.507  23.834  19.614  1.00  0.00    -0.083 Cl
HETATM    7  C   LIG     1      24.378  21.490  20.575  1.00  0.00    -0.001 A 
HETATM    8  C   LIG     1      23.604  20.328  20.416  1.00  0.00     0.038 A 
ENDROOT
BRANCH   7   9
HETATM    9  C   LIG     1      24.988  21.780  21.890  1.00  0.00    -0.001 A 
HETATM   10  C   LIG     1      24.238  22.474  22.853  1.00  0.00     0.014 A 
HETATM   11  C   LIG     1      24.793  22.777  24.097  1.00  0.00     0.003 A 
HETATM   12  C   LIG     1      26.101  22.390  24.392  1.00  0.00     0.026 A 
HETATM   13  C   LIG     1      26.863  21.697  23.446  1.00  0.00     0.056 A 
HETATM   14 CL   LIG     1      28.505  21.226  23.866  1.00  0.00    -0.083 Cl
HETATM   15  C   LIG     1      26.312  21.388  22.188  1.00  0.00     0.066 A 
HETATM   16 CL   LIG     1      27.265  20.482  21.009  1.00  0.00    -0.082 Cl
ENDBRANCH   7   9
TORSDOF 1
ENDMDL
MODEL 19
REMARK VINA RESULT:      -4.1     16.162     17.484
REMARK  1 active torsions:
REMARK  status: ('A' for Active; 'I' for Inactive)
REMARK    1  A    between atoms: C_7  and  C_8 
ROOT
HETATM    1 CL   LIG     1      22.783  21.676  18.253  1.00  0.00    -0.084 Cl
HETATM    2  C   LIG     1      24.537  21.652  18.280  1.00  0.00     0.035 A 
HETATM    3  C   LIG     1      25.231  20.584  17.706  1.00  0.00     0.025 A 
HETATM    4  C   LIG     1      26.628  20.563  17.727  1.00  0.00     0.026 A 
HETATM    5  C   LIG     1      27.341  21.610  18.323  1.00  0.00     0.045 A 
HETATM    6 CL   LIG     1      29.101  21.554  18.296  1.00  0.00    -0.083 Cl
HETATM    7  C   LIG     1      26.646  22.691  18.905  1.00  0.00    -0.001 A 
HETATM    8  C   LIG     1      25.241  22.701  18.879  1.00  0.00     0.038 A 
ENDROOT
BRANCH   7   9
HETATM    9  C   LIG     1      27.367  23.805  19.557  1.00  0.00    -0.001 A 
HETATM   10  C   LIG     1      27.452  23.837  20.957  1.00  0.00     0.014 A 
HETATM   11  C   LIG     1      28.112  24.884  21.601  1.00  0.00     0.003 A 
HETATM   12  C   LIG     1      28.692  25.910  20.854  1.00  0.00     0.026 A 
HETATM   13  C   LIG     1      28.618  25.895  19.457  1.00  0.00     0.056 A 
HETATM   14 CL   LIG     1      29.369  27.207  18.558  1.00  0.00    -0.083 Cl
HETATM   15  C   LIG     1      27.954  24.843  18.799  1.00  0.00     0.066 A 
HETATM   16 CL   LIG     1      27.893  24.810  17.034  1.00  0.00    -0.082 Cl
ENDBRANCH   7   9
TORSDOF 1
ENDMDL
