MODEL 1
REMARK VINA RESULT:      -7.6      0.000      0.000
REMARK  1 active torsions:
REMARK  status: ('A' for Active; 'I' for Inactive)
REMARK    1  A    between atoms: C_8  and  C_9 
ROOT
HETATM    1 CL   LIG     1      16.131  38.860  22.648  1.00  0.00    -0.083 Cl
HETATM    2  C   LIG     1      16.782  37.657  23.756  1.00  0.00     0.045 A 
HETATM    3  C   LIG     1      17.165  38.065  25.040  1.00  0.00     0.026 A 
HETATM    4  C   LIG     1      17.716  37.145  25.937  1.00  0.00     0.025 A 
HETATM    5  C   LIG     1      17.891  35.812  25.554  1.00  0.00     0.035 A 
HETATM    6 CL   LIG     1      18.587  34.662  26.679  1.00  0.00    -0.084 Cl
HETATM    7  C   LIG     1      17.511  35.398  24.273  1.00  0.00     0.038 A 
HETATM    8  C   LIG     1      16.947  36.312  23.370  1.00  0.00    -0.001 A 
ENDROOT
BRANCH   8   9
HETATM    9  C   LIG     1      16.553  35.845  22.026  1.00  0.00    -0.002 A 
HETATM   10  C   LIG     1      15.476  34.955  21.897  1.00  0.00     0.016 A 
HETATM   11  C   LIG     1      15.085  34.497  20.637  1.00  0.00     0.025 A 
HETATM   12  C   LIG     1      15.764  34.928  19.493  1.00  0.00     0.035 A 
HETATM   13  C   LIG     1      16.831  35.824  19.611  1.00  0.00     0.048 A 
HETATM   14 CL   LIG     1      15.270  34.352  17.911  1.00  0.00    -0.084 Cl
HETATM   15  C   LIG     1      17.229  36.288  20.870  1.00  0.00     0.046 A 
HETATM   16 CL   LIG     1      18.551  37.446  20.964  1.00  0.00    -0.083 Cl
ENDBRANCH   8   9
TORSDOF 1
ENDMDL
MODEL 2
REMARK VINA RESULT:      -5.3      2.147      3.329
REMARK  1 active torsions:
REMARK  status: ('A' for Active; 'I' for Inactive)
REMARK    1  A    between atoms: C_8  and  C_9 
ROOT
HETATM    1 CL   LIG     1      18.799  37.074  18.972  1.00  0.00    -0.083 Cl
HETATM    2  C   LIG     1      18.318  37.671  20.557  1.00  0.00     0.045 A 
HETATM    3  C   LIG     1      18.927  38.832  21.050  1.00  0.00     0.026 A 
HETATM    4  C   LIG     1      18.595  39.318  22.317  1.00  0.00     0.025 A 
HETATM    5  C   LIG     1      17.654  38.644  23.102  1.00  0.00     0.035 A 
HETATM    6 CL   LIG     1      17.243  39.254  24.694  1.00  0.00    -0.084 Cl
HETATM    7  C   LIG     1      17.041  37.485  22.616  1.00  0.00     0.038 A 
HETATM    8  C   LIG     1      17.361  36.995  21.340  1.00  0.00    -0.001 A 
ENDROOT
BRANCH   8   9
HETATM    9  C   LIG     1      16.697  35.770  20.852  1.00  0.00    -0.002 A 
HETATM   10  C   LIG     1      16.274  35.705  19.515  1.00  0.00     0.016 A 
HETATM   11  C   LIG     1      15.641  34.558  19.030  1.00  0.00     0.025 A 
HETATM   12  C   LIG     1      15.430  33.464  19.874  1.00  0.00     0.035 A 
HETATM   13  C   LIG     1      15.858  33.515  21.204  1.00  0.00     0.048 A 
HETATM   14 CL   LIG     1      14.635  32.024  19.262  1.00  0.00    -0.084 Cl
HETATM   15  C   LIG     1      16.493  34.661  21.699  1.00  0.00     0.046 A 
HETATM   16 CL   LIG     1      17.050  34.664  23.369  1.00  0.00    -0.083 Cl
ENDBRANCH   8   9
TORSDOF 1
ENDMDL
MODEL 3
REMARK VINA RESULT:      -5.1      4.565      8.875
REMARK  1 active torsions:
REMARK  status: ('A' for Active; 'I' for Inactive)
REMARK    1  A    between atoms: C_8  and  C_9 
ROOT
HETATM    1 CL   LIG     1      17.511  32.764  15.535  1.00  0.00    -0.083 Cl
HETATM    2  C   LIG     1      16.063  31.790  15.303  1.00  0.00     0.045 A 
HETATM    3  C   LIG     1      15.907  31.094  14.098  1.00  0.00     0.026 A 
HETATM    4  C   LIG     1      14.756  30.336  13.865  1.00  0.00     0.025 A 
HETATM    5  C   LIG     1      13.751  30.273  14.835  1.00  0.00     0.035 A 
HETATM    6 CL   LIG     1      12.306  29.325  14.537  1.00  0.00    -0.084 Cl
HETATM    7  C   LIG     1      13.899  30.965  16.041  1.00  0.00     0.038 A 
HETATM    8  C   LIG     1      15.057  31.720  16.288  1.00  0.00    -0.001 A 
ENDROOT
BRANCH   8   9
HETATM    9  C   LIG     1      15.187  32.439  17.571  1.00  0.00    -0.002 A 
HETATM   10  C   LIG     1      15.252  31.704  18.765  1.00  0.00     0.016 A 
HETATM   11  C   LIG     1      15.372  32.360  19.992  1.00  0.00     0.025 A 
HETATM   12  C   LIG     1      15.434  33.756  20.037  1.00  0.00     0.035 A 
HETATM   13  C   LIG     1      15.382  34.496  18.852  1.00  0.00     0.048 A 
HETATM   14 CL   LIG     1      15.587  34.578  21.579  1.00  0.00    -0.084 Cl
HETATM   15  C   LIG     1      15.261  33.846  17.617  1.00  0.00     0.046 A 
HETATM   16 CL   LIG     1      15.240  34.818  16.150  1.00  0.00    -0.083 Cl
ENDBRANCH   8   9
TORSDOF 1
ENDMDL
MODEL 4
REMARK VINA RESULT:      -5.0     15.332     16.327
REMARK  1 active torsions:
REMARK  status: ('A' for Active; 'I' for Inactive)
REMARK    1  A    between atoms: C_8  and  C_9 
ROOT
HETATM    1 CL   LIG     1      26.428  21.839  22.201  1.00  0.00    -0.083 Cl
HETATM    2  C   LIG     1      26.777  23.269  21.235  1.00  0.00     0.045 A 
HETATM    3  C   LIG     1      27.696  24.204  21.727  1.00  0.00     0.026 A 
HETATM    4  C   LIG     1      27.975  25.366  21.003  1.00  0.00     0.025 A 
HETATM    5  C   LIG     1      27.333  25.603  19.784  1.00  0.00     0.035 A 
HETATM    6 CL   LIG     1      27.681  27.065  18.880  1.00  0.00    -0.084 Cl
HETATM    7  C   LIG     1      26.414  24.674  19.286  1.00  0.00     0.038 A 
HETATM    8  C   LIG     1      26.136  23.498  20.001  1.00  0.00    -0.001 A 
ENDROOT
BRANCH   8   9
HETATM    9  C   LIG     1      25.162  22.535  19.450  1.00  0.00    -0.002 A 
HETATM   10  C   LIG     1      25.533  21.734  18.359  1.00  0.00     0.016 A 
HETATM   11  C   LIG     1      24.630  20.816  17.818  1.00  0.00     0.025 A 
HETATM   12  C   LIG     1      23.350  20.686  18.366  1.00  0.00     0.035 A 
HETATM   13  C   LIG     1      22.976  21.471  19.460  1.00  0.00     0.048 A 
HETATM   14 CL   LIG     1      22.217  19.532  17.685  1.00  0.00    -0.084 Cl
HETATM   15  C   LIG     1      23.875  22.394  20.009  1.00  0.00     0.046 A 
HETATM   16 CL   LIG     1      23.373  23.331  21.412  1.00  0.00    -0.083 Cl
ENDBRANCH   8   9
TORSDOF 1
ENDMDL
MODEL 5
REMARK VINA RESULT:      -5.0     15.393     16.350
REMARK  1 active torsions:
REMARK  status: ('A' for Active; 'I' for Inactive)
REMARK    1  A    between atoms: C_8  and  C_9 
ROOT
HETATM    1 CL   LIG     1      23.400  22.099  18.353  1.00  0.00    -0.083 Cl
HETATM    2  C   LIG     1      23.821  22.198  20.059  1.00  0.00     0.045 A 
HETATM    3  C   LIG     1      22.944  21.646  21.001  1.00  0.00     0.026 A 
HETATM    4  C   LIG     1      23.229  21.733  22.366  1.00  0.00     0.025 A 
HETATM    5  C   LIG     1      24.391  22.379  22.799  1.00  0.00     0.035 A 
HETATM    6 CL   LIG     1      24.744  22.491  24.514  1.00  0.00    -0.084 Cl
HETATM    7  C   LIG     1      25.272  22.932  21.865  1.00  0.00     0.038 A 
HETATM    8  C   LIG     1      25.000  22.839  20.491  1.00  0.00    -0.001 A 
ENDROOT
BRANCH   8   9
HETATM    9  C   LIG     1      25.949  23.431  19.528  1.00  0.00    -0.002 A 
HETATM   10  C   LIG     1      26.004  24.827  19.389  1.00  0.00     0.016 A 
HETATM   11  C   LIG     1      26.892  25.412  18.483  1.00  0.00     0.025 A 
HETATM   12  C   LIG     1      27.736  24.608  17.711  1.00  0.00     0.035 A 
HETATM   13  C   LIG     1      27.696  23.218  17.850  1.00  0.00     0.048 A 
HETATM   14 CL   LIG     1      28.850  25.346  16.574  1.00  0.00    -0.084 Cl
HETATM   15  C   LIG     1      26.810  22.623  18.756  1.00  0.00     0.046 A 
HETATM   16 CL   LIG     1      26.824  20.871  18.927  1.00  0.00    -0.083 Cl
ENDBRANCH   8   9
TORSDOF 1
ENDMDL
MODEL 6
REMARK VINA RESULT:      -5.0     15.327     16.410
REMARK  1 active torsions:
REMARK  status: ('A' for Active; 'I' for Inactive)
REMARK    1  A    between atoms: C_8  and  C_9 
ROOT
HETATM    1 CL   LIG     1      22.408  19.524  24.259  1.00  0.00    -0.083 Cl
HETATM    2  C   LIG     1      23.446  20.867  24.726  1.00  0.00     0.045 A 
HETATM    3  C   LIG     1      23.708  21.071  26.086  1.00  0.00     0.026 A 
HETATM    4  C   LIG     1      24.502  22.146  26.498  1.00  0.00     0.025 A 
HETATM    5  C   LIG     1      25.035  23.025  25.550  1.00  0.00     0.035 A 
HETATM    6 CL   LIG     1      26.027  24.375  26.070  1.00  0.00    -0.084 Cl
HETATM    7  C   LIG     1      24.779  22.827  24.190  1.00  0.00     0.038 A 
HETATM    8  C   LIG     1      23.992  21.744  23.767  1.00  0.00    -0.001 A 
ENDROOT
BRANCH   8   9
HETATM    9  C   LIG     1      23.739  21.558  22.325  1.00  0.00    -0.002 A 
HETATM   10  C   LIG     1      22.766  22.347  21.692  1.00  0.00     0.016 A 
HETATM   11  C   LIG     1      22.506  22.189  20.329  1.00  0.00     0.025 A 
HETATM   12  C   LIG     1      23.220  21.246  19.584  1.00  0.00     0.035 A 
HETATM   13  C   LIG     1      24.200  20.463  20.203  1.00  0.00     0.048 A 
HETATM   14 CL   LIG     1      22.893  21.050  17.871  1.00  0.00    -0.084 Cl
HETATM   15  C   LIG     1      24.467  20.615  21.569  1.00  0.00     0.046 A 
HETATM   16 CL   LIG     1      25.737  19.637  22.296  1.00  0.00    -0.083 Cl
ENDBRANCH   8   9
TORSDOF 1
ENDMDL
MODEL 7
REMARK VINA RESULT:      -4.9     15.246     16.238
REMARK  1 active torsions:
REMARK  status: ('A' for Active; 'I' for Inactive)
REMARK    1  A    between atoms: C_8  and  C_9 
ROOT
HETATM    1 CL   LIG     1      28.369  23.242  22.196  1.00  0.00    -0.083 Cl
HETATM    2  C   LIG     1      26.628  23.173  21.942  1.00  0.00     0.045 A 
HETATM    3  C   LIG     1      25.829  22.579  22.926  1.00  0.00     0.026 A 
HETATM    4  C   LIG     1      24.447  22.478  22.746  1.00  0.00     0.025 A 
HETATM    5  C   LIG     1      23.856  22.966  21.577  1.00  0.00     0.035 A 
HETATM    6 CL   LIG     1      22.121  22.833  21.350  1.00  0.00    -0.084 Cl
HETATM    7  C   LIG     1      24.647  23.561  20.589  1.00  0.00     0.038 A 
HETATM    8  C   LIG     1      26.035  23.678  20.767  1.00  0.00    -0.001 A 
ENDROOT
BRANCH   8   9
HETATM    9  C   LIG     1      26.845  24.312  19.709  1.00  0.00    -0.002 A 
HETATM   10  C   LIG     1      27.208  25.661  19.840  1.00  0.00     0.016 A 
HETATM   11  C   LIG     1      27.973  26.286  18.851  1.00  0.00     0.025 A 
HETATM   12  C   LIG     1      28.386  25.566  17.726  1.00  0.00     0.035 A 
HETATM   13  C   LIG     1      28.038  24.218  17.593  1.00  0.00     0.048 A 
HETATM   14 CL   LIG     1      29.347  26.352  16.486  1.00  0.00    -0.084 Cl
HETATM   15  C   LIG     1      27.273  23.585  18.579  1.00  0.00     0.046 A 
HETATM   16 CL   LIG     1      26.894  21.876  18.387  1.00  0.00    -0.083 Cl
ENDBRANCH   8   9
TORSDOF 1
ENDMDL
MODEL 8
REMARK VINA RESULT:      -4.8     15.489     16.703
REMARK  1 active torsions:
REMARK  status: ('A' for Active; 'I' for Inactive)
REMARK    1  A    between atoms: C_8  and  C_9 
ROOT
HETATM    1 CL   LIG     1      23.860  21.696  18.118  1.00  0.00    -0.083 Cl
HETATM    2  C   LIG     1      24.945  22.800  18.956  1.00  0.00     0.045 A 
HETATM    3  C   LIG     1      25.595  23.795  18.215  1.00  0.00     0.026 A 
HETATM    4  C   LIG     1      26.488  24.669  18.839  1.00  0.00     0.025 A 
HETATM    5  C   LIG     1      26.741  24.552  20.210  1.00  0.00     0.035 A 
HETATM    6 CL   LIG     1      27.866  25.647  20.990  1.00  0.00    -0.084 Cl
HETATM    7  C   LIG     1      26.095  23.561  20.956  1.00  0.00     0.038 A 
HETATM    8  C   LIG     1      25.188  22.685  20.339  1.00  0.00    -0.001 A 
ENDROOT
BRANCH   8   9
HETATM    9  C   LIG     1      24.520  21.651  21.153  1.00  0.00    -0.002 A 
HETATM   10  C   LIG     1      25.176  20.431  21.385  1.00  0.00     0.016 A 
HETATM   11  C   LIG     1      24.564  19.435  22.150  1.00  0.00     0.025 A 
HETATM   12  C   LIG     1      23.294  19.650  22.694  1.00  0.00     0.035 A 
HETATM   13  C   LIG     1      22.639  20.866  22.478  1.00  0.00     0.048 A 
HETATM   14 CL   LIG     1      22.529  18.397  23.655  1.00  0.00    -0.084 Cl
HETATM   15  C   LIG     1      23.244  21.870  21.713  1.00  0.00     0.046 A 
HETATM   16 CL   LIG     1      22.398  23.399  21.503  1.00  0.00    -0.083 Cl
ENDBRANCH   8   9
TORSDOF 1
ENDMDL
MODEL 9
REMARK VINA RESULT:      -4.8     16.324     17.895
REMARK  1 active torsions:
REMARK  status: ('A' for Active; 'I' for Inactive)
REMARK    1  A    between atoms: C_8  and  C_9 
ROOT
HETATM    1 CL   LIG     1      25.314  19.094  20.901  1.00  0.00    -0.083 Cl
HETATM    2  C   LIG     1      24.067  19.128  19.659  1.00  0.00     0.045 A 
HETATM    3  C   LIG     1      23.356  17.953  19.389  1.00  0.00     0.026 A 
HETATM    4  C   LIG     1      22.381  17.933  18.388  1.00  0.00     0.025 A 
HETATM    5  C   LIG     1      22.114  19.088  17.647  1.00  0.00     0.035 A 
HETATM    6 CL   LIG     1      20.893  19.058  16.388  1.00  0.00    -0.084 Cl
HETATM    7  C   LIG     1      22.820  20.266  17.911  1.00  0.00     0.038 A 
HETATM    8  C   LIG     1      23.793  20.298  18.922  1.00  0.00    -0.001 A 
ENDROOT
BRANCH   8   9
HETATM    9  C   LIG     1      24.522  21.556  19.179  1.00  0.00    -0.002 A 
HETATM   10  C   LIG     1      25.577  21.923  18.330  1.00  0.00     0.016 A 
HETATM   11  C   LIG     1      26.284  23.107  18.554  1.00  0.00     0.025 A 
HETATM   12  C   LIG     1      25.939  23.937  19.624  1.00  0.00     0.035 A 
HETATM   13  C   LIG     1      24.882  23.586  20.469  1.00  0.00     0.048 A 
HETATM   14 CL   LIG     1      26.828  25.425  19.902  1.00  0.00    -0.084 Cl
HETATM   15  C   LIG     1      24.168  22.401  20.252  1.00  0.00     0.046 A 
HETATM   16 CL   LIG     1      22.819  22.020  21.316  1.00  0.00    -0.083 Cl
ENDBRANCH   8   9
TORSDOF 1
ENDMDL
MODEL 10
REMARK VINA RESULT:      -4.7     15.572     16.759
REMARK  1 active torsions:
REMARK  status: ('A' for Active; 'I' for Inactive)
REMARK    1  A    between atoms: C_8  and  C_9 
ROOT
HETATM    1 CL   LIG     1      24.020  21.926  17.989  1.00  0.00    -0.083 Cl
HETATM    2  C   LIG     1      25.086  23.027  18.855  1.00  0.00     0.045 A 
HETATM    3  C   LIG     1      25.791  23.992  18.125  1.00  0.00     0.026 A 
HETATM    4  C   LIG     1      26.671  24.863  18.773  1.00  0.00     0.025 A 
HETATM    5  C   LIG     1      26.853  24.772  20.156  1.00  0.00     0.035 A 
HETATM    6 CL   LIG     1      27.961  25.864  20.967  1.00  0.00    -0.084 Cl
HETATM    7  C   LIG     1      26.152  23.812  20.892  1.00  0.00     0.038 A 
HETATM    8  C   LIG     1      25.258  22.940  20.251  1.00  0.00    -0.001 A 
ENDROOT
BRANCH   8   9
HETATM    9  C   LIG     1      24.530  21.938  21.054  1.00  0.00    -0.002 A 
HETATM   10  C   LIG     1      23.278  22.271  21.594  1.00  0.00     0.016 A 
HETATM   11  C   LIG     1      22.570  21.341  22.359  1.00  0.00     0.025 A 
HETATM   12  C   LIG     1      23.104  20.069  22.587  1.00  0.00     0.035 A 
HETATM   13  C   LIG     1      24.345  19.725  22.043  1.00  0.00     0.048 A 
HETATM   14 CL   LIG     1      22.212  18.902  23.547  1.00  0.00    -0.084 Cl
HETATM   15  C   LIG     1      25.061  20.650  21.274  1.00  0.00     0.046 A 
HETATM   16 CL   LIG     1      26.600  20.158  20.576  1.00  0.00    -0.083 Cl
ENDBRANCH   8   9
TORSDOF 1
ENDMDL
MODEL 11
REMARK VINA RESULT:      -4.7     15.262     16.583
REMARK  1 active torsions:
REMARK  status: ('A' for Active; 'I' for Inactive)
REMARK    1  A    between atoms: C_8  and  C_9 
ROOT
HETATM    1 CL   LIG     1      27.308  21.489  19.068  1.00  0.00    -0.083 Cl
HETATM    2  C   LIG     1      25.737  21.890  19.753  1.00  0.00     0.045 A 
HETATM    3  C   LIG     1      24.627  21.120  19.382  1.00  0.00     0.026 A 
HETATM    4  C   LIG     1      23.358  21.427  19.880  1.00  0.00     0.025 A 
HETATM    5  C   LIG     1      23.190  22.510  20.749  1.00  0.00     0.035 A 
HETATM    6 CL   LIG     1      21.595  22.896  21.368  1.00  0.00    -0.084 Cl
HETATM    7  C   LIG     1      24.293  23.283  21.124  1.00  0.00     0.038 A 
HETATM    8  C   LIG     1      25.573  22.975  20.637  1.00  0.00    -0.001 A 
ENDROOT
BRANCH   8   9
HETATM    9  C   LIG     1      26.720  23.807  21.052  1.00  0.00    -0.002 A 
HETATM   10  C   LIG     1      27.504  23.400  22.142  1.00  0.00     0.016 A 
HETATM   11  C   LIG     1      28.593  24.171  22.555  1.00  0.00     0.025 A 
HETATM   12  C   LIG     1      28.911  25.353  21.880  1.00  0.00     0.035 A 
HETATM   13  C   LIG     1      28.143  25.761  20.785  1.00  0.00     0.048 A 
HETATM   14 CL   LIG     1      30.280  26.319  22.401  1.00  0.00    -0.084 Cl
HETATM   15  C   LIG     1      27.050  24.994  20.364  1.00  0.00     0.046 A 
HETATM   16 CL   LIG     1      26.136  25.526  18.957  1.00  0.00    -0.083 Cl
ENDBRANCH   8   9
TORSDOF 1
ENDMDL
MODEL 12
REMARK VINA RESULT:      -4.6     15.586     16.512
REMARK  1 active torsions:
REMARK  status: ('A' for Active; 'I' for Inactive)
REMARK    1  A    between atoms: C_8  and  C_9 
ROOT
HETATM    1 CL   LIG     1      26.121  23.216  21.959  1.00  0.00    -0.083 Cl
HETATM    2  C   LIG     1      25.144  22.472  23.220  1.00  0.00     0.045 A 
HETATM    3  C   LIG     1      25.349  22.865  24.549  1.00  0.00     0.026 A 
HETATM    4  C   LIG     1      24.615  22.274  25.580  1.00  0.00     0.025 A 
HETATM    5  C   LIG     1      23.673  21.281  25.290  1.00  0.00     0.035 A 
HETATM    6 CL   LIG     1      22.757  20.537  26.588  1.00  0.00    -0.084 Cl
HETATM    7  C   LIG     1      23.463  20.884  23.966  1.00  0.00     0.038 A 
HETATM    8  C   LIG     1      24.187  21.480  22.923  1.00  0.00    -0.001 A 
ENDROOT
BRANCH   8   9
HETATM    9  C   LIG     1      23.943  21.042  21.534  1.00  0.00    -0.002 A 
HETATM   10  C   LIG     1      24.626  19.920  21.039  1.00  0.00     0.016 A 
HETATM   11  C   LIG     1      24.414  19.486  19.729  1.00  0.00     0.025 A 
HETATM   12  C   LIG     1      23.514  20.166  18.903  1.00  0.00     0.035 A 
HETATM   13  C   LIG     1      22.820  21.278  19.391  1.00  0.00     0.048 A 
HETATM   14 CL   LIG     1      23.249  19.618  17.257  1.00  0.00    -0.084 Cl
HETATM   15  C   LIG     1      23.027  21.719  20.703  1.00  0.00     0.046 A 
HETATM   16 CL   LIG     1      22.101  23.098  21.286  1.00  0.00    -0.083 Cl
ENDBRANCH   8   9
TORSDOF 1
ENDMDL
