MODEL 1
REMARK VINA RESULT:      -6.5      0.000      0.000
REMARK  1 active torsions:
REMARK  status: ('A' for Active; 'I' for Inactive)
REMARK    1  A    between atoms: C_5  and  C_9 
ROOT
HETATM    1 CL   LIG     1      17.164  35.037  23.417  1.00  0.00    -0.083 Cl
HETATM    2  C   LIG     1      16.596  34.863  21.760  1.00  0.00     0.045 A 
HETATM    3  C   LIG     1      16.002  33.656  21.373  1.00  0.00     0.026 A 
HETATM    4  C   LIG     1      15.531  33.490  20.067  1.00  0.00     0.025 A 
HETATM    5  C   LIG     1      16.721  35.913  20.828  1.00  0.00     0.001 A 
HETATM    6  C   LIG     1      16.245  35.739  19.520  1.00  0.00     0.038 A 
HETATM    7  C   LIG     1      15.652  34.530  19.142  1.00  0.00     0.035 A 
HETATM    8 CL   LIG     1      15.059  34.319  17.504  1.00  0.00    -0.084 Cl
ENDROOT
BRANCH   5   9
HETATM    9  C   LIG     1      17.346  37.197  21.206  1.00  0.00     0.019 A 
HETATM   10  C   LIG     1      18.577  37.584  20.638  1.00  0.00     0.046 A 
HETATM   11  C   LIG     1      19.161  38.802  21.000  1.00  0.00     0.025 A 
HETATM   12 CL   LIG     1      19.406  36.567  19.463  1.00  0.00    -0.083 Cl
HETATM   13  C   LIG     1      18.530  39.639  21.922  1.00  0.00     0.003 A 
HETATM   14  C   LIG     1      17.310  39.264  22.487  1.00  0.00     0.025 A 
HETATM   15  C   LIG     1      16.712  38.049  22.134  1.00  0.00     0.046 A 
HETATM   16 CL   LIG     1      15.178  37.615  22.881  1.00  0.00    -0.083 Cl
ENDBRANCH   5   9
TORSDOF 1
ENDMDL
MODEL 2
REMARK VINA RESULT:      -6.5      0.015      2.303
REMARK  1 active torsions:
REMARK  status: ('A' for Active; 'I' for Inactive)
REMARK    1  A    between atoms: C_5  and  C_9 
ROOT
HETATM    1 CL   LIG     1      17.162  35.027  23.408  1.00  0.00    -0.083 Cl
HETATM    2  C   LIG     1      16.594  34.856  21.751  1.00  0.00     0.045 A 
HETATM    3  C   LIG     1      16.005  33.647  21.360  1.00  0.00     0.026 A 
HETATM    4  C   LIG     1      15.534  33.483  20.054  1.00  0.00     0.025 A 
HETATM    5  C   LIG     1      16.713  35.909  20.822  1.00  0.00     0.001 A 
HETATM    6  C   LIG     1      16.236  35.736  19.513  1.00  0.00     0.038 A 
HETATM    7  C   LIG     1      15.649  34.526  19.132  1.00  0.00     0.035 A 
HETATM    8 CL   LIG     1      15.055  34.317  17.494  1.00  0.00    -0.084 Cl
ENDROOT
BRANCH   5   9
HETATM    9  C   LIG     1      17.332  37.195  21.202  1.00  0.00     0.019 A 
HETATM   10  C   LIG     1      16.699  38.041  22.136  1.00  0.00     0.046 A 
HETATM   11  C   LIG     1      17.292  39.257  22.491  1.00  0.00     0.025 A 
HETATM   12 CL   LIG     1      15.167  37.600  22.884  1.00  0.00    -0.083 Cl
HETATM   13  C   LIG     1      18.511  39.638  21.925  1.00  0.00     0.003 A 
HETATM   14  C   LIG     1      19.144  38.804  21.002  1.00  0.00     0.025 A 
HETATM   15  C   LIG     1      18.564  37.585  20.637  1.00  0.00     0.046 A 
HETATM   16 CL   LIG     1      19.396  36.572  19.461  1.00  0.00    -0.083 Cl
ENDBRANCH   5   9
TORSDOF 1
ENDMDL
MODEL 3
REMARK VINA RESULT:      -5.5      2.346      3.490
REMARK  1 active torsions:
REMARK  status: ('A' for Active; 'I' for Inactive)
REMARK    1  A    between atoms: C_5  and  C_9 
ROOT
HETATM    1 CL   LIG     1      18.529  37.899  21.118  1.00  0.00    -0.083 Cl
HETATM    2  C   LIG     1      17.357  36.589  21.187  1.00  0.00     0.045 A 
HETATM    3  C   LIG     1      17.055  35.891  20.011  1.00  0.00     0.026 A 
HETATM    4  C   LIG     1      16.136  34.838  20.034  1.00  0.00     0.025 A 
HETATM    5  C   LIG     1      16.729  36.228  22.396  1.00  0.00     0.001 A 
HETATM    6  C   LIG     1      15.809  35.169  22.410  1.00  0.00     0.038 A 
HETATM    7  C   LIG     1      15.513  34.477  21.232  1.00  0.00     0.035 A 
HETATM    8 CL   LIG     1      14.361  33.154  21.257  1.00  0.00    -0.084 Cl
ENDROOT
BRANCH   5   9
HETATM    9  C   LIG     1      17.024  36.947  23.653  1.00  0.00     0.019 A 
HETATM   10  C   LIG     1      16.806  38.337  23.746  1.00  0.00     0.046 A 
HETATM   11  C   LIG     1      17.088  39.009  24.940  1.00  0.00     0.025 A 
HETATM   12 CL   LIG     1      16.171  39.260  22.387  1.00  0.00    -0.083 Cl
HETATM   13  C   LIG     1      17.584  38.310  26.042  1.00  0.00     0.003 A 
HETATM   14  C   LIG     1      17.800  36.934  25.957  1.00  0.00     0.025 A 
HETATM   15  C   LIG     1      17.523  36.246  24.770  1.00  0.00     0.046 A 
HETATM   16 CL   LIG     1      17.822  34.513  24.709  1.00  0.00    -0.083 Cl
ENDBRANCH   5   9
TORSDOF 1
ENDMDL
MODEL 4
REMARK VINA RESULT:      -5.5      2.344      3.387
REMARK  1 active torsions:
REMARK  status: ('A' for Active; 'I' for Inactive)
REMARK    1  A    between atoms: C_5  and  C_9 
ROOT
HETATM    1 CL   LIG     1      18.526  37.891  21.115  1.00  0.00    -0.083 Cl
HETATM    2  C   LIG     1      17.352  36.581  21.185  1.00  0.00     0.045 A 
HETATM    3  C   LIG     1      17.051  35.881  20.010  1.00  0.00     0.026 A 
HETATM    4  C   LIG     1      16.131  34.829  20.034  1.00  0.00     0.025 A 
HETATM    5  C   LIG     1      16.724  36.223  22.394  1.00  0.00     0.001 A 
HETATM    6  C   LIG     1      15.802  35.164  22.410  1.00  0.00     0.038 A 
HETATM    7  C   LIG     1      15.507  34.470  21.232  1.00  0.00     0.035 A 
HETATM    8 CL   LIG     1      14.355  33.148  21.259  1.00  0.00    -0.084 Cl
ENDROOT
BRANCH   5   9
HETATM    9  C   LIG     1      17.018  36.943  23.650  1.00  0.00     0.019 A 
HETATM   10  C   LIG     1      17.520  36.248  24.769  1.00  0.00     0.046 A 
HETATM   11  C   LIG     1      17.796  36.938  25.954  1.00  0.00     0.025 A 
HETATM   12 CL   LIG     1      17.820  34.514  24.713  1.00  0.00    -0.083 Cl
HETATM   13  C   LIG     1      17.579  38.315  26.034  1.00  0.00     0.003 A 
HETATM   14  C   LIG     1      17.085  39.010  24.929  1.00  0.00     0.025 A 
HETATM   15  C   LIG     1      16.804  38.335  23.737  1.00  0.00     0.046 A 
HETATM   16 CL   LIG     1      16.172  39.253  22.374  1.00  0.00    -0.083 Cl
ENDBRANCH   5   9
TORSDOF 1
ENDMDL
MODEL 5
REMARK VINA RESULT:      -5.2     15.473     17.186
REMARK  1 active torsions:
REMARK  status: ('A' for Active; 'I' for Inactive)
REMARK    1  A    between atoms: C_5  and  C_9 
ROOT
HETATM    1 CL   LIG     1      22.463  19.314  22.765  1.00  0.00    -0.083 Cl
HETATM    2  C   LIG     1      23.413  20.618  23.468  1.00  0.00     0.045 A 
HETATM    3  C   LIG     1      23.487  20.724  24.862  1.00  0.00     0.026 A 
HETATM    4  C   LIG     1      24.242  21.742  25.452  1.00  0.00     0.025 A 
HETATM    5  C   LIG     1      24.100  21.544  22.658  1.00  0.00     0.001 A 
HETATM    6  C   LIG     1      24.857  22.562  23.258  1.00  0.00     0.038 A 
HETATM    7  C   LIG     1      24.926  22.660  24.651  1.00  0.00     0.035 A 
HETATM    8 CL   LIG     1      25.873  23.936  25.394  1.00  0.00    -0.084 Cl
ENDROOT
BRANCH   5   9
HETATM    9  C   LIG     1      24.039  21.461  21.184  1.00  0.00     0.019 A 
HETATM   10  C   LIG     1      22.993  22.090  20.478  1.00  0.00     0.046 A 
HETATM   11  C   LIG     1      22.944  22.007  19.083  1.00  0.00     0.025 A 
HETATM   12 CL   LIG     1      21.737  22.997  21.315  1.00  0.00    -0.083 Cl
HETATM   13  C   LIG     1      23.927  21.304  18.384  1.00  0.00     0.003 A 
HETATM   14  C   LIG     1      24.967  20.681  19.076  1.00  0.00     0.025 A 
HETATM   15  C   LIG     1      25.031  20.755  20.472  1.00  0.00     0.046 A 
HETATM   16 CL   LIG     1      26.356  19.945  21.300  1.00  0.00    -0.083 Cl
ENDBRANCH   5   9
TORSDOF 1
ENDMDL
MODEL 6
REMARK VINA RESULT:      -5.1     15.464     17.084
REMARK  1 active torsions:
REMARK  status: ('A' for Active; 'I' for Inactive)
REMARK    1  A    between atoms: C_5  and  C_9 
ROOT
HETATM    1 CL   LIG     1      22.485  19.260  22.666  1.00  0.00    -0.083 Cl
HETATM    2  C   LIG     1      23.423  20.566  23.381  1.00  0.00     0.045 A 
HETATM    3  C   LIG     1      23.503  20.654  24.776  1.00  0.00     0.026 A 
HETATM    4  C   LIG     1      24.248  21.674  25.376  1.00  0.00     0.025 A 
HETATM    5  C   LIG     1      24.095  21.511  22.580  1.00  0.00     0.001 A 
HETATM    6  C   LIG     1      24.842  22.530  23.189  1.00  0.00     0.038 A 
HETATM    7  C   LIG     1      24.917  22.610  24.584  1.00  0.00     0.035 A 
HETATM    8 CL   LIG     1      25.854  23.888  25.338  1.00  0.00    -0.084 Cl
ENDROOT
BRANCH   5   9
HETATM    9  C   LIG     1      24.027  21.446  21.105  1.00  0.00     0.019 A 
HETATM   10  C   LIG     1      25.001  20.731  20.379  1.00  0.00     0.046 A 
HETATM   11  C   LIG     1      24.929  20.675  18.983  1.00  0.00     0.025 A 
HETATM   12 CL   LIG     1      26.317  19.888  21.191  1.00  0.00    -0.083 Cl
HETATM   13  C   LIG     1      23.896  21.324  18.304  1.00  0.00     0.003 A 
HETATM   14  C   LIG     1      22.927  22.031  19.017  1.00  0.00     0.025 A 
HETATM   15  C   LIG     1      22.984  22.097  20.414  1.00  0.00     0.046 A 
HETATM   16 CL   LIG     1      21.745  23.010  21.268  1.00  0.00    -0.083 Cl
ENDBRANCH   5   9
TORSDOF 1
ENDMDL
MODEL 7
REMARK VINA RESULT:      -5.1     15.156     16.991
REMARK  1 active torsions:
REMARK  status: ('A' for Active; 'I' for Inactive)
REMARK    1  A    between atoms: C_5  and  C_9 
ROOT
HETATM    1 CL   LIG     1      23.514  21.033  18.281  1.00  0.00    -0.083 Cl
HETATM    2  C   LIG     1      24.556  22.320  18.877  1.00  0.00     0.045 A 
HETATM    3  C   LIG     1      25.084  23.240  17.963  1.00  0.00     0.026 A 
HETATM    4  C   LIG     1      25.906  24.280  18.406  1.00  0.00     0.025 A 
HETATM    5  C   LIG     1      24.858  22.443  20.248  1.00  0.00     0.001 A 
HETATM    6  C   LIG     1      25.684  23.491  20.685  1.00  0.00     0.038 A 
HETATM    7  C   LIG     1      26.206  24.406  19.765  1.00  0.00     0.035 A 
HETATM    8 CL   LIG     1      27.237  25.713  20.318  1.00  0.00    -0.084 Cl
ENDROOT
BRANCH   5   9
HETATM    9  C   LIG     1      24.320  21.487  21.237  1.00  0.00     0.019 A 
HETATM   10  C   LIG     1      23.047  21.693  21.807  1.00  0.00     0.046 A 
HETATM   11  C   LIG     1      22.544  20.782  22.742  1.00  0.00     0.025 A 
HETATM   12 CL   LIG     1      22.055  23.078  21.360  1.00  0.00    -0.083 Cl
HETATM   13  C   LIG     1      23.298  19.668  23.115  1.00  0.00     0.003 A 
HETATM   14  C   LIG     1      24.558  19.456  22.553  1.00  0.00     0.025 A 
HETATM   15  C   LIG     1      25.074  20.357  21.616  1.00  0.00     0.046 A 
HETATM   16 CL   LIG     1      26.672  20.053  20.943  1.00  0.00    -0.083 Cl
ENDBRANCH   5   9
TORSDOF 1
ENDMDL
MODEL 8
REMARK VINA RESULT:      -5.1     15.140     16.847
REMARK  1 active torsions:
REMARK  status: ('A' for Active; 'I' for Inactive)
REMARK    1  A    between atoms: C_5  and  C_9 
ROOT
HETATM    1 CL   LIG     1      23.508  21.092  18.266  1.00  0.00    -0.083 Cl
HETATM    2  C   LIG     1      24.559  22.369  18.868  1.00  0.00     0.045 A 
HETATM    3  C   LIG     1      25.085  23.296  17.959  1.00  0.00     0.026 A 
HETATM    4  C   LIG     1      25.914  24.328  18.406  1.00  0.00     0.025 A 
HETATM    5  C   LIG     1      24.871  22.478  20.237  1.00  0.00     0.001 A 
HETATM    6  C   LIG     1      25.703  23.518  20.679  1.00  0.00     0.038 A 
HETATM    7  C   LIG     1      26.223  24.440  19.764  1.00  0.00     0.035 A 
HETATM    8 CL   LIG     1      27.263  25.737  20.323  1.00  0.00    -0.084 Cl
ENDROOT
BRANCH   5   9
HETATM    9  C   LIG     1      24.334  21.515  21.221  1.00  0.00     0.019 A 
HETATM   10  C   LIG     1      25.098  20.396  21.611  1.00  0.00     0.046 A 
HETATM   11  C   LIG     1      24.583  19.489  22.543  1.00  0.00     0.025 A 
HETATM   12 CL   LIG     1      26.708  20.110  20.957  1.00  0.00    -0.083 Cl
HETATM   13  C   LIG     1      23.314  19.687  23.091  1.00  0.00     0.003 A 
HETATM   14  C   LIG     1      22.553  20.793  22.710  1.00  0.00     0.025 A 
HETATM   15  C   LIG     1      23.054  21.710  21.780  1.00  0.00     0.046 A 
HETATM   16 CL   LIG     1      22.053  23.084  21.325  1.00  0.00    -0.083 Cl
ENDBRANCH   5   9
TORSDOF 1
ENDMDL
MODEL 9
REMARK VINA RESULT:      -5.0     15.350     16.806
REMARK  1 active torsions:
REMARK  status: ('A' for Active; 'I' for Inactive)
REMARK    1  A    between atoms: C_5  and  C_9 
ROOT
HETATM    1 CL   LIG     1      23.537  22.071  17.996  1.00  0.00    -0.083 Cl
HETATM    2  C   LIG     1      23.964  22.325  19.685  1.00  0.00     0.045 A 
HETATM    3  C   LIG     1      22.967  22.194  20.660  1.00  0.00     0.026 A 
HETATM    4  C   LIG     1      23.275  22.380  22.011  1.00  0.00     0.025 A 
HETATM    5  C   LIG     1      25.281  22.646  20.068  1.00  0.00     0.001 A 
HETATM    6  C   LIG     1      25.582  22.829  21.427  1.00  0.00     0.038 A 
HETATM    7  C   LIG     1      24.581  22.696  22.394  1.00  0.00     0.035 A 
HETATM    8 CL   LIG     1      24.965  22.927  24.090  1.00  0.00    -0.084 Cl
ENDROOT
BRANCH   5   9
HETATM    9  C   LIG     1      26.354  22.794  19.063  1.00  0.00     0.019 A 
HETATM   10  C   LIG     1      26.714  24.072  18.589  1.00  0.00     0.046 A 
HETATM   11  C   LIG     1      27.731  24.202  17.638  1.00  0.00     0.025 A 
HETATM   12 CL   LIG     1      25.916  25.527  19.176  1.00  0.00    -0.083 Cl
HETATM   13  C   LIG     1      28.393  23.071  17.155  1.00  0.00     0.003 A 
HETATM   14  C   LIG     1      28.043  21.804  17.622  1.00  0.00     0.025 A 
HETATM   15  C   LIG     1      27.028  21.656  18.574  1.00  0.00     0.046 A 
HETATM   16 CL   LIG     1      26.616  20.036  19.124  1.00  0.00    -0.083 Cl
ENDBRANCH   5   9
TORSDOF 1
ENDMDL
MODEL 10
REMARK VINA RESULT:      -4.9     15.184     16.298
REMARK  1 active torsions:
REMARK  status: ('A' for Active; 'I' for Inactive)
REMARK    1  A    between atoms: C_5  and  C_9 
ROOT
HETATM    1 CL   LIG     1      23.301  23.419  21.501  1.00  0.00    -0.083 Cl
HETATM    2  C   LIG     1      23.931  22.474  20.156  1.00  0.00     0.045 A 
HETATM    3  C   LIG     1      23.044  21.688  19.410  1.00  0.00     0.026 A 
HETATM    4  C   LIG     1      23.511  20.934  18.329  1.00  0.00     0.025 A 
HETATM    5  C   LIG     1      25.298  22.501  19.817  1.00  0.00     0.001 A 
HETATM    6  C   LIG     1      25.758  21.742  18.731  1.00  0.00     0.038 A 
HETATM    7  C   LIG     1      24.866  20.960  17.990  1.00  0.00     0.035 A 
HETATM    8 CL   LIG     1      25.448  20.014  16.632  1.00  0.00    -0.084 Cl
ENDROOT
BRANCH   5   9
HETATM    9  C   LIG     1      26.259  23.318  20.587  1.00  0.00     0.019 A 
HETATM   10  C   LIG     1      26.671  24.576  20.104  1.00  0.00     0.046 A 
HETATM   11  C   LIG     1      27.581  25.343  20.840  1.00  0.00     0.025 A 
HETATM   12 CL   LIG     1      26.057  25.222  18.585  1.00  0.00    -0.083 Cl
HETATM   13  C   LIG     1      28.083  24.868  22.053  1.00  0.00     0.003 A 
HETATM   14  C   LIG     1      27.677  23.624  22.539  1.00  0.00     0.025 A 
HETATM   15  C   LIG     1      26.768  22.845  21.815  1.00  0.00     0.046 A 
HETATM   16 CL   LIG     1      26.294  21.278  22.463  1.00  0.00    -0.083 Cl
ENDBRANCH   5   9
TORSDOF 1
ENDMDL
MODEL 11
REMARK VINA RESULT:      -4.9     15.164     16.316
REMARK  1 active torsions:
REMARK  status: ('A' for Active; 'I' for Inactive)
REMARK    1  A    between atoms: C_5  and  C_9 
ROOT
HETATM    1 CL   LIG     1      23.232  23.447  21.501  1.00  0.00    -0.083 Cl
HETATM    2  C   LIG     1      23.851  22.467  20.176  1.00  0.00     0.045 A 
HETATM    3  C   LIG     1      22.957  21.669  19.452  1.00  0.00     0.026 A 
HETATM    4  C   LIG     1      23.415  20.887  18.388  1.00  0.00     0.025 A 
HETATM    5  C   LIG     1      25.217  22.480  19.831  1.00  0.00     0.001 A 
HETATM    6  C   LIG     1      25.669  21.693  18.760  1.00  0.00     0.038 A 
HETATM    7  C   LIG     1      24.769  20.899  18.042  1.00  0.00     0.035 A 
HETATM    8 CL   LIG     1      25.341  19.918  16.704  1.00  0.00    -0.084 Cl
ENDROOT
BRANCH   5   9
HETATM    9  C   LIG     1      26.185  23.309  20.578  1.00  0.00     0.019 A 
HETATM   10  C   LIG     1      26.685  22.874  21.822  1.00  0.00     0.046 A 
HETATM   11  C   LIG     1      27.601  23.665  22.522  1.00  0.00     0.025 A 
HETATM   12 CL   LIG     1      26.188  21.338  22.524  1.00  0.00    -0.083 Cl
HETATM   13  C   LIG     1      28.026  24.886  21.993  1.00  0.00     0.003 A 
HETATM   14  C   LIG     1      27.537  25.322  20.761  1.00  0.00     0.025 A 
HETATM   15  C   LIG     1      26.620  24.542  20.048  1.00  0.00     0.046 A 
HETATM   16 CL   LIG     1      26.024  25.139  18.503  1.00  0.00    -0.083 Cl
ENDBRANCH   5   9
TORSDOF 1
ENDMDL
MODEL 12
REMARK VINA RESULT:      -4.9     15.044     16.619
REMARK  1 active torsions:
REMARK  status: ('A' for Active; 'I' for Inactive)
REMARK    1  A    between atoms: C_5  and  C_9 
ROOT
HETATM    1 CL   LIG     1      26.462  21.615  22.149  1.00  0.00    -0.083 Cl
HETATM    2  C   LIG     1      26.762  23.099  21.251  1.00  0.00     0.045 A 
HETATM    3  C   LIG     1      27.713  24.003  21.739  1.00  0.00     0.026 A 
HETATM    4  C   LIG     1      27.982  25.185  21.043  1.00  0.00     0.025 A 
HETATM    5  C   LIG     1      26.073  23.385  20.055  1.00  0.00     0.001 A 
HETATM    6  C   LIG     1      26.350  24.573  19.363  1.00  0.00     0.038 A 
HETATM    7  C   LIG     1      27.302  25.471  19.857  1.00  0.00     0.035 A 
HETATM    8 CL   LIG     1      27.643  26.954  18.985  1.00  0.00    -0.084 Cl
ENDROOT
BRANCH   5   9
HETATM    9  C   LIG     1      25.061  22.452  19.516  1.00  0.00     0.019 A 
HETATM   10  C   LIG     1      25.374  21.617  18.424  1.00  0.00     0.046 A 
HETATM   11  C   LIG     1      24.410  20.737  17.920  1.00  0.00     0.025 A 
HETATM   12 CL   LIG     1      26.966  21.644  17.674  1.00  0.00    -0.083 Cl
HETATM   13  C   LIG     1      23.139  20.681  18.495  1.00  0.00     0.003 A 
HETATM   14  C   LIG     1      22.823  21.503  19.577  1.00  0.00     0.025 A 
HETATM   15  C   LIG     1      23.776  22.388  20.094  1.00  0.00     0.046 A 
HETATM   16 CL   LIG     1      23.328  23.412  21.453  1.00  0.00    -0.083 Cl
ENDBRANCH   5   9
TORSDOF 1
ENDMDL
MODEL 13
REMARK VINA RESULT:      -4.9     15.073     16.809
REMARK  1 active torsions:
REMARK  status: ('A' for Active; 'I' for Inactive)
REMARK    1  A    between atoms: C_5  and  C_9 
ROOT
HETATM    1 CL   LIG     1      26.506  21.561  22.105  1.00  0.00    -0.083 Cl
HETATM    2  C   LIG     1      26.793  23.056  21.222  1.00  0.00     0.045 A 
HETATM    3  C   LIG     1      27.746  23.957  21.711  1.00  0.00     0.026 A 
HETATM    4  C   LIG     1      28.005  25.149  21.027  1.00  0.00     0.025 A 
HETATM    5  C   LIG     1      26.092  23.354  20.036  1.00  0.00     0.001 A 
HETATM    6  C   LIG     1      26.358  24.551  19.355  1.00  0.00     0.038 A 
HETATM    7  C   LIG     1      27.312  25.446  19.850  1.00  0.00     0.035 A 
HETATM    8 CL   LIG     1      27.640  26.941  18.993  1.00  0.00    -0.084 Cl
ENDROOT
BRANCH   5   9
HETATM    9  C   LIG     1      25.078  22.424  19.495  1.00  0.00     0.019 A 
HETATM   10  C   LIG     1      23.794  22.357  20.073  1.00  0.00     0.046 A 
HETATM   11  C   LIG     1      22.840  21.475  19.554  1.00  0.00     0.025 A 
HETATM   12 CL   LIG     1      23.348  23.374  21.440  1.00  0.00    -0.083 Cl
HETATM   13  C   LIG     1      23.154  20.659  18.465  1.00  0.00     0.003 A 
HETATM   14  C   LIG     1      24.423  20.722  17.887  1.00  0.00     0.025 A 
HETATM   15  C   LIG     1      25.388  21.599  18.394  1.00  0.00     0.046 A 
HETATM   16 CL   LIG     1      26.977  21.635  17.638  1.00  0.00    -0.083 Cl
ENDBRANCH   5   9
TORSDOF 1
ENDMDL
MODEL 14
REMARK VINA RESULT:      -4.9     15.003     16.211
REMARK  1 active torsions:
REMARK  status: ('A' for Active; 'I' for Inactive)
REMARK    1  A    between atoms: C_5  and  C_9 
ROOT
HETATM    1 CL   LIG     1      27.032  22.027  18.115  1.00  0.00    -0.083 Cl
HETATM    2  C   LIG     1      25.559  22.255  19.050  1.00  0.00     0.045 A 
HETATM    3  C   LIG     1      24.379  21.642  18.612  1.00  0.00     0.026 A 
HETATM    4  C   LIG     1      23.194  21.795  19.338  1.00  0.00     0.025 A 
HETATM    5  C   LIG     1      25.550  23.031  20.227  1.00  0.00     0.001 A 
HETATM    6  C   LIG     1      24.357  23.178  20.951  1.00  0.00     0.038 A 
HETATM    7  C   LIG     1      23.183  22.562  20.506  1.00  0.00     0.035 A 
HETATM    8 CL   LIG     1      21.695  22.751  21.416  1.00  0.00    -0.084 Cl
ENDROOT
BRANCH   5   9
HETATM    9  C   LIG     1      26.778  23.692  20.714  1.00  0.00     0.019 A 
HETATM   10  C   LIG     1      27.608  23.049  21.654  1.00  0.00     0.046 A 
HETATM   11  C   LIG     1      28.769  23.682  22.110  1.00  0.00     0.025 A 
HETATM   12 CL   LIG     1      27.225  21.445  22.272  1.00  0.00    -0.083 Cl
HETATM   13  C   LIG     1      29.111  24.951  21.636  1.00  0.00     0.003 A 
HETATM   14  C   LIG     1      28.295  25.593  20.704  1.00  0.00     0.025 A 
HETATM   15  C   LIG     1      27.130  24.972  20.238  1.00  0.00     0.046 A 
HETATM   16 CL   LIG     1      26.128  25.826  19.070  1.00  0.00    -0.083 Cl
ENDBRANCH   5   9
TORSDOF 1
ENDMDL
MODEL 15
REMARK VINA RESULT:      -4.9     15.544     17.371
REMARK  1 active torsions:
REMARK  status: ('A' for Active; 'I' for Inactive)
REMARK    1  A    between atoms: C_5  and  C_9 
ROOT
HETATM    1 CL   LIG     1      26.024  23.120  22.084  1.00  0.00    -0.083 Cl
HETATM    2  C   LIG     1      24.970  22.145  23.103  1.00  0.00     0.045 A 
HETATM    3  C   LIG     1      25.095  22.246  24.494  1.00  0.00     0.026 A 
HETATM    4  C   LIG     1      24.266  21.494  25.332  1.00  0.00     0.025 A 
HETATM    5  C   LIG     1      24.007  21.280  22.547  1.00  0.00     0.001 A 
HETATM    6  C   LIG     1      23.178  20.530  23.395  1.00  0.00     0.038 A 
HETATM    7  C   LIG     1      23.309  20.637  24.783  1.00  0.00     0.035 A 
HETATM    8 CL   LIG     1      22.268  19.695  25.836  1.00  0.00    -0.084 Cl
ENDROOT
BRANCH   5   9
HETATM    9  C   LIG     1      23.853  21.150  21.084  1.00  0.00     0.019 A 
HETATM   10  C   LIG     1      22.916  21.945  20.393  1.00  0.00     0.046 A 
HETATM   11  C   LIG     1      22.777  21.815  19.007  1.00  0.00     0.025 A 
HETATM   12 CL   LIG     1      21.910  23.119  21.235  1.00  0.00    -0.083 Cl
HETATM   13  C   LIG     1      23.564  20.901  18.303  1.00  0.00     0.003 A 
HETATM   14  C   LIG     1      24.495  20.112  18.980  1.00  0.00     0.025 A 
HETATM   15  C   LIG     1      24.646  20.230  20.366  1.00  0.00     0.046 A 
HETATM   16 CL   LIG     1      25.827  19.207  21.177  1.00  0.00    -0.083 Cl
ENDBRANCH   5   9
TORSDOF 1
ENDMDL
MODEL 16
REMARK VINA RESULT:      -4.8     15.523     17.354
REMARK  1 active torsions:
REMARK  status: ('A' for Active; 'I' for Inactive)
REMARK    1  A    between atoms: C_5  and  C_9 
ROOT
HETATM    1 CL   LIG     1      25.307  22.826  22.681  1.00  0.00    -0.083 Cl
HETATM    2  C   LIG     1      24.224  21.607  23.343  1.00  0.00     0.045 A 
HETATM    3  C   LIG     1      24.138  21.464  24.733  1.00  0.00     0.026 A 
HETATM    4  C   LIG     1      23.279  20.512  25.291  1.00  0.00     0.025 A 
HETATM    5  C   LIG     1      23.442  20.787  22.505  1.00  0.00     0.001 A 
HETATM    6  C   LIG     1      22.582  19.835  23.073  1.00  0.00     0.038 A 
HETATM    7  C   LIG     1      22.502  19.699  24.463  1.00  0.00     0.035 A 
HETATM    8 CL   LIG     1      21.424  18.507  25.166  1.00  0.00    -0.084 Cl
ENDROOT
BRANCH   5   9
HETATM    9  C   LIG     1      23.512  20.912  21.034  1.00  0.00     0.019 A 
HETATM   10  C   LIG     1      24.328  20.041  20.284  1.00  0.00     0.046 A 
HETATM   11  C   LIG     1      24.387  20.166  18.892  1.00  0.00     0.025 A 
HETATM   12 CL   LIG     1      25.277  18.776  21.059  1.00  0.00    -0.083 Cl
HETATM   13  C   LIG     1      23.642  21.151  18.241  1.00  0.00     0.003 A 
HETATM   14  C   LIG     1      22.831  22.016  18.977  1.00  0.00     0.025 A 
HETATM   15  C   LIG     1      22.760  21.903  20.370  1.00  0.00     0.046 A 
HETATM   16 CL   LIG     1      21.731  23.023  21.256  1.00  0.00    -0.083 Cl
ENDBRANCH   5   9
TORSDOF 1
ENDMDL
MODEL 17
REMARK VINA RESULT:      -4.8     19.085     21.316
REMARK  1 active torsions:
REMARK  status: ('A' for Active; 'I' for Inactive)
REMARK    1  A    between atoms: C_5  and  C_9 
ROOT
HETATM    1 CL   LIG     1      19.992  23.537  35.718  1.00  0.00    -0.083 Cl
HETATM    2  C   LIG     1      19.935  22.531  34.275  1.00  0.00     0.045 A 
HETATM    3  C   LIG     1      19.574  23.119  33.056  1.00  0.00     0.026 A 
HETATM    4  C   LIG     1      19.530  22.350  31.889  1.00  0.00     0.025 A 
HETATM    5  C   LIG     1      20.253  21.159  34.323  1.00  0.00     0.001 A 
HETATM    6  C   LIG     1      20.208  20.395  33.148  1.00  0.00     0.038 A 
HETATM    7  C   LIG     1      19.846  20.990  31.935  1.00  0.00     0.035 A 
HETATM    8 CL   LIG     1      19.792  20.028  30.469  1.00  0.00    -0.084 Cl
ENDROOT
BRANCH   5   9
HETATM    9  C   LIG     1      20.635  20.509  35.594  1.00  0.00     0.019 A 
HETATM   10  C   LIG     1      21.981  20.505  36.015  1.00  0.00     0.046 A 
HETATM   11  C   LIG     1      22.334  19.888  37.220  1.00  0.00     0.025 A 
HETATM   12 CL   LIG     1      23.244  21.273  35.059  1.00  0.00    -0.083 Cl
HETATM   13  C   LIG     1      21.358  19.276  38.009  1.00  0.00     0.003 A 
HETATM   14  C   LIG     1      20.024  19.278  37.600  1.00  0.00     0.025 A 
HETATM   15  C   LIG     1      19.655  19.892  36.398  1.00  0.00     0.046 A 
HETATM   16 CL   LIG     1      17.961  19.860  35.919  1.00  0.00    -0.083 Cl
ENDBRANCH   5   9
TORSDOF 1
ENDMDL
MODEL 18
REMARK VINA RESULT:      -4.8     15.239     16.600
REMARK  1 active torsions:
REMARK  status: ('A' for Active; 'I' for Inactive)
REMARK    1  A    between atoms: C_5  and  C_9 
ROOT
HETATM    1 CL   LIG     1      27.101  20.674  19.555  1.00  0.00    -0.083 Cl
HETATM    2  C   LIG     1      27.274  22.415  19.365  1.00  0.00     0.045 A 
HETATM    3  C   LIG     1      28.397  22.912  18.694  1.00  0.00     0.026 A 
HETATM    4  C   LIG     1      28.559  24.289  18.517  1.00  0.00     0.025 A 
HETATM    5  C   LIG     1      26.305  23.308  19.865  1.00  0.00     0.001 A 
HETATM    6  C   LIG     1      26.474  24.688  19.682  1.00  0.00     0.038 A 
HETATM    7  C   LIG     1      27.599  25.177  19.010  1.00  0.00     0.035 A 
HETATM    8 CL   LIG     1      27.804  26.905  18.785  1.00  0.00    -0.084 Cl
ENDROOT
BRANCH   5   9
HETATM    9  C   LIG     1      25.110  22.814  20.580  1.00  0.00     0.019 A 
HETATM   10  C   LIG     1      23.968  22.406  19.861  1.00  0.00     0.046 A 
HETATM   11  C   LIG     1      22.841  21.940  20.546  1.00  0.00     0.025 A 
HETATM   12 CL   LIG     1      23.923  22.460  18.102  1.00  0.00    -0.083 Cl
HETATM   13  C   LIG     1      22.842  21.875  21.941  1.00  0.00     0.003 A 
HETATM   14  C   LIG     1      23.970  22.275  22.659  1.00  0.00     0.025 A 
HETATM   15  C   LIG     1      25.105  22.743  21.989  1.00  0.00     0.046 A 
HETATM   16 CL   LIG     1      26.500  23.245  22.939  1.00  0.00    -0.083 Cl
ENDBRANCH   5   9
TORSDOF 1
ENDMDL
MODEL 19
REMARK VINA RESULT:      -4.8     19.083     21.409
REMARK  1 active torsions:
REMARK  status: ('A' for Active; 'I' for Inactive)
REMARK    1  A    between atoms: C_5  and  C_9 
ROOT
HETATM    1 CL   LIG     1      20.014  23.542  35.698  1.00  0.00    -0.083 Cl
HETATM    2  C   LIG     1      19.955  22.530  34.259  1.00  0.00     0.045 A 
HETATM    3  C   LIG     1      19.590  23.112  33.039  1.00  0.00     0.026 A 
HETATM    4  C   LIG     1      19.543  22.338  31.876  1.00  0.00     0.025 A 
HETATM    5  C   LIG     1      20.274  21.159  34.313  1.00  0.00     0.001 A 
HETATM    6  C   LIG     1      20.226  20.389  33.141  1.00  0.00     0.038 A 
HETATM    7  C   LIG     1      19.861  20.979  31.926  1.00  0.00     0.035 A 
HETATM    8 CL   LIG     1      19.804  20.010  30.464  1.00  0.00    -0.084 Cl
ENDROOT
BRANCH   5   9
HETATM    9  C   LIG     1      20.660  20.515  35.585  1.00  0.00     0.019 A 
HETATM   10  C   LIG     1      19.685  19.899  36.396  1.00  0.00     0.046 A 
HETATM   11  C   LIG     1      20.060  19.291  37.599  1.00  0.00     0.025 A 
HETATM   12 CL   LIG     1      17.989  19.863  35.925  1.00  0.00    -0.083 Cl
HETATM   13  C   LIG     1      21.397  19.291  38.001  1.00  0.00     0.003 A 
HETATM   14  C   LIG     1      22.367  19.897  37.203  1.00  0.00     0.025 A 
HETATM   15  C   LIG     1      22.009  20.509  35.997  1.00  0.00     0.046 A 
HETATM   16 CL   LIG     1      23.268  21.269  35.029  1.00  0.00    -0.083 Cl
ENDBRANCH   5   9
TORSDOF 1
ENDMDL
MODEL 20
REMARK VINA RESULT:      -4.8     15.277     16.640
REMARK  1 active torsions:
REMARK  status: ('A' for Active; 'I' for Inactive)
REMARK    1  A    between atoms: C_5  and  C_9 
ROOT
HETATM    1 CL   LIG     1      26.776  20.588  19.136  1.00  0.00    -0.083 Cl
HETATM    2  C   LIG     1      27.037  22.327  19.061  1.00  0.00     0.045 A 
HETATM    3  C   LIG     1      28.109  22.817  18.305  1.00  0.00     0.026 A 
HETATM    4  C   LIG     1      28.337  24.193  18.216  1.00  0.00     0.025 A 
HETATM    5  C   LIG     1      26.188  23.226  19.736  1.00  0.00     0.001 A 
HETATM    6  C   LIG     1      26.423  24.606  19.641  1.00  0.00     0.038 A 
HETATM    7  C   LIG     1      27.495  25.087  18.883  1.00  0.00     0.035 A 
HETATM    8 CL   LIG     1      27.783  26.814  18.769  1.00  0.00    -0.084 Cl
ENDROOT
BRANCH   5   9
HETATM    9  C   LIG     1      25.050  22.740  20.544  1.00  0.00     0.019 A 
HETATM   10  C   LIG     1      25.144  22.694  21.950  1.00  0.00     0.046 A 
HETATM   11  C   LIG     1      24.062  22.233  22.707  1.00  0.00     0.025 A 
HETATM   12 CL   LIG     1      26.600  23.216  22.791  1.00  0.00    -0.083 Cl
HETATM   13  C   LIG     1      22.887  21.818  22.077  1.00  0.00     0.003 A 
HETATM   14  C   LIG     1      22.786  21.864  20.685  1.00  0.00     0.025 A 
HETATM   15  C   LIG     1      23.859  22.322  19.914  1.00  0.00     0.046 A 
HETATM   16 CL   LIG     1      23.688  22.351  18.162  1.00  0.00    -0.083 Cl
ENDBRANCH   5   9
TORSDOF 1
ENDMDL
