REMARK  1 active torsions:
REMARK  status: ('A' for Active; 'I' for Inactive)
REMARK    1  A    between atoms: C_7  and  C_8 
ROOT
HETATM    1 CL   LIG     1      -3.833   2.208   1.233  1.00  0.00    -0.084 Cl
HETATM    2  C   LIG     1      -2.887   0.857   0.635  1.00  0.00     0.035 A 
HETATM    3  C   LIG     1      -3.522  -0.332   0.265  1.00  0.00     0.025 A 
HETATM    4  C   LIG     1      -2.770  -1.409  -0.211  1.00  0.00     0.026 A 
HETATM    5  C   LIG     1      -1.378  -1.306  -0.320  1.00  0.00     0.045 A 
HETATM    6 CL   LIG     1      -0.478  -2.679  -0.956  1.00  0.00    -0.083 Cl
HETATM    7  C   LIG     1      -0.732  -0.108   0.052  1.00  0.00    -0.001 A 
HETATM    8  C   LIG     1      -1.497   0.968   0.531  1.00  0.00     0.038 A 
ENDROOT
BRANCH   7   9
HETATM    9  C   LIG     1       0.738   0.030  -0.035  1.00  0.00    -0.001 A 
HETATM   10  C   LIG     1       1.547  -0.711   0.840  1.00  0.00     0.014 A 
HETATM   11  C   LIG     1       2.936  -0.589   0.792  1.00  0.00     0.003 A 
HETATM   12  C   LIG     1       3.531   0.274  -0.129  1.00  0.00     0.026 A 
HETATM   13  C   LIG     1       2.741   1.020  -1.010  1.00  0.00     0.056 A 
HETATM   14 CL   LIG     1       3.537   2.090  -2.157  1.00  0.00    -0.083 Cl
HETATM   15  C   LIG     1       1.339   0.904  -0.969  1.00  0.00     0.066 A 
HETATM   16 CL   LIG     1       0.347   1.821  -2.106  1.00  0.00    -0.082 Cl
ENDBRANCH   7   9
TORSDOF 1
