REMARK  1 active torsions:
REMARK  status: ('A' for Active; 'I' for Inactive)
REMARK    1  A    between atoms: C_8  and  C_9 
ROOT
HETATM    1 CL   LIG     1      -0.611  -2.720   0.680  1.00  0.00    -0.083 Cl
HETATM    2  C   LIG     1      -1.450  -1.247   0.206  1.00  0.00     0.045 A 
HETATM    3  C   LIG     1      -2.844  -1.280   0.077  1.00  0.00     0.026 A 
HETATM    4  C   LIG     1      -3.542  -0.139  -0.328  1.00  0.00     0.025 A 
HETATM    5  C   LIG     1      -2.849   1.042  -0.611  1.00  0.00     0.035 A 
HETATM    6 CL   LIG     1      -3.727   2.471  -1.124  1.00  0.00    -0.084 Cl
HETATM    7  C   LIG     1      -1.457   1.083  -0.484  1.00  0.00     0.038 A 
HETATM    8  C   LIG     1      -0.749  -0.055  -0.067  1.00  0.00    -0.001 A 
ENDROOT
BRANCH   8   9
HETATM    9  C   LIG     1       0.720   0.018   0.060  1.00  0.00    -0.002 A 
HETATM   10  C   LIG     1       1.507   0.069  -1.101  1.00  0.00     0.016 A 
HETATM   11  C   LIG     1       2.899   0.136  -1.008  1.00  0.00     0.025 A 
HETATM   12  C   LIG     1       3.517   0.158   0.246  1.00  0.00     0.035 A 
HETATM   13  C   LIG     1       2.741   0.119   1.408  1.00  0.00     0.048 A 
HETATM   14 CL   LIG     1       5.266   0.243   0.360  1.00  0.00    -0.084 Cl
HETATM   15  C   LIG     1       1.345   0.052   1.324  1.00  0.00     0.046 A 
HETATM   16 CL   LIG     1       0.408   0.046   2.814  1.00  0.00    -0.083 Cl
ENDBRANCH   8   9
TORSDOF 1
