MODEL 1
REMARK VINA RESULT:      -4.3      0.000      0.000
REMARK  1 active torsions:
REMARK  status: ('A' for Active; 'I' for Inactive)
REMARK    1  A    between atoms: C_3  and  C_4 
ROOT
HETATM    1  C   LIG     1      17.553  34.790  26.127  1.00  0.00     0.036 C 
HETATM    2  C   LIG     1      18.279  36.045  26.506  1.00  0.00    -0.028 C 
HETATM    3  C   LIG     1      18.206  37.203  25.833  1.00  0.00     0.037 C 
ENDROOT
BRANCH   3   4
HETATM    4  C   LIG     1      17.409  37.447  24.614  1.00  0.00     0.258 C 
HETATM    5  O   LIG     1      16.341  38.115  24.629  1.00  0.00    -0.302 OA
ENDBRANCH   3   4
TORSDOF 1
ENDMDL
MODEL 2
REMARK VINA RESULT:      -3.9      1.680      2.627
REMARK  1 active torsions:
REMARK  status: ('A' for Active; 'I' for Inactive)
REMARK    1  A    between atoms: C_3  and  C_4 
ROOT
HETATM    1  C   LIG     1      17.452  37.897  25.494  1.00  0.00     0.036 C 
HETATM    2  C   LIG     1      18.455  37.063  26.232  1.00  0.00    -0.028 C 
HETATM    3  C   LIG     1      18.388  35.730  26.367  1.00  0.00     0.037 C 
ENDROOT
BRANCH   3   4
HETATM    4  C   LIG     1      17.331  34.856  25.822  1.00  0.00     0.258 C 
HETATM    5  O   LIG     1      17.186  34.664  24.585  1.00  0.00    -0.302 OA
ENDBRANCH   3   4
TORSDOF 1
ENDMDL
MODEL 3
REMARK VINA RESULT:      -3.6      5.115      5.672
REMARK  1 active torsions:
REMARK  status: ('A' for Active; 'I' for Inactive)
REMARK    1  A    between atoms: C_3  and  C_4 
ROOT
HETATM    1  C   LIG     1      17.459  37.223  21.393  1.00  0.00     0.036 C 
HETATM    2  C   LIG     1      17.920  38.594  21.785  1.00  0.00    -0.028 C 
HETATM    3  C   LIG     1      18.756  39.354  21.063  1.00  0.00     0.037 C 
ENDROOT
BRANCH   3   4
HETATM    4  C   LIG     1      19.366  38.984  19.770  1.00  0.00     0.258 C 
HETATM    5  O   LIG     1      20.479  39.438  19.395  1.00  0.00    -0.302 OA
ENDBRANCH   3   4
TORSDOF 1
ENDMDL
MODEL 4
REMARK VINA RESULT:      -3.5      2.730      3.418
REMARK  1 active torsions:
REMARK  status: ('A' for Active; 'I' for Inactive)
REMARK    1  A    between atoms: C_3  and  C_4 
ROOT
HETATM    1  C   LIG     1      16.887  35.184  22.215  1.00  0.00     0.036 C 
HETATM    2  C   LIG     1      17.107  36.503  21.540  1.00  0.00    -0.028 C 
HETATM    3  C   LIG     1      17.185  37.683  22.174  1.00  0.00     0.037 C 
ENDROOT
BRANCH   3   4
HETATM    4  C   LIG     1      17.070  37.892  23.631  1.00  0.00     0.258 C 
HETATM    5  O   LIG     1      15.957  37.994  24.212  1.00  0.00    -0.302 OA
ENDBRANCH   3   4
TORSDOF 1
ENDMDL
MODEL 5
REMARK VINA RESULT:      -3.5      2.620      4.117
REMARK  1 active torsions:
REMARK  status: ('A' for Active; 'I' for Inactive)
REMARK    1  A    between atoms: C_3  and  C_4 
ROOT
HETATM    1  C   LIG     1      18.326  39.231  21.739  1.00  0.00     0.036 C 
HETATM    2  C   LIG     1      17.752  37.883  21.427  1.00  0.00    -0.028 C 
HETATM    3  C   LIG     1      17.077  37.120  22.300  1.00  0.00     0.037 C 
ENDROOT
BRANCH   3   4
HETATM    4  C   LIG     1      16.781  37.465  23.704  1.00  0.00     0.258 C 
HETATM    5  O   LIG     1      15.720  38.052  24.046  1.00  0.00    -0.302 OA
ENDBRANCH   3   4
TORSDOF 1
ENDMDL
MODEL 6
REMARK VINA RESULT:      -3.5      4.946      5.721
REMARK  1 active torsions:
REMARK  status: ('A' for Active; 'I' for Inactive)
REMARK    1  A    between atoms: C_3  and  C_4 
ROOT
HETATM    1  C   LIG     1      19.143  36.905  19.504  1.00  0.00     0.036 C 
HETATM    2  C   LIG     1      19.695  38.296  19.561  1.00  0.00    -0.028 C 
HETATM    3  C   LIG     1      19.274  39.251  20.404  1.00  0.00     0.037 C 
ENDROOT
BRANCH   3   4
HETATM    4  C   LIG     1      18.208  39.106  21.415  1.00  0.00     0.258 C 
HETATM    5  O   LIG     1      18.454  38.847  22.623  1.00  0.00    -0.302 OA
ENDBRANCH   3   4
TORSDOF 1
ENDMDL
MODEL 7
REMARK VINA RESULT:      -3.5      2.328      3.243
REMARK  1 active torsions:
REMARK  status: ('A' for Active; 'I' for Inactive)
REMARK    1  A    between atoms: C_3  and  C_4 
ROOT
HETATM    1  C   LIG     1      17.156  36.132  21.267  1.00  0.00     0.036 C 
HETATM    2  C   LIG     1      17.055  35.258  22.479  1.00  0.00    -0.028 C 
HETATM    3  C   LIG     1      17.030  35.706  23.743  1.00  0.00     0.037 C 
ENDROOT
BRANCH   3   4
HETATM    4  C   LIG     1      17.098  37.120  24.163  1.00  0.00     0.258 C 
HETATM    5  O   LIG     1      16.073  37.846  24.254  1.00  0.00    -0.302 OA
ENDBRANCH   3   4
TORSDOF 1
ENDMDL
MODEL 8
REMARK VINA RESULT:      -3.4     11.369     11.867
REMARK  1 active torsions:
REMARK  status: ('A' for Active; 'I' for Inactive)
REMARK    1  A    between atoms: C_3  and  C_4 
ROOT
HETATM    1  C   LIG     1      14.766  30.258  14.552  1.00  0.00     0.036 C 
HETATM    2  C   LIG     1      13.376  30.216  15.107  1.00  0.00    -0.028 C 
HETATM    3  C   LIG     1      12.986  30.825  16.238  1.00  0.00     0.037 C 
ENDROOT
BRANCH   3   4
HETATM    4  C   LIG     1      13.844  31.634  17.126  1.00  0.00     0.258 C 
HETATM    5  O   LIG     1      14.077  31.307  18.320  1.00  0.00    -0.302 OA
ENDBRANCH   3   4
TORSDOF 1
ENDMDL
MODEL 9
REMARK VINA RESULT:      -3.4      2.489      3.649
REMARK  1 active torsions:
REMARK  status: ('A' for Active; 'I' for Inactive)
REMARK    1  A    between atoms: C_3  and  C_4 
ROOT
HETATM    1  C   LIG     1      17.361  36.502  21.259  1.00  0.00     0.036 C 
HETATM    2  C   LIG     1      17.606  37.929  21.642  1.00  0.00    -0.028 C 
HETATM    3  C   LIG     1      17.376  38.444  22.859  1.00  0.00     0.037 C 
ENDROOT
BRANCH   3   4
HETATM    4  C   LIG     1      16.846  37.709  24.024  1.00  0.00     0.258 C 
HETATM    5  O   LIG     1      16.718  38.244  25.158  1.00  0.00    -0.302 OA
ENDBRANCH   3   4
TORSDOF 1
ENDMDL
MODEL 10
REMARK VINA RESULT:      -3.3      8.385      8.850
REMARK  1 active torsions:
REMARK  status: ('A' for Active; 'I' for Inactive)
REMARK    1  A    between atoms: C_3  and  C_4 
ROOT
HETATM    1  C   LIG     1      15.426  32.952  19.880  1.00  0.00     0.036 C 
HETATM    2  C   LIG     1      15.014  32.186  18.661  1.00  0.00    -0.028 C 
HETATM    3  C   LIG     1      14.853  32.720  17.441  1.00  0.00     0.037 C 
ENDROOT
BRANCH   3   4
HETATM    4  C   LIG     1      15.050  34.139  17.084  1.00  0.00     0.258 C 
HETATM    5  O   LIG     1      15.952  34.516  16.290  1.00  0.00    -0.302 OA
ENDBRANCH   3   4
TORSDOF 1
ENDMDL
MODEL 11
REMARK VINA RESULT:      -3.3      5.955      6.902
REMARK  1 active torsions:
REMARK  status: ('A' for Active; 'I' for Inactive)
REMARK    1  A    between atoms: C_3  and  C_4 
ROOT
HETATM    1  C   LIG     1      18.244  39.109  21.185  1.00  0.00     0.036 C 
HETATM    2  C   LIG     1      19.630  38.989  20.629  1.00  0.00    -0.028 C 
HETATM    3  C   LIG     1      19.926  38.929  19.322  1.00  0.00     0.037 C 
ENDROOT
BRANCH   3   4
HETATM    4  C   LIG     1      18.954  38.970  18.211  1.00  0.00     0.258 C 
HETATM    5  O   LIG     1      18.495  40.051  17.757  1.00  0.00    -0.302 OA
ENDBRANCH   3   4
TORSDOF 1
ENDMDL
MODEL 12
REMARK VINA RESULT:      -3.3      9.013      9.417
REMARK  1 active torsions:
REMARK  status: ('A' for Active; 'I' for Inactive)
REMARK    1  A    between atoms: C_3  and  C_4 
ROOT
HETATM    1  C   LIG     1      14.852  31.231  20.055  1.00  0.00     0.036 C 
HETATM    2  C   LIG     1      15.268  32.347  19.146  1.00  0.00    -0.028 C 
HETATM    3  C   LIG     1      14.877  32.478  17.870  1.00  0.00     0.037 C 
ENDROOT
BRANCH   3   4
HETATM    4  C   LIG     1      13.979  31.561  17.140  1.00  0.00     0.258 C 
HETATM    5  O   LIG     1      12.731  31.732  17.095  1.00  0.00    -0.302 OA
ENDBRANCH   3   4
TORSDOF 1
ENDMDL
MODEL 13
REMARK VINA RESULT:      -3.2      4.713      5.284
REMARK  1 active torsions:
REMARK  status: ('A' for Active; 'I' for Inactive)
REMARK    1  A    between atoms: C_3  and  C_4 
ROOT
HETATM    1  C   LIG     1      16.969  35.808  21.855  1.00  0.00     0.036 C 
HETATM    2  C   LIG     1      17.375  37.243  21.712  1.00  0.00    -0.028 C 
HETATM    3  C   LIG     1      18.176  37.718  20.746  1.00  0.00     0.037 C 
ENDROOT
BRANCH   3   4
HETATM    4  C   LIG     1      18.794  36.925  19.665  1.00  0.00     0.258 C 
HETATM    5  O   LIG     1      18.183  36.646  18.600  1.00  0.00    -0.302 OA
ENDBRANCH   3   4
TORSDOF 1
ENDMDL
MODEL 14
REMARK VINA RESULT:      -3.2     12.322     12.791
REMARK  1 active torsions:
REMARK  status: ('A' for Active; 'I' for Inactive)
REMARK    1  A    between atoms: C_3  and  C_4 
ROOT
HETATM    1  C   LIG     1      13.487  30.703  15.829  1.00  0.00     0.036 C 
HETATM    2  C   LIG     1      14.031  29.975  14.638  1.00  0.00    -0.028 C 
HETATM    3  C   LIG     1      15.054  30.404  13.883  1.00  0.00     0.037 C 
ENDROOT
BRANCH   3   4
HETATM    4  C   LIG     1      15.817  31.651  14.086  1.00  0.00     0.258 C 
HETATM    5  O   LIG     1      16.824  31.710  14.841  1.00  0.00    -0.302 OA
ENDBRANCH   3   4
TORSDOF 1
ENDMDL
MODEL 15
REMARK VINA RESULT:      -3.2      3.975      4.907
REMARK  1 active torsions:
REMARK  status: ('A' for Active; 'I' for Inactive)
REMARK    1  A    between atoms: C_3  and  C_4 
ROOT
HETATM    1  C   LIG     1      18.938  39.355  20.491  1.00  0.00     0.036 C 
HETATM    2  C   LIG     1      18.341  39.343  21.865  1.00  0.00    -0.028 C 
HETATM    3  C   LIG     1      17.584  38.352  22.360  1.00  0.00     0.037 C 
ENDROOT
BRANCH   3   4
HETATM    4  C   LIG     1      17.208  37.112  21.652  1.00  0.00     0.258 C 
HETATM    5  O   LIG     1      17.110  36.003  22.241  1.00  0.00    -0.302 OA
ENDBRANCH   3   4
TORSDOF 1
ENDMDL
MODEL 16
REMARK VINA RESULT:      -3.2     10.908     11.397
REMARK  1 active torsions:
REMARK  status: ('A' for Active; 'I' for Inactive)
REMARK    1  A    between atoms: C_3  and  C_4 
ROOT
HETATM    1  C   LIG     1      13.111  30.745  16.064  1.00  0.00     0.036 C 
HETATM    2  C   LIG     1      14.349  30.726  15.221  1.00  0.00    -0.028 C 
HETATM    3  C   LIG     1      15.334  31.633  15.289  1.00  0.00     0.037 C 
ENDROOT
BRANCH   3   4
HETATM    4  C   LIG     1      15.377  32.799  16.195  1.00  0.00     0.258 C 
HETATM    5  O   LIG     1      16.062  33.825  15.941  1.00  0.00    -0.302 OA
ENDBRANCH   3   4
TORSDOF 1
ENDMDL
MODEL 17
REMARK VINA RESULT:      -3.2      4.421      4.996
REMARK  1 active torsions:
REMARK  status: ('A' for Active; 'I' for Inactive)
REMARK    1  A    between atoms: C_3  and  C_4 
ROOT
HETATM    1  C   LIG     1      16.387  38.065  22.699  1.00  0.00     0.036 C 
HETATM    2  C   LIG     1      17.199  37.287  21.710  1.00  0.00    -0.028 C 
HETATM    3  C   LIG     1      18.165  37.807  20.937  1.00  0.00     0.037 C 
ENDROOT
BRANCH   3   4
HETATM    4  C   LIG     1      18.596  39.219  20.922  1.00  0.00     0.258 C 
HETATM    5  O   LIG     1      19.180  39.735  19.932  1.00  0.00    -0.302 OA
ENDBRANCH   3   4
TORSDOF 1
ENDMDL
MODEL 18
REMARK VINA RESULT:      -3.1     13.463     13.917
REMARK  1 active torsions:
REMARK  status: ('A' for Active; 'I' for Inactive)
REMARK    1  A    between atoms: C_3  and  C_4 
ROOT
HETATM    1  C   LIG     1      13.235  30.378  15.410  1.00  0.00     0.036 C 
HETATM    2  C   LIG     1      14.612  30.637  14.882  1.00  0.00    -0.028 C 
HETATM    3  C   LIG     1      15.332  29.761  14.165  1.00  0.00     0.037 C 
ENDROOT
BRANCH   3   4
HETATM    4  C   LIG     1      14.905  28.403  13.773  1.00  0.00     0.258 C 
HETATM    5  O   LIG     1      15.687  27.416  13.797  1.00  0.00    -0.302 OA
ENDBRANCH   3   4
TORSDOF 1
ENDMDL
MODEL 19
REMARK VINA RESULT:      -3.1     11.094     11.593
REMARK  1 active torsions:
REMARK  status: ('A' for Active; 'I' for Inactive)
REMARK    1  A    between atoms: C_3  and  C_4 
ROOT
HETATM    1  C   LIG     1      15.083  30.299  14.060  1.00  0.00     0.036 C 
HETATM    2  C   LIG     1      14.361  30.765  15.287  1.00  0.00    -0.028 C 
HETATM    3  C   LIG     1      14.747  31.794  16.056  1.00  0.00     0.037 C 
ENDROOT
BRANCH   3   4
HETATM    4  C   LIG     1      15.936  32.642  15.837  1.00  0.00     0.258 C 
HETATM    5  O   LIG     1      15.922  33.886  16.033  1.00  0.00    -0.302 OA
ENDBRANCH   3   4
TORSDOF 1
ENDMDL
MODEL 20
REMARK VINA RESULT:      -2.9      4.318      5.051
REMARK  1 active torsions:
REMARK  status: ('A' for Active; 'I' for Inactive)
REMARK    1  A    between atoms: C_3  and  C_4 
ROOT
HETATM    1  C   LIG     1      18.305  36.684  20.102  1.00  0.00     0.036 C 
HETATM    2  C   LIG     1      17.563  37.054  21.349  1.00  0.00    -0.028 C 
HETATM    3  C   LIG     1      16.744  36.232  22.023  1.00  0.00     0.037 C 
ENDROOT
BRANCH   3   4
HETATM    4  C   LIG     1      16.429  34.836  21.662  1.00  0.00     0.258 C 
HETATM    5  O   LIG     1      15.255  34.450  21.421  1.00  0.00    -0.302 OA
ENDBRANCH   3   4
TORSDOF 1
ENDMDL
