REMARK  0 active torsions:
REMARK  status: ('A' for Active; 'I' for Inactive)
ROOT
HETATM    1  C   LIG     1      -0.302   2.185   0.209  1.00  0.00     0.050 C 
HETATM    2  C   LIG     1      -0.758   0.760   0.090  1.00  0.00    -0.033 A 
HETATM    3  C   LIG     1      -2.136   0.451   0.099  1.00  0.00     0.009 A 
HETATM    4  C   LIG     1      -2.580  -0.881  -0.012  1.00  0.00     0.002 A 
HETATM    5  C   LIG     1      -1.662  -1.933  -0.133  1.00  0.00     0.021 A 
HETATM    6  C   LIG     1      -0.305  -1.628  -0.142  1.00  0.00     0.036 A 
HETATM    7  C   LIG     1       0.150  -0.308  -0.032  1.00  0.00     0.065 A 
HETATM    8  N   LIG     1       1.502  -0.250  -0.064  1.00  0.00    -0.280 N 
HETATM    9  C   LIG     1       2.519   0.622  -0.011  1.00  0.00     0.241 A 
HETATM   10  N   LIG     1       3.696  -0.051  -0.104  1.00  0.00    -0.142 NA
HETATM   11  N   LIG     1       3.424  -1.353  -0.217  1.00  0.00    -0.122 NA
HETATM   12  C   LIG     1       2.085  -1.425  -0.187  1.00  0.00     0.201 A 
HETATM   13  S   LIG     1       1.009  -2.719  -0.278  1.00  0.00    -0.048 SA
ENDROOT
TORSDOF 0
