MODEL 1
REMARK VINA RESULT:      -6.8      0.000      0.000
REMARK  0 active torsions:
REMARK  status: ('A' for Active; 'I' for Inactive)
ROOT
HETATM    1  C   LIG     1      12.926  31.027  16.852  1.00  0.00     0.050 C 
HETATM    2  C   LIG     1      13.822  30.779  15.673  1.00  0.00    -0.033 A 
HETATM    3  C   LIG     1      13.631  29.639  14.862  1.00  0.00     0.009 A 
HETATM    4  C   LIG     1      14.462  29.392  13.752  1.00  0.00     0.002 A 
HETATM    5  C   LIG     1      15.502  30.274  13.427  1.00  0.00     0.021 A 
HETATM    6  C   LIG     1      15.689  31.397  14.226  1.00  0.00     0.036 A 
HETATM    7  C   LIG     1      14.870  31.654  15.333  1.00  0.00     0.065 A 
HETATM    8  N   LIG     1      15.235  32.797  15.959  1.00  0.00    -0.280 N 
HETATM    9  C   LIG     1      14.909  33.576  17.001  1.00  0.00     0.241 A 
HETATM   10  N   LIG     1      15.752  34.640  17.049  1.00  0.00    -0.142 NA
HETATM   11  N   LIG     1      16.614  34.537  16.035  1.00  0.00    -0.122 NA
HETATM   12  C   LIG     1      16.263  33.406  15.404  1.00  0.00     0.201 A 
HETATM   13  S   LIG     1      16.876  32.619  14.046  1.00  0.00    -0.048 SA
ENDROOT
TORSDOF 0
ENDMDL
MODEL 2
REMARK VINA RESULT:      -6.5      7.789      9.258
REMARK  0 active torsions:
REMARK  status: ('A' for Active; 'I' for Inactive)
ROOT
HETATM    1  C   LIG     1      16.553  35.088  21.077  1.00  0.00     0.050 C 
HETATM    2  C   LIG     1      17.403  36.249  20.649  1.00  0.00    -0.033 A 
HETATM    3  C   LIG     1      17.973  36.276  19.358  1.00  0.00     0.009 A 
HETATM    4  C   LIG     1      18.772  37.359  18.942  1.00  0.00     0.002 A 
HETATM    5  C   LIG     1      19.022  38.436  19.803  1.00  0.00     0.021 A 
HETATM    6  C   LIG     1      18.460  38.409  21.075  1.00  0.00     0.036 A 
HETATM    7  C   LIG     1      17.664  37.338  21.501  1.00  0.00     0.065 A 
HETATM    8  N   LIG     1      17.226  37.526  22.768  1.00  0.00    -0.280 N 
HETATM    9  C   LIG     1      16.484  36.945  23.722  1.00  0.00     0.241 A 
HETATM   10  N   LIG     1      16.466  37.737  24.826  1.00  0.00    -0.142 NA
HETATM   11  N   LIG     1      17.198  38.824  24.571  1.00  0.00    -0.122 NA
HETATM   12  C   LIG     1      17.639  38.651  23.316  1.00  0.00     0.201 A 
HETATM   13  S   LIG     1      18.609  39.590  22.307  1.00  0.00    -0.048 SA
ENDROOT
TORSDOF 0
ENDMDL
MODEL 3
REMARK VINA RESULT:      -6.4      6.811      9.265
REMARK  0 active torsions:
REMARK  status: ('A' for Active; 'I' for Inactive)
ROOT
HETATM    1  C   LIG     1      19.061  36.757  19.365  1.00  0.00     0.050 C 
HETATM    2  C   LIG     1      18.521  37.612  20.474  1.00  0.00    -0.033 A 
HETATM    3  C   LIG     1      19.166  38.820  20.819  1.00  0.00     0.009 A 
HETATM    4  C   LIG     1      18.672  39.633  21.858  1.00  0.00     0.002 A 
HETATM    5  C   LIG     1      17.527  39.261  22.575  1.00  0.00     0.021 A 
HETATM    6  C   LIG     1      16.892  38.071  22.234  1.00  0.00     0.036 A 
HETATM    7  C   LIG     1      17.373  37.253  21.204  1.00  0.00     0.065 A 
HETATM    8  N   LIG     1      16.601  36.152  21.050  1.00  0.00    -0.280 N 
HETATM    9  C   LIG     1      16.491  35.039  20.311  1.00  0.00     0.241 A 
HETATM   10  N   LIG     1      15.408  34.329  20.722  1.00  0.00    -0.142 NA
HETATM   11  N   LIG     1      14.829  34.994  21.723  1.00  0.00    -0.122 NA
HETATM   12  C   LIG     1      15.585  36.090  21.887  1.00  0.00     0.201 A 
HETATM   13  S   LIG     1      15.489  37.396  22.948  1.00  0.00    -0.048 SA
ENDROOT
TORSDOF 0
ENDMDL
MODEL 4
REMARK VINA RESULT:      -6.2      1.658      2.779
REMARK  0 active torsions:
REMARK  status: ('A' for Active; 'I' for Inactive)
ROOT
HETATM    1  C   LIG     1      15.259  33.749  17.514  1.00  0.00     0.050 C 
HETATM    2  C   LIG     1      14.716  32.585  16.738  1.00  0.00    -0.033 A 
HETATM    3  C   LIG     1      13.621  31.845  17.237  1.00  0.00     0.009 A 
HETATM    4  C   LIG     1      13.100  30.750  16.520  1.00  0.00     0.002 A 
HETATM    5  C   LIG     1      13.658  30.369  15.292  1.00  0.00     0.021 A 
HETATM    6  C   LIG     1      14.736  31.098  14.801  1.00  0.00     0.036 A 
HETATM    7  C   LIG     1      15.264  32.188  15.504  1.00  0.00     0.065 A 
HETATM    8  N   LIG     1      16.304  32.744  14.839  1.00  0.00    -0.280 N 
HETATM    9  C   LIG     1      17.199  33.738  14.929  1.00  0.00     0.241 A 
HETATM   10  N   LIG     1      18.007  33.718  13.836  1.00  0.00    -0.142 NA
HETATM   11  N   LIG     1      17.621  32.710  13.051  1.00  0.00    -0.122 NA
HETATM   12  C   LIG     1      16.589  32.150  13.699  1.00  0.00     0.201 A 
HETATM   13  S   LIG     1      15.590  30.841  13.338  1.00  0.00    -0.048 SA
ENDROOT
TORSDOF 0
ENDMDL
MODEL 5
REMARK VINA RESULT:      -6.1      7.461      9.497
REMARK  0 active torsions:
REMARK  status: ('A' for Active; 'I' for Inactive)
ROOT
HETATM    1  C   LIG     1      16.531  34.973  22.325  1.00  0.00     0.050 C 
HETATM    2  C   LIG     1      16.965  36.297  22.884  1.00  0.00    -0.033 A 
HETATM    3  C   LIG     1      16.723  36.612  24.239  1.00  0.00     0.009 A 
HETATM    4  C   LIG     1      17.124  37.849  24.778  1.00  0.00     0.002 A 
HETATM    5  C   LIG     1      17.773  38.801  23.979  1.00  0.00     0.021 A 
HETATM    6  C   LIG     1      18.012  38.490  22.645  1.00  0.00     0.036 A 
HETATM    7  C   LIG     1      17.618  37.263  22.096  1.00  0.00     0.065 A 
HETATM    8  N   LIG     1      17.951  37.181  20.786  1.00  0.00    -0.280 N 
HETATM    9  C   LIG     1      17.879  36.355  19.733  1.00  0.00     0.241 A 
HETATM   10  N   LIG     1      18.449  36.951  18.653  1.00  0.00    -0.142 NA
HETATM   11  N   LIG     1      18.884  38.158  19.023  1.00  0.00    -0.122 NA
HETATM   12  C   LIG     1      18.560  38.253  20.321  1.00  0.00     0.201 A 
HETATM   13  S   LIG     1      18.781  39.469  21.467  1.00  0.00    -0.048 SA
ENDROOT
TORSDOF 0
ENDMDL
MODEL 6
REMARK VINA RESULT:      -6.0      7.846      9.569
REMARK  0 active torsions:
REMARK  status: ('A' for Active; 'I' for Inactive)
ROOT
HETATM    1  C   LIG     1      19.008  40.002  21.375  1.00  0.00     0.050 C 
HETATM    2  C   LIG     1      18.593  38.659  20.850  1.00  0.00    -0.033 A 
HETATM    3  C   LIG     1      18.916  38.281  19.528  1.00  0.00     0.009 A 
HETATM    4  C   LIG     1      18.534  37.024  19.020  1.00  0.00     0.002 A 
HETATM    5  C   LIG     1      17.823  36.117  19.817  1.00  0.00     0.021 A 
HETATM    6  C   LIG     1      17.506  36.489  21.119  1.00  0.00     0.036 A 
HETATM    7  C   LIG     1      17.878  37.736  21.636  1.00  0.00     0.065 A 
HETATM    8  N   LIG     1      17.466  37.881  22.917  1.00  0.00    -0.280 N 
HETATM    9  C   LIG     1      17.481  38.753  23.936  1.00  0.00     0.241 A 
HETATM   10  N   LIG     1      16.836  38.212  25.003  1.00  0.00    -0.142 NA
HETATM   11  N   LIG     1      16.411  36.994  24.660  1.00  0.00    -0.122 NA
HETATM   12  C   LIG     1      16.814  36.838  23.390  1.00  0.00     0.201 A 
HETATM   13  S   LIG     1      16.652  35.573  22.288  1.00  0.00    -0.048 SA
ENDROOT
TORSDOF 0
ENDMDL
MODEL 7
REMARK VINA RESULT:      -5.7      7.269      8.705
REMARK  0 active torsions:
REMARK  status: ('A' for Active; 'I' for Inactive)
ROOT
HETATM    1  C   LIG     1      17.770  38.385  23.648  1.00  0.00     0.050 C 
HETATM    2  C   LIG     1      17.412  37.290  22.686  1.00  0.00    -0.033 A 
HETATM    3  C   LIG     1      16.597  36.215  23.104  1.00  0.00     0.009 A 
HETATM    4  C   LIG     1      16.252  35.179  22.213  1.00  0.00     0.002 A 
HETATM    5  C   LIG     1      16.712  35.192  20.890  1.00  0.00     0.021 A 
HETATM    6  C   LIG     1      17.515  36.251  20.479  1.00  0.00     0.036 A 
HETATM    7  C   LIG     1      17.865  37.286  21.354  1.00  0.00     0.065 A 
HETATM    8  N   LIG     1      18.648  38.204  20.740  1.00  0.00    -0.280 N 
HETATM    9  C   LIG     1      19.293  39.358  20.968  1.00  0.00     0.241 A 
HETATM   10  N   LIG     1      19.928  39.751  19.832  1.00  0.00    -0.142 NA
HETATM   11  N   LIG     1      19.684  38.845  18.883  1.00  0.00    -0.122 NA
HETATM   12  C   LIG     1      18.907  37.928  19.478  1.00  0.00     0.201 A 
HETATM   13  S   LIG     1      18.200  36.501  18.929  1.00  0.00    -0.048 SA
ENDROOT
TORSDOF 0
ENDMDL
MODEL 8
REMARK VINA RESULT:      -5.5      8.058      9.923
REMARK  0 active torsions:
REMARK  status: ('A' for Active; 'I' for Inactive)
ROOT
HETATM    1  C   LIG     1      17.773  39.008  21.518  1.00  0.00     0.050 C 
HETATM    2  C   LIG     1      17.460  37.544  21.619  1.00  0.00    -0.033 A 
HETATM    3  C   LIG     1      17.274  36.774  20.449  1.00  0.00     0.009 A 
HETATM    4  C   LIG     1      16.980  35.399  20.527  1.00  0.00     0.002 A 
HETATM    5  C   LIG     1      16.862  34.762  21.769  1.00  0.00     0.021 A 
HETATM    6  C   LIG     1      17.045  35.520  22.921  1.00  0.00     0.036 A 
HETATM    7  C   LIG     1      17.338  36.888  22.858  1.00  0.00     0.065 A 
HETATM    8  N   LIG     1      17.474  37.419  24.096  1.00  0.00    -0.280 N 
HETATM    9  C   LIG     1      17.733  38.576  24.722  1.00  0.00     0.241 A 
HETATM   10  N   LIG     1      17.711  38.377  26.066  1.00  0.00    -0.142 NA
HETATM   11  N   LIG     1      17.438  37.090  26.292  1.00  0.00    -0.122 NA
HETATM   12  C   LIG     1      17.302  36.551  25.072  1.00  0.00     0.201 A 
HETATM   13  S   LIG     1      16.957  34.987  24.547  1.00  0.00    -0.048 SA
ENDROOT
TORSDOF 0
ENDMDL
MODEL 9
REMARK VINA RESULT:      -5.3      7.209      9.726
REMARK  0 active torsions:
REMARK  status: ('A' for Active; 'I' for Inactive)
ROOT
HETATM    1  C   LIG     1      19.098  39.402  22.164  1.00  0.00     0.050 C 
HETATM    2  C   LIG     1      18.255  38.429  22.935  1.00  0.00    -0.033 A 
HETATM    3  C   LIG     1      18.060  38.601  24.323  1.00  0.00     0.009 A 
HETATM    4  C   LIG     1      17.271  37.697  25.061  1.00  0.00     0.002 A 
HETATM    5  C   LIG     1      16.661  36.603  24.433  1.00  0.00     0.021 A 
HETATM    6  C   LIG     1      16.853  36.434  23.066  1.00  0.00     0.036 A 
HETATM    7  C   LIG     1      17.635  37.325  22.320  1.00  0.00     0.065 A 
HETATM    8  N   LIG     1      17.681  36.966  21.016  1.00  0.00    -0.280 N 
HETATM    9  C   LIG     1      18.205  37.340  19.840  1.00  0.00     0.241 A 
HETATM   10  N   LIG     1      17.820  36.464  18.875  1.00  0.00    -0.142 NA
HETATM   11  N   LIG     1      17.051  35.532  19.442  1.00  0.00    -0.122 NA
HETATM   12  C   LIG     1      16.996  35.876  20.737  1.00  0.00     0.201 A 
HETATM   13  S   LIG     1      16.223  35.191  22.069  1.00  0.00    -0.048 SA
ENDROOT
TORSDOF 0
ENDMDL
MODEL 10
REMARK VINA RESULT:      -5.2      1.881      3.813
REMARK  0 active torsions:
REMARK  status: ('A' for Active; 'I' for Inactive)
ROOT
HETATM    1  C   LIG     1      15.364  34.252  17.311  1.00  0.00     0.050 C 
HETATM    2  C   LIG     1      15.967  33.694  16.055  1.00  0.00    -0.033 A 
HETATM    3  C   LIG     1      17.057  34.347  15.439  1.00  0.00     0.009 A 
HETATM    4  C   LIG     1      17.634  33.836  14.260  1.00  0.00     0.002 A 
HETATM    5  C   LIG     1      17.138  32.666  13.670  1.00  0.00     0.021 A 
HETATM    6  C   LIG     1      16.064  32.023  14.278  1.00  0.00     0.036 A 
HETATM    7  C   LIG     1      15.481  32.521  15.449  1.00  0.00     0.065 A 
HETATM    8  N   LIG     1      14.456  31.737  15.860  1.00  0.00    -0.280 N 
HETATM    9  C   LIG     1      13.534  31.632  16.827  1.00  0.00     0.241 A 
HETATM   10  N   LIG     1      12.774  30.527  16.608  1.00  0.00    -0.142 NA
HETATM   11  N   LIG     1      13.216  29.930  15.499  1.00  0.00    -0.122 NA
HETATM   12  C   LIG     1      14.234  30.697  15.082  1.00  0.00     0.201 A 
HETATM   13  S   LIG     1      15.278  30.590  13.763  1.00  0.00    -0.048 SA
ENDROOT
TORSDOF 0
ENDMDL
MODEL 11
REMARK VINA RESULT:      -4.1      7.022      8.656
REMARK  0 active torsions:
REMARK  status: ('A' for Active; 'I' for Inactive)
ROOT
HETATM    1  C   LIG     1      18.269  36.594  18.912  1.00  0.00     0.050 C 
HETATM    2  C   LIG     1      17.262  36.183  19.946  1.00  0.00    -0.033 A 
HETATM    3  C   LIG     1      16.387  35.103  19.696  1.00  0.00     0.009 A 
HETATM    4  C   LIG     1      15.436  34.705  20.656  1.00  0.00     0.002 A 
HETATM    5  C   LIG     1      15.336  35.374  21.884  1.00  0.00     0.021 A 
HETATM    6  C   LIG     1      16.198  36.438  22.129  1.00  0.00     0.036 A 
HETATM    7  C   LIG     1      17.148  36.844  21.183  1.00  0.00     0.065 A 
HETATM    8  N   LIG     1      17.874  37.893  21.635  1.00  0.00    -0.280 N 
HETATM    9  C   LIG     1      18.869  38.717  21.275  1.00  0.00     0.241 A 
HETATM   10  N   LIG     1      19.107  39.602  22.279  1.00  0.00    -0.142 NA
HETATM   11  N   LIG     1      18.261  39.338  23.277  1.00  0.00    -0.122 NA
HETATM   12  C   LIG     1      17.535  38.298  22.842  1.00  0.00     0.201 A 
HETATM   13  S   LIG     1      16.281  37.411  23.536  1.00  0.00    -0.048 SA
ENDROOT
TORSDOF 0
ENDMDL
MODEL 12
REMARK VINA RESULT:      -4.1      7.341      9.425
REMARK  0 active torsions:
REMARK  status: ('A' for Active; 'I' for Inactive)
ROOT
HETATM    1  C   LIG     1      22.800  37.237  10.009  1.00  0.00     0.050 C 
HETATM    2  C   LIG     1      23.026  36.530  11.314  1.00  0.00    -0.033 A 
HETATM    3  C   LIG     1      24.101  36.906  12.149  1.00  0.00     0.009 A 
HETATM    4  C   LIG     1      24.326  36.253  13.377  1.00  0.00     0.002 A 
HETATM    5  C   LIG     1      23.488  35.212  13.797  1.00  0.00     0.021 A 
HETATM    6  C   LIG     1      22.430  34.841  12.974  1.00  0.00     0.036 A 
HETATM    7  C   LIG     1      22.195  35.482  11.751  1.00  0.00     0.065 A 
HETATM    8  N   LIG     1      21.116  34.959  11.122  1.00  0.00    -0.280 N 
HETATM    9  C   LIG     1      20.386  35.086  10.005  1.00  0.00     0.241 A 
HETATM   10  N   LIG     1      19.378  34.175  10.018  1.00  0.00    -0.142 NA
HETATM   11  N   LIG     1      19.469  33.470  11.148  1.00  0.00    -0.122 NA
HETATM   12  C   LIG     1      20.535  33.979  11.783  1.00  0.00     0.201 A 
HETATM   13  S   LIG     1      21.271  33.612  13.254  1.00  0.00    -0.048 SA
ENDROOT
TORSDOF 0
ENDMDL
MODEL 13
REMARK VINA RESULT:      -4.0      4.842      6.557
REMARK  0 active torsions:
REMARK  status: ('A' for Active; 'I' for Inactive)
ROOT
HETATM    1  C   LIG     1      21.813  33.574  13.283  1.00  0.00     0.050 C 
HETATM    2  C   LIG     1      20.968  34.179  12.200  1.00  0.00    -0.033 A 
HETATM    3  C   LIG     1      21.571  34.692  11.030  1.00  0.00     0.009 A 
HETATM    4  C   LIG     1      20.792  35.263  10.005  1.00  0.00     0.002 A 
HETATM    5  C   LIG     1      19.398  35.337  10.123  1.00  0.00     0.021 A 
HETATM    6  C   LIG     1      18.805  34.831  11.275  1.00  0.00     0.036 A 
HETATM    7  C   LIG     1      19.567  34.261  12.302  1.00  0.00     0.065 A 
HETATM    8  N   LIG     1      18.782  33.838  13.320  1.00  0.00    -0.280 N 
HETATM    9  C   LIG     1      18.845  33.248  14.522  1.00  0.00     0.241 A 
HETATM   10  N   LIG     1      17.591  33.120  15.029  1.00  0.00    -0.142 NA
HETATM   11  N   LIG     1      16.730  33.629  14.145  1.00  0.00    -0.122 NA
HETATM   12  C   LIG     1      17.496  34.053  13.129  1.00  0.00     0.201 A 
HETATM   13  S   LIG     1      17.136  34.799  11.661  1.00  0.00    -0.048 SA
ENDROOT
TORSDOF 0
ENDMDL
MODEL 14
REMARK VINA RESULT:      -3.9     23.325     24.624
REMARK  0 active torsions:
REMARK  status: ('A' for Active; 'I' for Inactive)
ROOT
HETATM    1  C   LIG     1      30.107  32.240  37.282  1.00  0.00     0.050 C 
HETATM    2  C   LIG     1      28.674  31.810  37.163  1.00  0.00    -0.033 A 
HETATM    3  C   LIG     1      27.727  32.213  38.129  1.00  0.00     0.009 A 
HETATM    4  C   LIG     1      26.379  31.818  38.031  1.00  0.00     0.002 A 
HETATM    5  C   LIG     1      25.945  31.012  36.970  1.00  0.00     0.021 A 
HETATM    6  C   LIG     1      26.879  30.615  36.018  1.00  0.00     0.036 A 
HETATM    7  C   LIG     1      28.222  31.001  36.104  1.00  0.00     0.065 A 
HETATM    8  N   LIG     1      28.944  30.501  35.073  1.00  0.00    -0.280 N 
HETATM    9  C   LIG     1      30.188  30.477  34.574  1.00  0.00     0.241 A 
HETATM   10  N   LIG     1      30.204  29.732  33.438  1.00  0.00    -0.142 NA
HETATM   11  N   LIG     1      28.967  29.283  33.216  1.00  0.00    -0.122 NA
HETATM   12  C   LIG     1      28.240  29.772  34.231  1.00  0.00     0.201 A 
HETATM   13  S   LIG     1      26.609  29.639  34.636  1.00  0.00    -0.048 SA
ENDROOT
TORSDOF 0
ENDMDL
MODEL 15
REMARK VINA RESULT:      -3.9     14.582     14.812
REMARK  0 active torsions:
REMARK  status: ('A' for Active; 'I' for Inactive)
ROOT
HETATM    1  C   LIG     1      22.457  21.876  21.898  1.00  0.00     0.050 C 
HETATM    2  C   LIG     1      23.325  22.087  20.692  1.00  0.00    -0.033 A 
HETATM    3  C   LIG     1      22.810  21.863  19.396  1.00  0.00     0.009 A 
HETATM    4  C   LIG     1      23.611  22.058  18.255  1.00  0.00     0.002 A 
HETATM    5  C   LIG     1      24.942  22.477  18.378  1.00  0.00     0.021 A 
HETATM    6  C   LIG     1      25.450  22.698  19.655  1.00  0.00     0.036 A 
HETATM    7  C   LIG     1      24.664  22.508  20.798  1.00  0.00     0.065 A 
HETATM    8  N   LIG     1      25.362  22.782  21.925  1.00  0.00    -0.280 N 
HETATM    9  C   LIG     1      25.237  22.808  23.260  1.00  0.00     0.241 A 
HETATM   10  N   LIG     1      26.413  23.200  23.816  1.00  0.00    -0.142 NA
HETATM   11  N   LIG     1      27.286  23.424  22.831  1.00  0.00    -0.122 NA
HETATM   12  C   LIG     1      26.606  23.157  21.706  1.00  0.00     0.201 A 
HETATM   13  S   LIG     1      27.029  23.210  20.076  1.00  0.00    -0.048 SA
ENDROOT
TORSDOF 0
ENDMDL
