MODEL 1
REMARK VINA RESULT:      -5.9      0.000      0.000
REMARK  7 active torsions:
REMARK  status: ('A' for Active; 'I' for Inactive)
REMARK       I    between atoms: N_1  and  C_2 
REMARK    1  A    between atoms: C_2  and  O_3 
REMARK    2  A    between atoms: O_3  and  C_4 
REMARK    3  A    between atoms: C_4  and  C_5 
REMARK    4  A    between atoms: C_5  and  C_6 
REMARK    5  A    between atoms: C_6  and  C_7 
REMARK    6  A    between atoms: C_7  and  C_8 
REMARK    7  A    between atoms: C_8  and  C_9 
ROOT
HETATM    1  C   LIG     1      16.601  36.459  22.394  1.00  0.00     0.180 C 
ENDROOT
BRANCH   1   2
HETATM    2  O   LIG     1      15.536  36.068  21.529  1.00  0.00    -0.304 OA
BRANCH   2   3
HETATM    3  C   LIG     1      15.329  34.749  21.109  1.00  0.00     0.358 C 
HETATM    4  N   LIG     1      14.166  34.049  21.545  1.00  0.00    -0.346 N 
HETATM    5  H   LIG     1      13.474  34.519  22.170  1.00  0.00     0.161 HD
HETATM    6  H   LIG     1      13.997  33.064  21.243  1.00  0.00     0.161 HD
HETATM    7  O   LIG     1      16.160  34.172  20.357  1.00  0.00    -0.239 OA
ENDBRANCH   2   3
ENDBRANCH   1   2
BRANCH   1   8
HETATM    8  C   LIG     1      16.460  37.937  22.782  1.00  0.00     0.027 C 
BRANCH   8   9
HETATM    9  C   LIG     1      17.524  38.390  23.795  1.00  0.00     0.002 C 
BRANCH   9  10
HETATM   10  C   LIG     1      17.292  37.802  25.199  1.00  0.00     0.000 C 
BRANCH  10  11
HETATM   11  C   LIG     1      18.556  37.148  25.780  1.00  0.00    -0.000 C 
BRANCH  11  12
HETATM   12  C   LIG     1      18.239  35.955  26.694  1.00  0.00    -0.005 C 
HETATM   13  C   LIG     1      17.555  34.834  25.916  1.00  0.00     0.005 C 
ENDBRANCH  11  12
ENDBRANCH  10  11
ENDBRANCH   9  10
ENDBRANCH   8   9
ENDBRANCH   1   8
TORSDOF 7
ENDMDL
MODEL 2
REMARK VINA RESULT:      -5.7      3.444      3.806
REMARK  7 active torsions:
REMARK  status: ('A' for Active; 'I' for Inactive)
REMARK       I    between atoms: N_1  and  C_2 
REMARK    1  A    between atoms: C_2  and  O_3 
REMARK    2  A    between atoms: O_3  and  C_4 
REMARK    3  A    between atoms: C_4  and  C_5 
REMARK    4  A    between atoms: C_5  and  C_6 
REMARK    5  A    between atoms: C_6  and  C_7 
REMARK    6  A    between atoms: C_7  and  C_8 
REMARK    7  A    between atoms: C_8  and  C_9 
ROOT
HETATM    1  C   LIG     1      18.255  39.040  21.921  1.00  0.00     0.180 C 
ENDROOT
BRANCH   1   2
HETATM    2  O   LIG     1      18.442  39.314  20.534  1.00  0.00    -0.304 OA
BRANCH   2   3
HETATM    3  C   LIG     1      19.466  38.747  19.767  1.00  0.00     0.358 C 
HETATM    4  N   LIG     1      19.429  37.353  19.470  1.00  0.00    -0.346 N 
HETATM    5  H   LIG     1      18.643  36.762  19.820  1.00  0.00     0.161 HD
HETATM    6  H   LIG     1      20.187  36.912  18.901  1.00  0.00     0.161 HD
HETATM    7  O   LIG     1      20.421  39.451  19.342  1.00  0.00    -0.239 OA
ENDBRANCH   2   3
ENDBRANCH   1   2
BRANCH   1   8
HETATM    8  C   LIG     1      17.243  37.901  22.112  1.00  0.00     0.027 C 
BRANCH   8   9
HETATM    9  C   LIG     1      16.601  37.903  23.508  1.00  0.00     0.002 C 
BRANCH   9  10
HETATM   10  C   LIG     1      17.179  36.811  24.426  1.00  0.00     0.000 C 
BRANCH  10  11
HETATM   11  C   LIG     1      17.795  37.387  25.711  1.00  0.00    -0.000 C 
BRANCH  11  12
HETATM   12  C   LIG     1      18.393  36.303  26.619  1.00  0.00    -0.005 C 
HETATM   13  C   LIG     1      17.956  34.910  26.172  1.00  0.00     0.005 C 
ENDBRANCH  11  12
ENDBRANCH  10  11
ENDBRANCH   9  10
ENDBRANCH   8   9
ENDBRANCH   1   8
TORSDOF 7
ENDMDL
MODEL 3
REMARK VINA RESULT:      -5.6      3.434      4.104
REMARK  7 active torsions:
REMARK  status: ('A' for Active; 'I' for Inactive)
REMARK       I    between atoms: N_1  and  C_2 
REMARK    1  A    between atoms: C_2  and  O_3 
REMARK    2  A    between atoms: O_3  and  C_4 
REMARK    3  A    between atoms: C_4  and  C_5 
REMARK    4  A    between atoms: C_5  and  C_6 
REMARK    5  A    between atoms: C_6  and  C_7 
REMARK    6  A    between atoms: C_7  and  C_8 
REMARK    7  A    between atoms: C_8  and  C_9 
ROOT
HETATM    1  C   LIG     1      17.528  37.272  21.116  1.00  0.00     0.180 C 
ENDROOT
BRANCH   1   2
HETATM    2  O   LIG     1      18.735  37.687  20.477  1.00  0.00    -0.304 OA
BRANCH   2   3
HETATM    3  C   LIG     1      19.269  38.973  20.601  1.00  0.00     0.358 C 
HETATM    4  N   LIG     1      18.858  39.801  21.686  1.00  0.00    -0.346 N 
HETATM    5  H   LIG     1      18.166  39.448  22.383  1.00  0.00     0.161 HD
HETATM    6  H   LIG     1      19.246  40.766  21.793  1.00  0.00     0.161 HD
HETATM    7  O   LIG     1      20.104  39.410  19.763  1.00  0.00    -0.239 OA
ENDBRANCH   2   3
ENDBRANCH   1   2
BRANCH   1   8
HETATM    8  C   LIG     1      17.596  35.780  21.472  1.00  0.00     0.027 C 
BRANCH   8   9
HETATM    9  C   LIG     1      16.704  35.413  22.668  1.00  0.00     0.002 C 
BRANCH   9  10
HETATM   10  C   LIG     1      17.273  35.918  24.006  1.00  0.00     0.000 C 
BRANCH  10  11
HETATM   11  C   LIG     1      17.229  34.847  25.108  1.00  0.00    -0.000 C 
BRANCH  11  12
HETATM   12  C   LIG     1      18.260  35.096  26.218  1.00  0.00    -0.005 C 
HETATM   13  C   LIG     1      18.449  36.590  26.467  1.00  0.00     0.005 C 
ENDBRANCH  11  12
ENDBRANCH  10  11
ENDBRANCH   9  10
ENDBRANCH   8   9
ENDBRANCH   1   8
TORSDOF 7
ENDMDL
MODEL 4
REMARK VINA RESULT:      -5.6      2.313      3.819
REMARK  7 active torsions:
REMARK  status: ('A' for Active; 'I' for Inactive)
REMARK       I    between atoms: N_1  and  C_2 
REMARK    1  A    between atoms: C_2  and  O_3 
REMARK    2  A    between atoms: O_3  and  C_4 
REMARK    3  A    between atoms: C_4  and  C_5 
REMARK    4  A    between atoms: C_5  and  C_6 
REMARK    5  A    between atoms: C_6  and  C_7 
REMARK    6  A    between atoms: C_7  and  C_8 
REMARK    7  A    between atoms: C_8  and  C_9 
ROOT
HETATM    1  C   LIG     1      16.861  36.393  22.608  1.00  0.00     0.180 C 
ENDROOT
BRANCH   1   2
HETATM    2  O   LIG     1      16.030  36.386  21.448  1.00  0.00    -0.304 OA
BRANCH   2   3
HETATM    3  C   LIG     1      15.519  35.217  20.874  1.00  0.00     0.358 C 
HETATM    4  N   LIG     1      14.393  34.577  21.471  1.00  0.00    -0.346 N 
HETATM    5  H   LIG     1      13.953  34.980  22.327  1.00  0.00     0.161 HD
HETATM    6  H   LIG     1      14.000  33.702  21.057  1.00  0.00     0.161 HD
HETATM    7  O   LIG     1      16.045  34.720  19.842  1.00  0.00    -0.239 OA
ENDBRANCH   2   3
ENDBRANCH   1   2
BRANCH   1   8
HETATM    8  C   LIG     1      16.888  37.793  23.239  1.00  0.00     0.027 C 
BRANCH   8   9
HETATM    9  C   LIG     1      17.185  38.901  22.216  1.00  0.00     0.002 C 
BRANCH   9  10
HETATM   10  C   LIG     1      18.670  38.949  21.813  1.00  0.00     0.000 C 
BRANCH  10  11
HETATM   11  C   LIG     1      18.868  39.366  20.346  1.00  0.00    -0.000 C 
BRANCH  11  12
HETATM   12  C   LIG     1      19.716  38.361  19.554  1.00  0.00    -0.005 C 
HETATM   13  C   LIG     1      19.074  36.976  19.561  1.00  0.00     0.005 C 
ENDBRANCH  11  12
ENDBRANCH  10  11
ENDBRANCH   9  10
ENDBRANCH   8   9
ENDBRANCH   1   8
TORSDOF 7
ENDMDL
MODEL 5
REMARK VINA RESULT:      -5.5      1.313      1.422
REMARK  7 active torsions:
REMARK  status: ('A' for Active; 'I' for Inactive)
REMARK       I    between atoms: N_1  and  C_2 
REMARK    1  A    between atoms: C_2  and  O_3 
REMARK    2  A    between atoms: O_3  and  C_4 
REMARK    3  A    between atoms: C_4  and  C_5 
REMARK    4  A    between atoms: C_5  and  C_6 
REMARK    5  A    between atoms: C_6  and  C_7 
REMARK    6  A    between atoms: C_7  and  C_8 
REMARK    7  A    between atoms: C_8  and  C_9 
ROOT
HETATM    1  C   LIG     1      16.696  35.159  22.237  1.00  0.00     0.180 C 
ENDROOT
BRANCH   1   2
HETATM    2  O   LIG     1      15.551  34.765  21.483  1.00  0.00    -0.304 OA
BRANCH   2   3
HETATM    3  C   LIG     1      15.628  34.081  20.265  1.00  0.00     0.358 C 
HETATM    4  N   LIG     1      15.518  34.808  19.044  1.00  0.00    -0.346 N 
HETATM    5  H   LIG     1      15.386  35.843  19.060  1.00  0.00     0.161 HD
HETATM    6  H   LIG     1      15.571  34.313  18.126  1.00  0.00     0.161 HD
HETATM    7  O   LIG     1      15.785  32.830  20.235  1.00  0.00    -0.239 OA
ENDBRANCH   2   3
ENDBRANCH   1   2
BRANCH   1   8
HETATM    8  C   LIG     1      17.108  36.593  21.876  1.00  0.00     0.027 C 
BRANCH   8   9
HETATM    9  C   LIG     1      17.087  37.540  23.087  1.00  0.00     0.002 C 
BRANCH   9  10
HETATM   10  C   LIG     1      17.020  36.785  24.426  1.00  0.00     0.000 C 
BRANCH  10  11
HETATM   11  C   LIG     1      18.014  37.334  25.463  1.00  0.00    -0.000 C 
BRANCH  11  12
HETATM   12  C   LIG     1      18.416  36.288  26.511  1.00  0.00    -0.005 C 
HETATM   13  C   LIG     1      17.921  34.898  26.118  1.00  0.00     0.005 C 
ENDBRANCH  11  12
ENDBRANCH  10  11
ENDBRANCH   9  10
ENDBRANCH   8   9
ENDBRANCH   1   8
TORSDOF 7
ENDMDL
MODEL 6
REMARK VINA RESULT:      -5.3      1.917      2.822
REMARK  7 active torsions:
REMARK  status: ('A' for Active; 'I' for Inactive)
REMARK       I    between atoms: N_1  and  C_2 
REMARK    1  A    between atoms: C_2  and  O_3 
REMARK    2  A    between atoms: O_3  and  C_4 
REMARK    3  A    between atoms: C_4  and  C_5 
REMARK    4  A    between atoms: C_5  and  C_6 
REMARK    5  A    between atoms: C_6  and  C_7 
REMARK    6  A    between atoms: C_7  and  C_8 
REMARK    7  A    between atoms: C_8  and  C_9 
ROOT
HETATM    1  C   LIG     1      15.037  34.037  21.287  1.00  0.00     0.180 C 
ENDROOT
BRANCH   1   2
HETATM    2  O   LIG     1      15.550  33.353  20.144  1.00  0.00    -0.304 OA
BRANCH   2   3
HETATM    3  C   LIG     1      14.959  32.206  19.603  1.00  0.00     0.358 C 
HETATM    4  N   LIG     1      14.281  32.290  18.352  1.00  0.00    -0.346 N 
HETATM    5  H   LIG     1      14.230  33.199  17.843  1.00  0.00     0.161 HD
HETATM    6  H   LIG     1      13.833  31.443  17.935  1.00  0.00     0.161 HD
HETATM    7  O   LIG     1      15.014  31.103  20.211  1.00  0.00    -0.239 OA
ENDBRANCH   2   3
ENDBRANCH   1   2
BRANCH   1   8
HETATM    8  C   LIG     1      15.483  35.506  21.277  1.00  0.00     0.027 C 
BRANCH   8   9
HETATM    9  C   LIG     1      16.810  35.730  22.019  1.00  0.00     0.002 C 
BRANCH   9  10
HETATM   10  C   LIG     1      16.772  36.962  22.940  1.00  0.00     0.000 C 
BRANCH  10  11
HETATM   11  C   LIG     1      17.209  36.638  24.377  1.00  0.00    -0.000 C 
BRANCH  11  12
HETATM   12  C   LIG     1      17.302  35.128  24.642  1.00  0.00    -0.005 C 
HETATM   13  C   LIG     1      17.579  34.845  26.116  1.00  0.00     0.005 C 
ENDBRANCH  11  12
ENDBRANCH  10  11
ENDBRANCH   9  10
ENDBRANCH   8   9
ENDBRANCH   1   8
TORSDOF 7
ENDMDL
MODEL 7
REMARK VINA RESULT:      -5.3      3.598      5.330
REMARK  7 active torsions:
REMARK  status: ('A' for Active; 'I' for Inactive)
REMARK       I    between atoms: N_1  and  C_2 
REMARK    1  A    between atoms: C_2  and  O_3 
REMARK    2  A    between atoms: O_3  and  C_4 
REMARK    3  A    between atoms: C_4  and  C_5 
REMARK    4  A    between atoms: C_5  and  C_6 
REMARK    5  A    between atoms: C_6  and  C_7 
REMARK    6  A    between atoms: C_7  and  C_8 
REMARK    7  A    between atoms: C_8  and  C_9 
ROOT
HETATM    1  C   LIG     1      16.889  37.816  24.578  1.00  0.00     0.180 C 
ENDROOT
BRANCH   1   2
HETATM    2  O   LIG     1      17.884  36.836  24.872  1.00  0.00    -0.304 OA
BRANCH   2   3
HETATM    3  C   LIG     1      17.883  36.062  26.037  1.00  0.00     0.358 C 
HETATM    4  N   LIG     1      17.059  34.900  26.106  1.00  0.00    -0.346 N 
HETATM    5  H   LIG     1      16.466  34.629  25.291  1.00  0.00     0.161 HD
HETATM    6  H   LIG     1      17.044  34.312  26.969  1.00  0.00     0.161 HD
HETATM    7  O   LIG     1      18.595  36.382  27.028  1.00  0.00    -0.239 OA
ENDBRANCH   2   3
ENDBRANCH   1   2
BRANCH   1   8
HETATM    8  C   LIG     1      16.267  37.551  23.200  1.00  0.00     0.027 C 
BRANCH   8   9
HETATM    9  C   LIG     1      17.208  37.920  22.042  1.00  0.00     0.002 C 
BRANCH   9  10
HETATM   10  C   LIG     1      17.515  36.723  21.125  1.00  0.00     0.000 C 
BRANCH  10  11
HETATM   11  C   LIG     1      18.592  37.045  20.076  1.00  0.00    -0.000 C 
BRANCH  11  12
HETATM   12  C   LIG     1      18.917  38.544  20.001  1.00  0.00    -0.005 C 
HETATM   13  C   LIG     1      20.330  38.773  19.472  1.00  0.00     0.005 C 
ENDBRANCH  11  12
ENDBRANCH  10  11
ENDBRANCH   9  10
ENDBRANCH   8   9
ENDBRANCH   1   8
TORSDOF 7
ENDMDL
MODEL 8
REMARK VINA RESULT:      -5.3      3.113      4.194
REMARK  7 active torsions:
REMARK  status: ('A' for Active; 'I' for Inactive)
REMARK       I    between atoms: N_1  and  C_2 
REMARK    1  A    between atoms: C_2  and  O_3 
REMARK    2  A    between atoms: O_3  and  C_4 
REMARK    3  A    between atoms: C_4  and  C_5 
REMARK    4  A    between atoms: C_5  and  C_6 
REMARK    5  A    between atoms: C_6  and  C_7 
REMARK    6  A    between atoms: C_7  and  C_8 
REMARK    7  A    between atoms: C_8  and  C_9 
ROOT
HETATM    1  C   LIG     1      15.665  33.881  20.665  1.00  0.00     0.180 C 
ENDROOT
BRANCH   1   2
HETATM    2  O   LIG     1      15.673  33.047  19.508  1.00  0.00    -0.304 OA
BRANCH   2   3
HETATM    3  C   LIG     1      14.848  31.927  19.359  1.00  0.00     0.358 C 
HETATM    4  N   LIG     1      13.950  31.859  18.255  1.00  0.00    -0.346 N 
HETATM    5  H   LIG     1      13.911  32.638  17.562  1.00  0.00     0.161 HD
HETATM    6  H   LIG     1      13.325  31.031  18.130  1.00  0.00     0.161 HD
HETATM    7  O   LIG     1      14.886  30.981  20.193  1.00  0.00    -0.239 OA
ENDBRANCH   2   3
ENDBRANCH   1   2
BRANCH   1   8
HETATM    8  C   LIG     1      16.066  35.316  20.294  1.00  0.00     0.027 C 
BRANCH   8   9
HETATM    9  C   LIG     1      17.257  35.833  21.117  1.00  0.00     0.002 C 
BRANCH   9  10
HETATM   10  C   LIG     1      18.177  36.762  20.305  1.00  0.00     0.000 C 
BRANCH  10  11
HETATM   11  C   LIG     1      18.329  38.150  20.949  1.00  0.00    -0.000 C 
BRANCH  11  12
HETATM   12  C   LIG     1      17.831  38.187  22.400  1.00  0.00    -0.005 C 
HETATM   13  C   LIG     1      16.576  39.047  22.528  1.00  0.00     0.005 C 
ENDBRANCH  11  12
ENDBRANCH  10  11
ENDBRANCH   9  10
ENDBRANCH   8   9
ENDBRANCH   1   8
TORSDOF 7
ENDMDL
MODEL 9
REMARK VINA RESULT:      -5.0      6.359     10.020
REMARK  7 active torsions:
REMARK  status: ('A' for Active; 'I' for Inactive)
REMARK       I    between atoms: N_1  and  C_2 
REMARK    1  A    between atoms: C_2  and  O_3 
REMARK    2  A    between atoms: O_3  and  C_4 
REMARK    3  A    between atoms: C_4  and  C_5 
REMARK    4  A    between atoms: C_5  and  C_6 
REMARK    5  A    between atoms: C_6  and  C_7 
REMARK    6  A    between atoms: C_7  and  C_8 
REMARK    7  A    between atoms: C_8  and  C_9 
ROOT
HETATM    1  C   LIG     1      15.020  33.118  17.103  1.00  0.00     0.180 C 
ENDROOT
BRANCH   1   2
HETATM    2  O   LIG     1      15.716  32.496  18.181  1.00  0.00    -0.304 OA
BRANCH   2   3
HETATM    3  C   LIG     1      15.351  32.645  19.523  1.00  0.00     0.358 C 
HETATM    4  N   LIG     1      14.336  31.807  20.070  1.00  0.00    -0.346 N 
HETATM    5  H   LIG     1      13.873  31.086  19.474  1.00  0.00     0.161 HD
HETATM    6  H   LIG     1      14.049  31.906  21.070  1.00  0.00     0.161 HD
HETATM    7  O   LIG     1      15.902  33.515  20.251  1.00  0.00    -0.239 OA
ENDBRANCH   2   3
ENDBRANCH   1   2
BRANCH   1   8
HETATM    8  C   LIG     1      14.875  32.145  15.925  1.00  0.00     0.027 C 
BRANCH   8   9
HETATM    9  C   LIG     1      13.880  31.009  16.211  1.00  0.00     0.002 C 
BRANCH   9  10
HETATM   10  C   LIG     1      13.606  30.138  14.972  1.00  0.00     0.000 C 
BRANCH  10  11
HETATM   11  C   LIG     1      14.797  30.104  14.000  1.00  0.00    -0.000 C 
BRANCH  11  12
HETATM   12  C   LIG     1      15.410  28.704  13.862  1.00  0.00    -0.005 C 
HETATM   13  C   LIG     1      14.323  27.641  13.719  1.00  0.00     0.005 C 
ENDBRANCH  11  12
ENDBRANCH  10  11
ENDBRANCH   9  10
ENDBRANCH   8   9
ENDBRANCH   1   8
TORSDOF 7
ENDMDL
MODEL 10
REMARK VINA RESULT:      -5.0      4.082      5.733
REMARK  7 active torsions:
REMARK  status: ('A' for Active; 'I' for Inactive)
REMARK       I    between atoms: N_1  and  C_2 
REMARK    1  A    between atoms: C_2  and  O_3 
REMARK    2  A    between atoms: O_3  and  C_4 
REMARK    3  A    between atoms: C_4  and  C_5 
REMARK    4  A    between atoms: C_5  and  C_6 
REMARK    5  A    between atoms: C_6  and  C_7 
REMARK    6  A    between atoms: C_7  and  C_8 
REMARK    7  A    between atoms: C_8  and  C_9 
ROOT
HETATM    1  C   LIG     1      16.806  37.767  23.307  1.00  0.00     0.180 C 
ENDROOT
BRANCH   1   2
HETATM    2  O   LIG     1      17.770  37.281  24.240  1.00  0.00    -0.304 OA
BRANCH   2   3
HETATM    3  C   LIG     1      17.510  36.252  25.150  1.00  0.00     0.358 C 
HETATM    4  N   LIG     1      17.402  36.554  26.539  1.00  0.00    -0.346 N 
HETATM    5  H   LIG     1      17.513  37.537  26.872  1.00  0.00     0.161 HD
HETATM    6  H   LIG     1      17.211  35.797  27.233  1.00  0.00     0.161 HD
HETATM    7  O   LIG     1      17.377  35.060  24.759  1.00  0.00    -0.239 OA
ENDBRANCH   2   3
ENDBRANCH   1   2
BRANCH   1   8
HETATM    8  C   LIG     1      17.412  38.881  22.441  1.00  0.00     0.027 C 
BRANCH   8   9
HETATM    9  C   LIG     1      18.083  38.345  21.166  1.00  0.00     0.002 C 
BRANCH   9  10
HETATM   10  C   LIG     1      19.310  39.176  20.750  1.00  0.00     0.000 C 
BRANCH  10  11
HETATM   11  C   LIG     1      19.834  38.796  19.356  1.00  0.00    -0.000 C 
BRANCH  11  12
HETATM   12  C   LIG     1      18.706  38.588  18.335  1.00  0.00    -0.005 C 
HETATM   13  C   LIG     1      18.924  39.448  17.093  1.00  0.00     0.005 C 
ENDBRANCH  11  12
ENDBRANCH  10  11
ENDBRANCH   9  10
ENDBRANCH   8   9
ENDBRANCH   1   8
TORSDOF 7
ENDMDL
MODEL 11
REMARK VINA RESULT:      -4.9      3.108      6.353
REMARK  7 active torsions:
REMARK  status: ('A' for Active; 'I' for Inactive)
REMARK       I    between atoms: N_1  and  C_2 
REMARK    1  A    between atoms: C_2  and  O_3 
REMARK    2  A    between atoms: O_3  and  C_4 
REMARK    3  A    between atoms: C_4  and  C_5 
REMARK    4  A    between atoms: C_5  and  C_6 
REMARK    5  A    between atoms: C_6  and  C_7 
REMARK    6  A    between atoms: C_7  and  C_8 
REMARK    7  A    between atoms: C_8  and  C_9 
ROOT
HETATM    1  C   LIG     1      16.810  35.464  22.562  1.00  0.00     0.180 C 
ENDROOT
BRANCH   1   2
HETATM    2  O   LIG     1      17.150  36.749  23.082  1.00  0.00    -0.304 OA
BRANCH   2   3
HETATM    3  C   LIG     1      16.949  37.118  24.416  1.00  0.00     0.358 C 
HETATM    4  N   LIG     1      17.274  36.198  25.455  1.00  0.00    -0.346 N 
HETATM    5  H   LIG     1      17.662  35.258  25.221  1.00  0.00     0.161 HD
HETATM    6  H   LIG     1      17.128  36.456  26.457  1.00  0.00     0.161 HD
HETATM    7  O   LIG     1      16.478  38.250  24.709  1.00  0.00    -0.239 OA
ENDBRANCH   2   3
ENDBRANCH   1   2
BRANCH   1   8
HETATM    8  C   LIG     1      15.559  35.559  21.677  1.00  0.00     0.027 C 
BRANCH   8   9
HETATM    9  C   LIG     1      14.977  34.181  21.321  1.00  0.00     0.002 C 
BRANCH   9  10
HETATM   10  C   LIG     1      15.794  33.458  20.235  1.00  0.00     0.000 C 
BRANCH  10  11
HETATM   11  C   LIG     1      14.991  32.351  19.533  1.00  0.00    -0.000 C 
BRANCH  11  12
HETATM   12  C   LIG     1      15.077  32.436  18.002  1.00  0.00    -0.005 C 
HETATM   13  C   LIG     1      13.927  31.680  17.344  1.00  0.00     0.005 C 
ENDBRANCH  11  12
ENDBRANCH  10  11
ENDBRANCH   9  10
ENDBRANCH   8   9
ENDBRANCH   1   8
TORSDOF 7
ENDMDL
MODEL 12
REMARK VINA RESULT:      -4.8      3.574      5.316
REMARK  7 active torsions:
REMARK  status: ('A' for Active; 'I' for Inactive)
REMARK       I    between atoms: N_1  and  C_2 
REMARK    1  A    between atoms: C_2  and  O_3 
REMARK    2  A    between atoms: O_3  and  C_4 
REMARK    3  A    between atoms: C_4  and  C_5 
REMARK    4  A    between atoms: C_5  and  C_6 
REMARK    5  A    between atoms: C_6  and  C_7 
REMARK    6  A    between atoms: C_7  and  C_8 
REMARK    7  A    between atoms: C_8  and  C_9 
ROOT
HETATM    1  C   LIG     1      15.343  32.526  18.636  1.00  0.00     0.180 C 
ENDROOT
BRANCH   1   2
HETATM    2  O   LIG     1      14.250  31.629  18.445  1.00  0.00    -0.304 OA
BRANCH   2   3
HETATM    3  C   LIG     1      13.634  31.417  17.207  1.00  0.00     0.358 C 
HETATM    4  N   LIG     1      12.248  31.712  17.054  1.00  0.00    -0.346 N 
HETATM    5  H   LIG     1      11.699  32.087  17.859  1.00  0.00     0.161 HD
HETATM    6  H   LIG     1      11.771  31.558  16.137  1.00  0.00     0.161 HD
HETATM    7  O   LIG     1      14.287  30.963  16.229  1.00  0.00    -0.239 OA
ENDBRANCH   2   3
ENDBRANCH   1   2
BRANCH   1   8
HETATM    8  C   LIG     1      15.376  33.031  20.085  1.00  0.00     0.027 C 
BRANCH   8   9
HETATM    9  C   LIG     1      15.719  34.525  20.187  1.00  0.00     0.002 C 
BRANCH   9  10
HETATM   10  C   LIG     1      16.490  34.868  21.474  1.00  0.00     0.000 C 
BRANCH  10  11
HETATM   11  C   LIG     1      17.293  36.174  21.350  1.00  0.00    -0.000 C 
BRANCH  11  12
HETATM   12  C   LIG     1      16.949  37.187  22.450  1.00  0.00    -0.005 C 
HETATM   13  C   LIG     1      17.361  38.600  22.044  1.00  0.00     0.005 C 
ENDBRANCH  11  12
ENDBRANCH  10  11
ENDBRANCH   9  10
ENDBRANCH   8   9
ENDBRANCH   1   8
TORSDOF 7
ENDMDL
MODEL 13
REMARK VINA RESULT:      -4.8      7.531     10.171
REMARK  7 active torsions:
REMARK  status: ('A' for Active; 'I' for Inactive)
REMARK       I    between atoms: N_1  and  C_2 
REMARK    1  A    between atoms: C_2  and  O_3 
REMARK    2  A    between atoms: O_3  and  C_4 
REMARK    3  A    between atoms: C_4  and  C_5 
REMARK    4  A    between atoms: C_5  and  C_6 
REMARK    5  A    between atoms: C_6  and  C_7 
REMARK    6  A    between atoms: C_7  and  C_8 
REMARK    7  A    between atoms: C_8  and  C_9 
ROOT
HETATM    1  C   LIG     1      16.522  32.338  15.430  1.00  0.00     0.180 C 
ENDROOT
BRANCH   1   2
HETATM    2  O   LIG     1      16.252  33.653  15.915  1.00  0.00    -0.304 OA
BRANCH   2   3
HETATM    3  C   LIG     1      15.286  33.932  16.888  1.00  0.00     0.358 C 
HETATM    4  N   LIG     1      15.337  33.255  18.141  1.00  0.00    -0.346 N 
HETATM    5  H   LIG     1      16.091  32.559  18.332  1.00  0.00     0.161 HD
HETATM    6  H   LIG     1      14.622  33.449  18.878  1.00  0.00     0.161 HD
HETATM    7  O   LIG     1      14.369  34.768  16.666  1.00  0.00    -0.239 OA
ENDBRANCH   2   3
ENDBRANCH   1   2
BRANCH   1   8
HETATM    8  C   LIG     1      16.431  32.304  13.898  1.00  0.00     0.027 C 
BRANCH   8   9
HETATM    9  C   LIG     1      15.441  31.246  13.384  1.00  0.00     0.002 C 
BRANCH   9  10
HETATM   10  C   LIG     1      15.458  29.961  14.230  1.00  0.00     0.000 C 
BRANCH  10  11
HETATM   11  C   LIG     1      14.053  29.370  14.433  1.00  0.00    -0.000 C 
BRANCH  11  12
HETATM   12  C   LIG     1      13.072  30.374  15.054  1.00  0.00    -0.005 C 
HETATM   13  C   LIG     1      13.430  30.663  16.509  1.00  0.00     0.005 C 
ENDBRANCH  11  12
ENDBRANCH  10  11
ENDBRANCH   9  10
ENDBRANCH   8   9
ENDBRANCH   1   8
TORSDOF 7
ENDMDL
MODEL 14
REMARK VINA RESULT:      -4.8      7.964     10.110
REMARK  7 active torsions:
REMARK  status: ('A' for Active; 'I' for Inactive)
REMARK       I    between atoms: N_1  and  C_2 
REMARK    1  A    between atoms: C_2  and  O_3 
REMARK    2  A    between atoms: O_3  and  C_4 
REMARK    3  A    between atoms: C_4  and  C_5 
REMARK    4  A    between atoms: C_5  and  C_6 
REMARK    5  A    between atoms: C_6  and  C_7 
REMARK    6  A    between atoms: C_7  and  C_8 
REMARK    7  A    between atoms: C_8  and  C_9 
ROOT
HETATM    1  C   LIG     1      15.932  31.628  13.350  1.00  0.00     0.180 C 
ENDROOT
BRANCH   1   2
HETATM    2  O   LIG     1      16.744  31.927  14.485  1.00  0.00    -0.304 OA
BRANCH   2   3
HETATM    3  C   LIG     1      17.495  33.100  14.608  1.00  0.00     0.358 C 
HETATM    4  N   LIG     1      17.135  34.063  15.595  1.00  0.00    -0.346 N 
HETATM    5  H   LIG     1      16.319  33.891  16.223  1.00  0.00     0.161 HD
HETATM    6  H   LIG     1      17.684  34.946  15.699  1.00  0.00     0.161 HD
HETATM    7  O   LIG     1      18.481  33.318  13.853  1.00  0.00    -0.239 OA
ENDBRANCH   2   3
ENDBRANCH   1   2
BRANCH   1   8
HETATM    8  C   LIG     1      15.126  30.343  13.591  1.00  0.00     0.027 C 
BRANCH   8   9
HETATM    9  C   LIG     1      14.736  30.153  15.065  1.00  0.00     0.002 C 
BRANCH   9  10
HETATM   10  C   LIG     1      13.252  30.465  15.329  1.00  0.00     0.000 C 
BRANCH  10  11
HETATM   11  C   LIG     1      13.041  31.277  16.617  1.00  0.00    -0.000 C 
BRANCH  11  12
HETATM   12  C   LIG     1      14.299  32.043  17.048  1.00  0.00    -0.005 C 
HETATM   13  C   LIG     1      14.569  31.861  18.540  1.00  0.00     0.005 C 
ENDBRANCH  11  12
ENDBRANCH  10  11
ENDBRANCH   9  10
ENDBRANCH   8   9
ENDBRANCH   1   8
TORSDOF 7
ENDMDL
MODEL 15
REMARK VINA RESULT:      -4.5      6.895      9.434
REMARK  7 active torsions:
REMARK  status: ('A' for Active; 'I' for Inactive)
REMARK       I    between atoms: N_1  and  C_2 
REMARK    1  A    between atoms: C_2  and  O_3 
REMARK    2  A    between atoms: O_3  and  C_4 
REMARK    3  A    between atoms: C_4  and  C_5 
REMARK    4  A    between atoms: C_5  and  C_6 
REMARK    5  A    between atoms: C_6  and  C_7 
REMARK    6  A    between atoms: C_7  and  C_8 
REMARK    7  A    between atoms: C_8  and  C_9 
ROOT
HETATM    1  C   LIG     1      14.556  30.512  14.989  1.00  0.00     0.180 C 
ENDROOT
BRANCH   1   2
HETATM    2  O   LIG     1      14.245  29.769  13.811  1.00  0.00    -0.304 OA
BRANCH   2   3
HETATM    3  C   LIG     1      14.043  28.385  13.803  1.00  0.00     0.358 C 
HETATM    4  N   LIG     1      12.714  27.871  13.791  1.00  0.00    -0.346 N 
HETATM    5  H   LIG     1      11.899  28.523  13.784  1.00  0.00     0.161 HD
HETATM    6  H   LIG     1      12.545  26.840  13.788  1.00  0.00     0.161 HD
HETATM    7  O   LIG     1      15.021  27.589  13.814  1.00  0.00    -0.239 OA
ENDBRANCH   2   3
ENDBRANCH   1   2
BRANCH   1   8
HETATM    8  C   LIG     1      13.318  30.632  15.889  1.00  0.00     0.027 C 
BRANCH   8   9
HETATM    9  C   LIG     1      13.392  31.832  16.846  1.00  0.00     0.002 C 
BRANCH   9  10
HETATM   10  C   LIG     1      14.179  31.516  18.130  1.00  0.00     0.000 C 
BRANCH  10  11
HETATM   11  C   LIG     1      15.199  32.612  18.481  1.00  0.00    -0.000 C 
BRANCH  11  12
HETATM   12  C   LIG     1      15.562  32.627  19.973  1.00  0.00    -0.005 C 
HETATM   13  C   LIG     1      15.687  34.057  20.493  1.00  0.00     0.005 C 
ENDBRANCH  11  12
ENDBRANCH  10  11
ENDBRANCH   9  10
ENDBRANCH   8   9
ENDBRANCH   1   8
TORSDOF 7
ENDMDL
MODEL 16
REMARK VINA RESULT:      -4.5      6.393      9.390
REMARK  7 active torsions:
REMARK  status: ('A' for Active; 'I' for Inactive)
REMARK       I    between atoms: N_1  and  C_2 
REMARK    1  A    between atoms: C_2  and  O_3 
REMARK    2  A    between atoms: O_3  and  C_4 
REMARK    3  A    between atoms: C_4  and  C_5 
REMARK    4  A    between atoms: C_5  and  C_6 
REMARK    5  A    between atoms: C_6  and  C_7 
REMARK    6  A    between atoms: C_7  and  C_8 
REMARK    7  A    between atoms: C_8  and  C_9 
ROOT
HETATM    1  C   LIG     1      14.770  32.847  17.226  1.00  0.00     0.180 C 
ENDROOT
BRANCH   1   2
HETATM    2  O   LIG     1      15.529  32.450  18.366  1.00  0.00    -0.304 OA
BRANCH   2   3
HETATM    3  C   LIG     1      14.961  32.191  19.618  1.00  0.00     0.358 C 
HETATM    4  N   LIG     1      14.785  33.261  20.543  1.00  0.00    -0.346 N 
HETATM    5  H   LIG     1      15.075  34.230  20.285  1.00  0.00     0.161 HD
HETATM    6  H   LIG     1      14.364  33.086  21.483  1.00  0.00     0.161 HD
HETATM    7  O   LIG     1      14.609  31.023  19.940  1.00  0.00    -0.239 OA
ENDBRANCH   2   3
ENDBRANCH   1   2
BRANCH   1   8
HETATM    8  C   LIG     1      14.445  31.631  16.347  1.00  0.00     0.027 C 
BRANCH   8   9
HETATM    9  C   LIG     1      15.349  31.533  15.108  1.00  0.00     0.002 C 
BRANCH   9  10
HETATM   10  C   LIG     1      16.385  32.670  15.042  1.00  0.00     0.000 C 
BRANCH  10  11
HETATM   11  C   LIG     1      16.914  32.902  13.617  1.00  0.00    -0.000 C 
BRANCH  11  12
HETATM   12  C   LIG     1      18.293  33.577  13.599  1.00  0.00    -0.005 C 
HETATM   13  C   LIG     1      18.846  33.659  12.179  1.00  0.00     0.005 C 
ENDBRANCH  11  12
ENDBRANCH  10  11
ENDBRANCH   9  10
ENDBRANCH   8   9
ENDBRANCH   1   8
TORSDOF 7
ENDMDL
MODEL 17
REMARK VINA RESULT:      -4.5      3.383      5.375
REMARK  7 active torsions:
REMARK  status: ('A' for Active; 'I' for Inactive)
REMARK       I    between atoms: N_1  and  C_2 
REMARK    1  A    between atoms: C_2  and  O_3 
REMARK    2  A    between atoms: O_3  and  C_4 
REMARK    3  A    between atoms: C_4  and  C_5 
REMARK    4  A    between atoms: C_5  and  C_6 
REMARK    5  A    between atoms: C_6  and  C_7 
REMARK    6  A    between atoms: C_7  and  C_8 
REMARK    7  A    between atoms: C_8  and  C_9 
ROOT
HETATM    1  C   LIG     1      17.116  35.442  22.369  1.00  0.00     0.180 C 
ENDROOT
BRANCH   1   2
HETATM    2  O   LIG     1      16.688  36.346  23.386  1.00  0.00    -0.304 OA
BRANCH   2   3
HETATM    3  C   LIG     1      16.533  37.721  23.179  1.00  0.00     0.358 C 
HETATM    4  N   LIG     1      15.223  38.284  23.164  1.00  0.00    -0.346 N 
HETATM    5  H   LIG     1      14.389  37.676  23.310  1.00  0.00     0.161 HD
HETATM    6  H   LIG     1      15.089  39.309  23.008  1.00  0.00     0.161 HD
HETATM    7  O   LIG     1      17.535  38.465  22.999  1.00  0.00    -0.239 OA
ENDBRANCH   2   3
ENDBRANCH   1   2
BRANCH   1   8
HETATM    8  C   LIG     1      16.311  35.663  21.081  1.00  0.00     0.027 C 
BRANCH   8   9
HETATM    9  C   LIG     1      17.148  36.295  19.957  1.00  0.00     0.002 C 
BRANCH   9  10
HETATM   10  C   LIG     1      18.623  36.483  20.354  1.00  0.00     0.000 C 
BRANCH  10  11
HETATM   11  C   LIG     1      19.403  37.334  19.338  1.00  0.00    -0.000 C 
BRANCH  11  12
HETATM   12  C   LIG     1      18.860  38.765  19.223  1.00  0.00    -0.005 C 
HETATM   13  C   LIG     1      18.864  39.239  17.772  1.00  0.00     0.005 C 
ENDBRANCH  11  12
ENDBRANCH  10  11
ENDBRANCH   9  10
ENDBRANCH   8   9
ENDBRANCH   1   8
TORSDOF 7
ENDMDL
MODEL 18
REMARK VINA RESULT:      -4.4      9.796     11.121
REMARK  7 active torsions:
REMARK  status: ('A' for Active; 'I' for Inactive)
REMARK       I    between atoms: N_1  and  C_2 
REMARK    1  A    between atoms: C_2  and  O_3 
REMARK    2  A    between atoms: O_3  and  C_4 
REMARK    3  A    between atoms: C_4  and  C_5 
REMARK    4  A    between atoms: C_5  and  C_6 
REMARK    5  A    between atoms: C_6  and  C_7 
REMARK    6  A    between atoms: C_7  and  C_8 
REMARK    7  A    between atoms: C_8  and  C_9 
ROOT
HETATM    1  C   LIG     1      18.112  33.286  14.162  1.00  0.00     0.180 C 
ENDROOT
BRANCH   1   2
HETATM    2  O   LIG     1      17.429  34.393  13.577  1.00  0.00    -0.304 OA
BRANCH   2   3
HETATM    3  C   LIG     1      17.597  34.786  12.245  1.00  0.00     0.358 C 
HETATM    4  N   LIG     1      18.454  34.029  11.394  1.00  0.00    -0.346 N 
HETATM    5  H   LIG     1      18.950  33.188  11.762  1.00  0.00     0.161 HD
HETATM    6  H   LIG     1      18.593  34.309  10.397  1.00  0.00     0.161 HD
HETATM    7  O   LIG     1      17.004  35.802  11.791  1.00  0.00    -0.239 OA
ENDBRANCH   2   3
ENDBRANCH   1   2
BRANCH   1   8
HETATM    8  C   LIG     1      17.257  32.652  15.268  1.00  0.00     0.027 C 
BRANCH   8   9
HETATM    9  C   LIG     1      15.822  32.349  14.811  1.00  0.00     0.002 C 
BRANCH   9  10
HETATM   10  C   LIG     1      15.778  31.465  13.551  1.00  0.00     0.000 C 
BRANCH  10  11
HETATM   11  C   LIG     1      14.899  30.217  13.738  1.00  0.00    -0.000 C 
BRANCH  11  12
HETATM   12  C   LIG     1      14.385  30.064  15.176  1.00  0.00    -0.005 C 
HETATM   13  C   LIG     1      12.872  30.261  15.243  1.00  0.00     0.005 C 
ENDBRANCH  11  12
ENDBRANCH  10  11
ENDBRANCH   9  10
ENDBRANCH   8   9
ENDBRANCH   1   8
TORSDOF 7
ENDMDL
MODEL 19
REMARK VINA RESULT:      -4.3      4.585      6.704
REMARK  7 active torsions:
REMARK  status: ('A' for Active; 'I' for Inactive)
REMARK       I    between atoms: N_1  and  C_2 
REMARK    1  A    between atoms: C_2  and  O_3 
REMARK    2  A    between atoms: O_3  and  C_4 
REMARK    3  A    between atoms: C_4  and  C_5 
REMARK    4  A    between atoms: C_5  and  C_6 
REMARK    5  A    between atoms: C_6  and  C_7 
REMARK    6  A    between atoms: C_7  and  C_8 
REMARK    7  A    between atoms: C_8  and  C_9 
ROOT
HETATM    1  C   LIG     1      15.464  33.345  16.863  1.00  0.00     0.180 C 
ENDROOT
BRANCH   1   2
HETATM    2  O   LIG     1      15.326  32.928  15.505  1.00  0.00    -0.304 OA
BRANCH   2   3
HETATM    3  C   LIG     1      16.393  32.467  14.728  1.00  0.00     0.358 C 
HETATM    4  N   LIG     1      16.232  32.344  13.317  1.00  0.00    -0.346 N 
HETATM    5  H   LIG     1      15.326  32.601  12.869  1.00  0.00     0.161 HD
HETATM    6  H   LIG     1      17.019  31.999  12.722  1.00  0.00     0.161 HD
HETATM    7  O   LIG     1      17.492  32.152  15.261  1.00  0.00    -0.239 OA
ENDBRANCH   2   3
ENDBRANCH   1   2
BRANCH   1   8
HETATM    8  C   LIG     1      14.895  32.281  17.811  1.00  0.00     0.027 C 
BRANCH   8   9
HETATM    9  C   LIG     1      15.241  32.550  19.284  1.00  0.00     0.002 C 
BRANCH   9  10
HETATM   10  C   LIG     1      15.512  34.039  19.565  1.00  0.00     0.000 C 
BRANCH  10  11
HETATM   11  C   LIG     1      15.994  34.290  21.003  1.00  0.00    -0.000 C 
BRANCH  11  12
HETATM   12  C   LIG     1      16.932  35.500  21.112  1.00  0.00    -0.005 C 
HETATM   13  C   LIG     1      16.788  36.186  22.468  1.00  0.00     0.005 C 
ENDBRANCH  11  12
ENDBRANCH  10  11
ENDBRANCH   9  10
ENDBRANCH   8   9
ENDBRANCH   1   8
TORSDOF 7
ENDMDL
MODEL 20
REMARK VINA RESULT:      -4.3      7.742     11.288
REMARK  7 active torsions:
REMARK  status: ('A' for Active; 'I' for Inactive)
REMARK       I    between atoms: N_1  and  C_2 
REMARK    1  A    between atoms: C_2  and  O_3 
REMARK    2  A    between atoms: O_3  and  C_4 
REMARK    3  A    between atoms: C_4  and  C_5 
REMARK    4  A    between atoms: C_5  and  C_6 
REMARK    5  A    between atoms: C_6  and  C_7 
REMARK    6  A    between atoms: C_7  and  C_8 
REMARK    7  A    between atoms: C_8  and  C_9 
ROOT
HETATM    1  C   LIG     1      16.016  32.245  15.570  1.00  0.00     0.180 C 
ENDROOT
BRANCH   1   2
HETATM    2  O   LIG     1      14.833  32.591  16.288  1.00  0.00    -0.304 OA
BRANCH   2   3
HETATM    3  C   LIG     1      14.668  32.363  17.658  1.00  0.00     0.358 C 
HETATM    4  N   LIG     1      15.252  33.264  18.594  1.00  0.00    -0.346 N 
HETATM    5  H   LIG     1      15.795  34.090  18.259  1.00  0.00     0.161 HD
HETATM    6  H   LIG     1      15.140  33.107  19.621  1.00  0.00     0.161 HD
HETATM    7  O   LIG     1      14.015  31.367  18.073  1.00  0.00    -0.239 OA
ENDBRANCH   2   3
ENDBRANCH   1   2
BRANCH   1   8
HETATM    8  C   LIG     1      15.662  31.476  14.290  1.00  0.00     0.027 C 
BRANCH   8   9
HETATM    9  C   LIG     1      14.963  30.137  14.575  1.00  0.00     0.002 C 
BRANCH   9  10
HETATM   10  C   LIG     1      15.316  29.053  13.541  1.00  0.00     0.000 C 
BRANCH  10  11
HETATM   11  C   LIG     1      14.575  27.731  13.796  1.00  0.00    -0.000 C 
BRANCH  11  12
HETATM   12  C   LIG     1      13.053  27.911  13.880  1.00  0.00    -0.005 C 
HETATM   13  C   LIG     1      12.328  26.843  13.067  1.00  0.00     0.005 C 
ENDBRANCH  11  12
ENDBRANCH  10  11
ENDBRANCH   9  10
ENDBRANCH   8   9
ENDBRANCH   1   8
TORSDOF 7
ENDMDL
