REMARK  7 active torsions:
REMARK  status: ('A' for Active; 'I' for Inactive)
REMARK       I    between atoms: N_1  and  C_2 
REMARK    1  A    between atoms: C_2  and  O_3 
REMARK    2  A    between atoms: O_3  and  C_4 
REMARK    3  A    between atoms: C_4  and  C_5 
REMARK    4  A    between atoms: C_5  and  C_6 
REMARK    5  A    between atoms: C_6  and  C_7 
REMARK    6  A    between atoms: C_7  and  C_8 
REMARK    7  A    between atoms: C_8  and  C_9 
ROOT
HETATM    1  C   LIG     1       2.196   0.102  -0.696  1.00  0.00     0.180 C 
ENDROOT
BRANCH   1   2
HETATM    2  O   LIG     1       3.528   0.428  -0.302  1.00  0.00    -0.304 OA
BRANCH   2   3
HETATM    3  C   LIG     1       4.399  -0.486   0.300  1.00  0.00     0.358 C 
HETATM    4  N   LIG     1       5.698  -0.057   0.701  1.00  0.00    -0.346 N 
HETATM    5  H   LIG     1       5.994   0.932   0.549  1.00  0.00     0.161 HD
HETATM    6  H   LIG     1       6.362  -0.727   1.150  1.00  0.00     0.161 HD
HETATM    7  O   LIG     1       4.052  -1.684   0.486  1.00  0.00    -0.239 OA
ENDBRANCH   2   3
ENDBRANCH   1   2
BRANCH   1   8
HETATM    8  C   LIG     1       1.269   0.065   0.527  1.00  0.00     0.027 C 
BRANCH   8   9
HETATM    9  C   LIG     1      -0.154  -0.401   0.181  1.00  0.00     0.002 C 
BRANCH   9  10
HETATM   10  C   LIG     1      -0.956   0.667  -0.584  1.00  0.00     0.000 C 
BRANCH  10  11
HETATM   11  C   LIG     1      -2.381   0.202  -0.925  1.00  0.00    -0.000 C 
BRANCH  11  12
HETATM   12  C   LIG     1      -3.306   0.179   0.300  1.00  0.00    -0.005 C 
HETATM   13  C   LIG     1      -4.740  -0.157  -0.101  1.00  0.00     0.005 C 
ENDBRANCH  11  12
ENDBRANCH  10  11
ENDBRANCH   9  10
ENDBRANCH   8   9
ENDBRANCH   1   8
TORSDOF 7
