REMARK  2 active torsions:
REMARK  status: ('A' for Active; 'I' for Inactive)
REMARK    1  A    between atoms: C_2  and  O_5 
REMARK    2  A    between atoms: O_5  and  C_6 
REMARK       I    between atoms: C_6  and  N_7 
ROOT
HETATM    1  O   LIG     1       0.871   0.364   0.068  1.00  0.00    -0.294 OA
ENDROOT
BRANCH   1   2
HETATM    2  C   LIG     1      -0.530   0.134   0.287  1.00  0.00     0.061 C 
HETATM    3  C   LIG     1      -0.770  -1.296   0.808  1.00  0.00     0.046 C 
HETATM    4  C   LIG     1      -1.329   0.382  -1.006  1.00  0.00     0.046 C 
HETATM    5  C   LIG     1      -0.993   1.135   1.357  1.00  0.00     0.046 C 
ENDBRANCH   1   2
BRANCH   1   6
HETATM    6  C   LIG     1       1.695  -0.331  -0.829  1.00  0.00     0.359 C 
HETATM    7  N   LIG     1       3.072   0.024  -0.926  1.00  0.00    -0.346 N 
HETATM    8  H   LIG     1       3.458   0.792  -0.334  1.00  0.00     0.161 HD
HETATM    9  H   LIG     1       3.704  -0.480  -1.587  1.00  0.00     0.161 HD
HETATM   10  O   LIG     1       1.244  -1.260  -1.550  1.00  0.00    -0.239 OA
ENDBRANCH   1   6
TORSDOF 2
