MODEL 1
REMARK VINA RESULT:      -4.8      0.000      0.000
REMARK  2 active torsions:
REMARK  status: ('A' for Active; 'I' for Inactive)
REMARK    1  A    between atoms: C_2  and  O_5 
REMARK    2  A    between atoms: O_5  and  C_6 
REMARK       I    between atoms: C_6  and  N_7 
ROOT
HETATM    1  O   LIG     1      17.201  36.818  24.145  1.00  0.00    -0.294 OA
ENDROOT
BRANCH   1   2
HETATM    2  C   LIG     1      16.891  37.303  22.829  1.00  0.00     0.061 C 
HETATM    3  C   LIG     1      17.843  38.448  22.434  1.00  0.00     0.046 C 
HETATM    4  C   LIG     1      15.424  37.765  22.753  1.00  0.00     0.046 C 
HETATM    5  C   LIG     1      17.094  36.132  21.854  1.00  0.00     0.046 C 
ENDBRANCH   1   2
BRANCH   1   6
HETATM    6  C   LIG     1      17.581  37.598  25.247  1.00  0.00     0.359 C 
HETATM    7  N   LIG     1      18.769  37.263  25.959  1.00  0.00    -0.346 N 
HETATM    8  H   LIG     1      19.347  36.447  25.659  1.00  0.00     0.161 HD
HETATM    9  H   LIG     1      19.072  37.829  26.783  1.00  0.00     0.161 HD
HETATM   10  O   LIG     1      16.894  38.585  25.621  1.00  0.00    -0.239 OA
ENDBRANCH   1   6
TORSDOF 2
ENDMDL
MODEL 2
REMARK VINA RESULT:      -4.8      0.072      1.538
REMARK  2 active torsions:
REMARK  status: ('A' for Active; 'I' for Inactive)
REMARK    1  A    between atoms: C_2  and  O_5 
REMARK    2  A    between atoms: O_5  and  C_6 
REMARK       I    between atoms: C_6  and  N_7 
ROOT
HETATM    1  O   LIG     1      17.160  36.793  24.113  1.00  0.00    -0.294 OA
ENDROOT
BRANCH   1   2
HETATM    2  C   LIG     1      16.906  37.245  22.773  1.00  0.00     0.061 C 
HETATM    3  C   LIG     1      17.087  36.091  21.768  1.00  0.00     0.046 C 
HETATM    4  C   LIG     1      17.827  38.426  22.416  1.00  0.00     0.046 C 
HETATM    5  C   LIG     1      15.446  37.720  22.723  1.00  0.00     0.046 C 
ENDBRANCH   1   2
BRANCH   1   6
HETATM    6  C   LIG     1      17.564  37.589  25.194  1.00  0.00     0.359 C 
HETATM    7  N   LIG     1      18.793  37.295  25.853  1.00  0.00    -0.346 N 
HETATM    8  H   LIG     1      19.382  36.496  25.531  1.00  0.00     0.161 HD
HETATM    9  H   LIG     1      19.114  37.875  26.661  1.00  0.00     0.161 HD
HETATM   10  O   LIG     1      16.864  38.556  25.595  1.00  0.00    -0.239 OA
ENDBRANCH   1   6
TORSDOF 2
ENDMDL
MODEL 3
REMARK VINA RESULT:      -4.7      3.679      4.560
REMARK  2 active torsions:
REMARK  status: ('A' for Active; 'I' for Inactive)
REMARK    1  A    between atoms: C_2  and  O_5 
REMARK    2  A    between atoms: O_5  and  C_6 
REMARK       I    between atoms: C_6  and  N_7 
ROOT
HETATM    1  O   LIG     1      15.414  35.852  21.247  1.00  0.00    -0.294 OA
ENDROOT
BRANCH   1   2
HETATM    2  C   LIG     1      16.496  36.381  22.031  1.00  0.00     0.061 C 
HETATM    3  C   LIG     1      17.018  35.322  23.020  1.00  0.00     0.046 C 
HETATM    4  C   LIG     1      16.052  37.651  22.780  1.00  0.00     0.046 C 
HETATM    5  C   LIG     1      17.625  36.748  21.056  1.00  0.00     0.046 C 
ENDBRANCH   1   2
BRANCH   1   6
HETATM    6  C   LIG     1      15.187  34.499  20.954  1.00  0.00     0.359 C 
HETATM    7  N   LIG     1      14.095  33.827  21.577  1.00  0.00    -0.346 N 
HETATM    8  H   LIG     1      13.474  34.339  22.241  1.00  0.00     0.161 HD
HETATM    9  H   LIG     1      13.907  32.820  21.373  1.00  0.00     0.161 HD
HETATM   10  O   LIG     1      15.927  33.867  20.155  1.00  0.00    -0.239 OA
ENDBRANCH   1   6
TORSDOF 2
ENDMDL
MODEL 4
REMARK VINA RESULT:      -4.7      1.785      2.505
REMARK  2 active torsions:
REMARK  status: ('A' for Active; 'I' for Inactive)
REMARK    1  A    between atoms: C_2  and  O_5 
REMARK    2  A    between atoms: O_5  and  C_6 
REMARK       I    between atoms: C_6  and  N_7 
ROOT
HETATM    1  O   LIG     1      16.139  37.370  22.373  1.00  0.00    -0.294 OA
ENDROOT
BRANCH   1   2
HETATM    2  C   LIG     1      16.443  36.084  21.808  1.00  0.00     0.061 C 
HETATM    3  C   LIG     1      16.958  35.122  22.895  1.00  0.00     0.046 C 
HETATM    4  C   LIG     1      17.473  36.221  20.671  1.00  0.00     0.046 C 
HETATM    5  C   LIG     1      15.135  35.522  21.228  1.00  0.00     0.046 C 
ENDBRANCH   1   2
BRANCH   1   6
HETATM    6  C   LIG     1      16.799  37.979  23.450  1.00  0.00     0.359 C 
HETATM    7  N   LIG     1      18.077  38.574  23.236  1.00  0.00    -0.346 N 
HETATM    8  H   LIG     1      18.511  38.556  22.287  1.00  0.00     0.161 HD
HETATM    9  H   LIG     1      18.586  39.033  24.023  1.00  0.00     0.161 HD
HETATM   10  O   LIG     1      16.289  38.009  24.601  1.00  0.00    -0.239 OA
ENDBRANCH   1   6
TORSDOF 2
ENDMDL
MODEL 5
REMARK VINA RESULT:      -4.3      6.865      7.904
REMARK  2 active torsions:
REMARK  status: ('A' for Active; 'I' for Inactive)
REMARK    1  A    between atoms: C_2  and  O_5 
REMARK    2  A    between atoms: O_5  and  C_6 
REMARK       I    between atoms: C_6  and  N_7 
ROOT
HETATM    1  O   LIG     1      15.679  32.284  18.169  1.00  0.00    -0.294 OA
ENDROOT
BRANCH   1   2
HETATM    2  C   LIG     1      14.972  32.736  17.003  1.00  0.00     0.061 C 
HETATM    3  C   LIG     1      14.826  34.270  17.018  1.00  0.00     0.046 C 
HETATM    4  C   LIG     1      13.591  32.061  16.910  1.00  0.00     0.046 C 
HETATM    5  C   LIG     1      15.808  32.331  15.779  1.00  0.00     0.046 C 
ENDBRANCH   1   2
BRANCH   1   6
HETATM    6  C   LIG     1      15.343  32.561  19.502  1.00  0.00     0.359 C 
HETATM    7  N   LIG     1      14.368  31.751  20.155  1.00  0.00    -0.346 N 
HETATM    8  H   LIG     1      13.914  30.963  19.644  1.00  0.00     0.161 HD
HETATM    9  H   LIG     1      14.102  31.939  21.148  1.00  0.00     0.161 HD
HETATM   10  O   LIG     1      15.882  33.508  20.132  1.00  0.00    -0.239 OA
ENDBRANCH   1   6
TORSDOF 2
ENDMDL
MODEL 6
REMARK VINA RESULT:      -4.1      7.965      8.905
REMARK  2 active torsions:
REMARK  status: ('A' for Active; 'I' for Inactive)
REMARK    1  A    between atoms: C_2  and  O_5 
REMARK    2  A    between atoms: O_5  and  C_6 
REMARK       I    between atoms: C_6  and  N_7 
ROOT
HETATM    1  O   LIG     1      14.096  33.527  16.792  1.00  0.00    -0.294 OA
ENDROOT
BRANCH   1   2
HETATM    2  C   LIG     1      14.001  32.096  16.862  1.00  0.00     0.061 C 
HETATM    3  C   LIG     1      14.892  31.440  15.789  1.00  0.00     0.046 C 
HETATM    4  C   LIG     1      12.539  31.640  16.705  1.00  0.00     0.046 C 
HETATM    5  C   LIG     1      14.507  31.674  18.250  1.00  0.00     0.046 C 
ENDBRANCH   1   2
BRANCH   1   6
HETATM    6  C   LIG     1      15.238  34.297  17.054  1.00  0.00     0.359 C 
HETATM    7  N   LIG     1      15.450  34.803  18.369  1.00  0.00    -0.346 N 
HETATM    8  H   LIG     1      14.760  34.600  19.126  1.00  0.00     0.161 HD
HETATM    9  H   LIG     1      16.293  35.378  18.587  1.00  0.00     0.161 HD
HETATM   10  O   LIG     1      16.080  34.550  16.152  1.00  0.00    -0.239 OA
ENDBRANCH   1   6
TORSDOF 2
ENDMDL
MODEL 7
REMARK VINA RESULT:      -4.1     10.882     12.000
REMARK  2 active torsions:
REMARK  status: ('A' for Active; 'I' for Inactive)
REMARK    1  A    between atoms: C_2  and  O_5 
REMARK    2  A    between atoms: O_5  and  C_6 
REMARK       I    between atoms: C_6  and  N_7 
ROOT
HETATM    1  O   LIG     1      18.285  33.112  12.640  1.00  0.00    -0.294 OA
ENDROOT
BRANCH   1   2
HETATM    2  C   LIG     1      19.361  33.535  11.788  1.00  0.00     0.061 C 
HETATM    3  C   LIG     1      20.603  33.900  12.623  1.00  0.00     0.046 C 
HETATM    4  C   LIG     1      18.925  34.727  10.915  1.00  0.00     0.046 C 
HETATM    5  C   LIG     1      19.710  32.351  10.873  1.00  0.00     0.046 C 
ENDBRANCH   1   2
BRANCH   1   6
HETATM    6  C   LIG     1      17.906  33.704  13.853  1.00  0.00     0.359 C 
HETATM    7  N   LIG     1      17.970  32.935  15.052  1.00  0.00    -0.346 N 
HETATM    8  H   LIG     1      18.296  31.944  15.022  1.00  0.00     0.161 HD
HETATM    9  H   LIG     1      17.693  33.356  15.967  1.00  0.00     0.161 HD
HETATM   10  O   LIG     1      17.510  34.899  13.906  1.00  0.00    -0.239 OA
ENDBRANCH   1   6
TORSDOF 2
ENDMDL
MODEL 8
REMARK VINA RESULT:      -4.1      2.854      3.745
REMARK  2 active torsions:
REMARK  status: ('A' for Active; 'I' for Inactive)
REMARK    1  A    between atoms: C_2  and  O_5 
REMARK    2  A    between atoms: O_5  and  C_6 
REMARK       I    between atoms: C_6  and  N_7 
ROOT
HETATM    1  O   LIG     1      18.423  38.382  22.480  1.00  0.00    -0.294 OA
ENDROOT
BRANCH   1   2
HETATM    2  C   LIG     1      17.196  37.989  23.116  1.00  0.00     0.061 C 
HETATM    3  C   LIG     1      16.923  36.490  22.886  1.00  0.00     0.046 C 
HETATM    4  C   LIG     1      16.021  38.840  22.601  1.00  0.00     0.046 C 
HETATM    5  C   LIG     1      17.366  38.236  24.623  1.00  0.00     0.046 C 
ENDBRANCH   1   2
BRANCH   1   6
HETATM    6  C   LIG     1      18.623  38.561  21.104  1.00  0.00     0.359 C 
HETATM    7  N   LIG     1      19.010  39.843  20.618  1.00  0.00    -0.346 N 
HETATM    8  H   LIG     1      19.143  40.637  21.283  1.00  0.00     0.161 HD
HETATM    9  H   LIG     1      19.165  39.999  19.597  1.00  0.00     0.161 HD
HETATM   10  O   LIG     1      18.468  37.612  20.289  1.00  0.00    -0.239 OA
ENDBRANCH   1   6
TORSDOF 2
ENDMDL
MODEL 9
REMARK VINA RESULT:      -4.0      2.800      3.768
REMARK  2 active torsions:
REMARK  status: ('A' for Active; 'I' for Inactive)
REMARK    1  A    between atoms: C_2  and  O_5 
REMARK    2  A    between atoms: O_5  and  C_6 
REMARK       I    between atoms: C_6  and  N_7 
ROOT
HETATM    1  O   LIG     1      17.455  36.481  22.127  1.00  0.00    -0.294 OA
ENDROOT
BRANCH   1   2
HETATM    2  C   LIG     1      16.977  37.678  22.762  1.00  0.00     0.061 C 
HETATM    3  C   LIG     1      17.492  37.765  24.212  1.00  0.00     0.046 C 
HETATM    4  C   LIG     1      15.438  37.732  22.729  1.00  0.00     0.046 C 
HETATM    5  C   LIG     1      17.533  38.868  21.966  1.00  0.00     0.046 C 
ENDBRANCH   1   2
BRANCH   1   6
HETATM    6  C   LIG     1      17.257  36.118  20.787  1.00  0.00     0.359 C 
HETATM    7  N   LIG     1      18.255  36.445  19.824  1.00  0.00    -0.346 N 
HETATM    8  H   LIG     1      19.122  36.947  20.117  1.00  0.00     0.161 HD
HETATM    9  H   LIG     1      18.129  36.184  18.820  1.00  0.00     0.161 HD
HETATM   10  O   LIG     1      16.217  35.511  20.418  1.00  0.00    -0.239 OA
ENDBRANCH   1   6
TORSDOF 2
ENDMDL
MODEL 10
REMARK VINA RESULT:      -3.9      8.468      9.463
REMARK  2 active torsions:
REMARK  status: ('A' for Active; 'I' for Inactive)
REMARK    1  A    between atoms: C_2  and  O_5 
REMARK    2  A    between atoms: O_5  and  C_6 
REMARK       I    between atoms: C_6  and  N_7 
ROOT
HETATM    1  O   LIG     1      16.128  32.294  16.523  1.00  0.00    -0.294 OA
ENDROOT
BRANCH   1   2
HETATM    2  C   LIG     1      15.001  32.721  17.305  1.00  0.00     0.061 C 
HETATM    3  C   LIG     1      15.265  32.496  18.806  1.00  0.00     0.046 C 
HETATM    4  C   LIG     1      13.723  31.984  16.862  1.00  0.00     0.046 C 
HETATM    5  C   LIG     1      14.818  34.226  17.054  1.00  0.00     0.046 C 
ENDBRANCH   1   2
BRANCH   1   6
HETATM    6  C   LIG     1      16.494  32.782  15.261  1.00  0.00     0.359 C 
HETATM    7  N   LIG     1      17.656  33.599  15.141  1.00  0.00    -0.346 N 
HETATM    8  H   LIG     1      18.225  33.827  15.986  1.00  0.00     0.161 HD
HETATM    9  H   LIG     1      17.948  33.973  14.211  1.00  0.00     0.161 HD
HETATM   10  O   LIG     1      15.818  32.515  14.232  1.00  0.00    -0.239 OA
ENDBRANCH   1   6
TORSDOF 2
ENDMDL
MODEL 11
REMARK VINA RESULT:      -3.9      2.404      3.350
REMARK  2 active torsions:
REMARK  status: ('A' for Active; 'I' for Inactive)
REMARK    1  A    between atoms: C_2  and  O_5 
REMARK    2  A    between atoms: O_5  and  C_6 
REMARK       I    between atoms: C_6  and  N_7 
ROOT
HETATM    1  O   LIG     1      16.050  37.760  24.340  1.00  0.00    -0.294 OA
ENDROOT
BRANCH   1   2
HETATM    2  C   LIG     1      17.343  37.347  24.810  1.00  0.00     0.061 C 
HETATM    3  C   LIG     1      18.459  37.986  23.962  1.00  0.00     0.046 C 
HETATM    4  C   LIG     1      17.460  35.811  24.794  1.00  0.00     0.046 C 
HETATM    5  C   LIG     1      17.478  37.840  26.260  1.00  0.00     0.046 C 
ENDBRANCH   1   2
BRANCH   1   6
HETATM    6  C   LIG     1      15.692  38.004  23.006  1.00  0.00     0.359 C 
HETATM    7  N   LIG     1      15.469  36.899  22.133  1.00  0.00    -0.346 N 
HETATM    8  H   LIG     1      15.572  35.923  22.487  1.00  0.00     0.161 HD
HETATM    9  H   LIG     1      15.202  37.057  21.136  1.00  0.00     0.161 HD
HETATM   10  O   LIG     1      15.565  39.176  22.564  1.00  0.00    -0.239 OA
ENDBRANCH   1   6
TORSDOF 2
ENDMDL
MODEL 12
REMARK VINA RESULT:      -3.8      2.692      3.320
REMARK  2 active torsions:
REMARK  status: ('A' for Active; 'I' for Inactive)
REMARK    1  A    between atoms: C_2  and  O_5 
REMARK    2  A    between atoms: O_5  and  C_6 
REMARK       I    between atoms: C_6  and  N_7 
ROOT
HETATM    1  O   LIG     1      18.233  38.072  22.809  1.00  0.00    -0.294 OA
ENDROOT
BRANCH   1   2
HETATM    2  C   LIG     1      17.037  37.551  23.412  1.00  0.00     0.061 C 
HETATM    3  C   LIG     1      15.786  38.165  22.754  1.00  0.00     0.046 C 
HETATM    4  C   LIG     1      17.036  37.814  24.930  1.00  0.00     0.046 C 
HETATM    5  C   LIG     1      17.030  36.034  23.170  1.00  0.00     0.046 C 
ENDBRANCH   1   2
BRANCH   1   6
HETATM    6  C   LIG     1      18.377  38.487  21.478  1.00  0.00     0.359 C 
HETATM    7  N   LIG     1      18.389  37.508  20.442  1.00  0.00    -0.346 N 
HETATM    8  H   LIG     1      18.291  36.496  20.677  1.00  0.00     0.161 HD
HETATM    9  H   LIG     1      18.495  37.794  19.443  1.00  0.00     0.161 HD
HETATM   10  O   LIG     1      18.496  39.705  21.179  1.00  0.00    -0.239 OA
ENDBRANCH   1   6
TORSDOF 2
ENDMDL
MODEL 13
REMARK VINA RESULT:      -3.8      4.092      4.883
REMARK  2 active torsions:
REMARK  status: ('A' for Active; 'I' for Inactive)
REMARK    1  A    between atoms: C_2  and  O_5 
REMARK    2  A    between atoms: O_5  and  C_6 
REMARK       I    between atoms: C_6  and  N_7 
ROOT
HETATM    1  O   LIG     1      19.042  37.051  19.951  1.00  0.00    -0.294 OA
ENDROOT
BRANCH   1   2
HETATM    2  C   LIG     1      19.288  38.418  19.583  1.00  0.00     0.061 C 
HETATM    3  C   LIG     1      18.719  39.377  20.646  1.00  0.00     0.046 C 
HETATM    4  C   LIG     1      18.686  38.723  18.199  1.00  0.00     0.046 C 
HETATM    5  C   LIG     1      20.812  38.603  19.514  1.00  0.00     0.046 C 
ENDBRANCH   1   2
BRANCH   1   6
HETATM    6  C   LIG     1      17.816  36.511  20.365  1.00  0.00     0.359 C 
HETATM    7  N   LIG     1      17.361  36.755  21.693  1.00  0.00    -0.346 N 
HETATM    8  H   LIG     1      17.938  37.329  22.347  1.00  0.00     0.161 HD
HETATM    9  H   LIG     1      16.451  36.363  22.023  1.00  0.00     0.161 HD
HETATM   10  O   LIG     1      17.109  35.816  19.587  1.00  0.00    -0.239 OA
ENDBRANCH   1   6
TORSDOF 2
ENDMDL
MODEL 14
REMARK VINA RESULT:      -3.7     13.617     14.430
REMARK  2 active torsions:
REMARK  status: ('A' for Active; 'I' for Inactive)
REMARK    1  A    between atoms: C_2  and  O_5 
REMARK    2  A    between atoms: O_5  and  C_6 
REMARK       I    between atoms: C_6  and  N_7 
ROOT
HETATM    1  O   LIG     1      21.133  33.278  10.205  1.00  0.00    -0.294 OA
ENDROOT
BRANCH   1   2
HETATM    2  C   LIG     1      20.799  34.487  10.906  1.00  0.00     0.061 C 
HETATM    3  C   LIG     1      21.163  34.367  12.398  1.00  0.00     0.046 C 
HETATM    4  C   LIG     1      19.304  34.816  10.736  1.00  0.00     0.046 C 
HETATM    5  C   LIG     1      21.631  35.618  10.282  1.00  0.00     0.046 C 
ENDBRANCH   1   2
BRANCH   1   6
HETATM    6  C   LIG     1      20.583  32.008  10.434  1.00  0.00     0.359 C 
HETATM    7  N   LIG     1      21.323  30.851  10.054  1.00  0.00    -0.346 N 
HETATM    8  H   LIG     1      22.263  30.952   9.612  1.00  0.00     0.161 HD
HETATM    9  H   LIG     1      20.933  29.896  10.215  1.00  0.00     0.161 HD
HETATM   10  O   LIG     1      19.450  31.869  10.966  1.00  0.00    -0.239 OA
ENDBRANCH   1   6
TORSDOF 2
ENDMDL
MODEL 15
REMARK VINA RESULT:      -3.7      2.851      3.247
REMARK  2 active torsions:
REMARK  status: ('A' for Active; 'I' for Inactive)
REMARK    1  A    between atoms: C_2  and  O_5 
REMARK    2  A    between atoms: O_5  and  C_6 
REMARK       I    between atoms: C_6  and  N_7 
ROOT
HETATM    1  O   LIG     1      17.875  37.780  21.555  1.00  0.00    -0.294 OA
ENDROOT
BRANCH   1   2
HETATM    2  C   LIG     1      16.744  37.482  22.388  1.00  0.00     0.061 C 
HETATM    3  C   LIG     1      15.836  38.718  22.532  1.00  0.00     0.046 C 
HETATM    4  C   LIG     1      17.205  36.983  23.770  1.00  0.00     0.046 C 
HETATM    5  C   LIG     1      15.951  36.363  21.695  1.00  0.00     0.046 C 
ENDBRANCH   1   2
BRANCH   1   6
HETATM    6  C   LIG     1      18.715  38.897  21.665  1.00  0.00     0.359 C 
HETATM    7  N   LIG     1      18.937  39.716  20.520  1.00  0.00    -0.346 N 
HETATM    8  H   LIG     1      18.478  39.483  19.612  1.00  0.00     0.161 HD
HETATM    9  H   LIG     1      19.559  40.553  20.580  1.00  0.00     0.161 HD
HETATM   10  O   LIG     1      19.277  39.191  22.754  1.00  0.00    -0.239 OA
ENDBRANCH   1   6
TORSDOF 2
ENDMDL
MODEL 16
REMARK VINA RESULT:      -3.7      4.147      4.909
REMARK  2 active torsions:
REMARK  status: ('A' for Active; 'I' for Inactive)
REMARK    1  A    between atoms: C_2  and  O_5 
REMARK    2  A    between atoms: O_5  and  C_6 
REMARK       I    between atoms: C_6  and  N_7 
ROOT
HETATM    1  O   LIG     1      18.179  39.429  20.447  1.00  0.00    -0.294 OA
ENDROOT
BRANCH   1   2
HETATM    2  C   LIG     1      17.895  38.627  21.605  1.00  0.00     0.061 C 
HETATM    3  C   LIG     1      17.911  37.129  21.244  1.00  0.00     0.046 C 
HETATM    4  C   LIG     1      16.540  39.023  22.220  1.00  0.00     0.046 C 
HETATM    5  C   LIG     1      19.005  38.901  22.631  1.00  0.00     0.046 C 
ENDBRANCH   1   2
BRANCH   1   6
HETATM    6  C   LIG     1      19.106  39.130  19.438  1.00  0.00     0.359 C 
HETATM    7  N   LIG     1      18.644  38.564  18.215  1.00  0.00    -0.346 N 
HETATM    8  H   LIG     1      17.626  38.376  18.076  1.00  0.00     0.161 HD
HETATM    9  H   LIG     1      19.316  38.333  17.450  1.00  0.00     0.161 HD
HETATM   10  O   LIG     1      20.336  39.351  19.591  1.00  0.00    -0.239 OA
ENDBRANCH   1   6
TORSDOF 2
ENDMDL
MODEL 17
REMARK VINA RESULT:      -3.6      8.985      9.871
REMARK  2 active torsions:
REMARK  status: ('A' for Active; 'I' for Inactive)
REMARK    1  A    between atoms: C_2  and  O_5 
REMARK    2  A    between atoms: O_5  and  C_6 
REMARK       I    between atoms: C_6  and  N_7 
ROOT
HETATM    1  O   LIG     1      15.865  32.114  16.386  1.00  0.00    -0.294 OA
ENDROOT
BRANCH   1   2
HETATM    2  C   LIG     1      14.903  32.724  17.261  1.00  0.00     0.061 C 
HETATM    3  C   LIG     1      14.850  34.247  17.031  1.00  0.00     0.046 C 
HETATM    4  C   LIG     1      15.231  32.409  18.732  1.00  0.00     0.046 C 
HETATM    5  C   LIG     1      13.531  32.123  16.917  1.00  0.00     0.046 C 
ENDBRANCH   1   2
BRANCH   1   6
HETATM    6  C   LIG     1      15.808  32.079  14.986  1.00  0.00     0.359 C 
HETATM    7  N   LIG     1      15.342  30.898  14.338  1.00  0.00    -0.346 N 
HETATM    8  H   LIG     1      15.047  30.072  14.904  1.00  0.00     0.161 HD
HETATM    9  H   LIG     1      15.291  30.850  13.296  1.00  0.00     0.161 HD
HETATM   10  O   LIG     1      16.160  33.068  14.289  1.00  0.00    -0.239 OA
ENDBRANCH   1   6
TORSDOF 2
ENDMDL
MODEL 18
REMARK VINA RESULT:      -3.6      8.593      9.830
REMARK  2 active torsions:
REMARK  status: ('A' for Active; 'I' for Inactive)
REMARK    1  A    between atoms: C_2  and  O_5 
REMARK    2  A    between atoms: O_5  and  C_6 
REMARK       I    between atoms: C_6  and  N_7 
ROOT
HETATM    1  O   LIG     1      15.081  32.844  15.503  1.00  0.00    -0.294 OA
ENDROOT
BRANCH   1   2
HETATM    2  C   LIG     1      15.981  31.997  14.771  1.00  0.00     0.061 C 
HETATM    3  C   LIG     1      17.313  31.837  15.529  1.00  0.00     0.046 C 
HETATM    4  C   LIG     1      16.224  32.557  13.357  1.00  0.00     0.046 C 
HETATM    5  C   LIG     1      15.312  30.619  14.652  1.00  0.00     0.046 C 
ENDBRANCH   1   2
BRANCH   1   6
HETATM    6  C   LIG     1      15.428  33.724  16.539  1.00  0.00     0.359 C 
HETATM    7  N   LIG     1      15.095  33.383  17.882  1.00  0.00    -0.346 N 
HETATM    8  H   LIG     1      14.599  32.488  18.088  1.00  0.00     0.161 HD
HETATM    9  H   LIG     1      15.344  34.023  18.669  1.00  0.00     0.161 HD
HETATM   10  O   LIG     1      16.027  34.807  16.306  1.00  0.00    -0.239 OA
ENDBRANCH   1   6
TORSDOF 2
ENDMDL
MODEL 19
REMARK VINA RESULT:      -3.4      3.707      4.595
REMARK  2 active torsions:
REMARK  status: ('A' for Active; 'I' for Inactive)
REMARK    1  A    between atoms: C_2  and  O_5 
REMARK    2  A    between atoms: O_5  and  C_6 
REMARK       I    between atoms: C_6  and  N_7 
ROOT
HETATM    1  O   LIG     1      17.993  39.030  20.530  1.00  0.00    -0.294 OA
ENDROOT
BRANCH   1   2
HETATM    2  C   LIG     1      17.719  38.539  21.852  1.00  0.00     0.061 C 
HETATM    3  C   LIG     1      16.404  39.137  22.391  1.00  0.00     0.046 C 
HETATM    4  C   LIG     1      18.889  38.857  22.802  1.00  0.00     0.046 C 
HETATM    5  C   LIG     1      17.563  37.014  21.748  1.00  0.00     0.046 C 
ENDBRANCH   1   2
BRANCH   1   6
HETATM    6  C   LIG     1      18.974  38.545  19.653  1.00  0.00     0.359 C 
HETATM    7  N   LIG     1      20.212  39.241  19.541  1.00  0.00    -0.346 N 
HETATM    8  H   LIG     1      20.383  40.101  20.108  1.00  0.00     0.161 HD
HETATM    9  H   LIG     1      20.957  38.898  18.895  1.00  0.00     0.161 HD
HETATM   10  O   LIG     1      18.783  37.509  18.962  1.00  0.00    -0.239 OA
ENDBRANCH   1   6
TORSDOF 2
ENDMDL
MODEL 20
REMARK VINA RESULT:      -3.4      9.129     10.125
REMARK  2 active torsions:
REMARK  status: ('A' for Active; 'I' for Inactive)
REMARK    1  A    between atoms: C_2  and  O_5 
REMARK    2  A    between atoms: O_5  and  C_6 
REMARK       I    between atoms: C_6  and  N_7 
ROOT
HETATM    1  O   LIG     1      13.756  32.277  16.312  1.00  0.00    -0.294 OA
ENDROOT
BRANCH   1   2
HETATM    2  C   LIG     1      14.975  32.812  16.853  1.00  0.00     0.061 C 
HETATM    3  C   LIG     1      14.866  34.339  17.027  1.00  0.00     0.046 C 
HETATM    4  C   LIG     1      16.171  32.453  15.953  1.00  0.00     0.046 C 
HETATM    5  C   LIG     1      15.180  32.169  18.233  1.00  0.00     0.046 C 
ENDBRANCH   1   2
BRANCH   1   6
HETATM    6  C   LIG     1      13.485  30.924  16.060  1.00  0.00     0.359 C 
HETATM    7  N   LIG     1      12.395  30.297  16.731  1.00  0.00    -0.346 N 
HETATM    8  H   LIG     1      11.808  30.842  17.400  1.00  0.00     0.161 HD
HETATM    9  H   LIG     1      12.174  29.291  16.559  1.00  0.00     0.161 HD
HETATM   10  O   LIG     1      14.184  30.253  15.255  1.00  0.00    -0.239 OA
ENDBRANCH   1   6
TORSDOF 2
ENDMDL
