MODEL 1
REMARK VINA RESULT:      -5.4      0.000      0.000
REMARK  3 active torsions:
REMARK  status: ('A' for Active; 'I' for Inactive)
REMARK    1  A    between atoms: C_15  and  O_16 
REMARK    2  A    between atoms: C_20  and  C_21 
REMARK    3  A    between atoms: C_20  and  O_24 
ROOT
HETATM    1  C   LIG     1      26.953  23.976  20.227  1.00  0.00     0.005 C 
HETATM    2  C   LIG     1      25.970  23.047  21.004  1.00  0.00     0.035 C 
HETATM    3  C   LIG     1      24.481  23.452  20.900  1.00  0.00     0.017 C 
HETATM    4  C   LIG     1      23.565  22.289  21.259  1.00  0.00     0.012 C 
HETATM    5  C   LIG     1      22.115  22.772  21.442  1.00  0.00     0.015 C 
HETATM    6  C   LIG     1      23.789  21.248  20.183  1.00  0.00    -0.057 C 
HETATM    7  C   LIG     1      22.853  20.988  19.244  1.00  0.00     0.059 C 
HETATM    8  C   LIG     1      23.191  20.218  18.047  1.00  0.00     0.172 C 
HETATM    9  C   LIG     1      24.585  19.869  17.795  1.00  0.00     0.052 C 
HETATM   10  C   LIG     1      25.516  20.100  18.724  1.00  0.00    -0.006 C 
HETATM   11  C   LIG     1      25.169  20.564  20.145  1.00  0.00     0.037 C 
HETATM   12  C   LIG     1      24.998  19.245  20.946  1.00  0.00     0.028 C 
HETATM   13  C   LIG     1      26.310  21.493  20.837  1.00  0.00     0.147 C 
HETATM   14  F   LIG     1      26.433  21.042  22.151  1.00  0.00    -0.238 F 
HETATM   15  C   LIG     1      27.769  21.333  20.258  1.00  0.00     0.160 C 
HETATM   16  C   LIG     1      28.053  22.094  18.928  1.00  0.00     0.048 C 
HETATM   17  C   LIG     1      27.345  23.491  18.827  1.00  0.00     0.001 C 
HETATM   18  C   LIG     1      26.086  23.350  17.914  1.00  0.00     0.019 C 
HETATM   19  C   LIG     1      28.216  24.693  18.299  1.00  0.00     0.125 C 
HETATM   20  C   LIG     1      27.516  25.946  18.905  1.00  0.00     0.047 C 
HETATM   21  C   LIG     1      26.650  25.470  20.088  1.00  0.00     0.009 C 
HETATM   22  O   LIG     1      22.298  19.914  17.213  1.00  0.00    -0.289 OA
ENDROOT
BRANCH  19  23
HETATM   23  C   LIG     1      29.700  24.616  18.712  1.00  0.00     0.158 C 
HETATM   24  C   LIG     1      30.235  25.052  20.051  1.00  0.00     0.094 C 
HETATM   25  O   LIG     1      30.508  24.168  17.910  1.00  0.00    -0.295 OA
ENDBRANCH  19  23
BRANCH  19  26
HETATM   26  O   LIG     1      28.154  24.753  16.889  1.00  0.00    -0.381 OA
HETATM   27  H   LIG     1      27.256  25.099  16.639  1.00  0.00     0.211 HD
ENDBRANCH  19  26
BRANCH  15  28
HETATM   28  O   LIG     1      28.147  19.985  20.137  1.00  0.00    -0.392 OA
HETATM   29  H   LIG     1      27.337  19.434  20.304  1.00  0.00     0.210 HD
ENDBRANCH  15  28
TORSDOF 3
ENDMDL
MODEL 2
REMARK VINA RESULT:      -5.1      2.321      5.167
REMARK  3 active torsions:
REMARK  status: ('A' for Active; 'I' for Inactive)
REMARK    1  A    between atoms: C_15  and  O_16 
REMARK    2  A    between atoms: C_20  and  C_21 
REMARK    3  A    between atoms: C_20  and  O_24 
ROOT
HETATM    1  C   LIG     1      24.983  20.682  17.568  1.00  0.00     0.005 C 
HETATM    2  C   LIG     1      24.446  21.970  18.265  1.00  0.00     0.035 C 
HETATM    3  C   LIG     1      23.447  21.711  19.417  1.00  0.00     0.017 C 
HETATM    4  C   LIG     1      23.335  22.922  20.335  1.00  0.00     0.012 C 
HETATM    5  C   LIG     1      22.137  22.773  21.290  1.00  0.00     0.015 C 
HETATM    6  C   LIG     1      24.693  23.065  20.987  1.00  0.00    -0.057 C 
HETATM    7  C   LIG     1      24.886  22.774  22.291  1.00  0.00     0.059 C 
HETATM    8  C   LIG     1      26.238  22.621  22.830  1.00  0.00     0.172 C 
HETATM    9  C   LIG     1      27.373  22.627  21.914  1.00  0.00     0.052 C 
HETATM   10  C   LIG     1      27.200  22.935  20.627  1.00  0.00    -0.006 C 
HETATM   11  C   LIG     1      25.869  23.467  20.076  1.00  0.00     0.037 C 
HETATM   12  C   LIG     1      25.989  25.009  20.212  1.00  0.00     0.028 C 
HETATM   13  C   LIG     1      25.584  23.064  18.528  1.00  0.00     0.147 C 
HETATM   14  F   LIG     1      25.082  24.211  17.914  1.00  0.00    -0.238 F 
HETATM   15  C   LIG     1      26.857  22.716  17.663  1.00  0.00     0.160 C 
HETATM   16  C   LIG     1      27.432  21.280  17.859  1.00  0.00     0.048 C 
HETATM   17  C   LIG     1      26.338  20.177  18.077  1.00  0.00     0.001 C 
HETATM   18  C   LIG     1      26.266  19.834  19.598  1.00  0.00     0.019 C 
HETATM   19  C   LIG     1      26.508  18.836  17.267  1.00  0.00     0.125 C 
HETATM   20  C   LIG     1      25.057  18.277  17.174  1.00  0.00     0.047 C 
HETATM   21  C   LIG     1      24.090  19.447  17.443  1.00  0.00     0.009 C 
HETATM   22  O   LIG     1      26.414  22.424  24.061  1.00  0.00    -0.289 OA
ENDROOT
BRANCH  19  23
HETATM   23  C   LIG     1      27.135  19.026  15.871  1.00  0.00     0.158 C 
HETATM   24  C   LIG     1      26.369  19.446  14.644  1.00  0.00     0.094 C 
HETATM   25  O   LIG     1      28.336  18.832  15.737  1.00  0.00    -0.295 OA
ENDBRANCH  19  23
BRANCH  19  26
HETATM   26  O   LIG     1      27.316  17.933  17.994  1.00  0.00    -0.381 OA
HETATM   27  H   LIG     1      27.380  18.265  18.928  1.00  0.00     0.211 HD
ENDBRANCH  19  26
BRANCH  15  28
HETATM   28  O   LIG     1      27.877  23.672  17.811  1.00  0.00    -0.392 OA
HETATM   29  H   LIG     1      27.951  24.161  16.950  1.00  0.00     0.210 HD
ENDBRANCH  15  28
TORSDOF 3
ENDMDL
MODEL 3
REMARK VINA RESULT:      -5.0      3.049      5.481
REMARK  3 active torsions:
REMARK  status: ('A' for Active; 'I' for Inactive)
REMARK    1  A    between atoms: C_15  and  O_16 
REMARK    2  A    between atoms: C_20  and  C_21 
REMARK    3  A    between atoms: C_20  and  O_24 
ROOT
HETATM    1  C   LIG     1      28.195  25.212  21.887  1.00  0.00     0.005 C 
HETATM    2  C   LIG     1      27.692  25.735  20.506  1.00  0.00     0.035 C 
HETATM    3  C   LIG     1      28.814  26.177  19.538  1.00  0.00     0.017 C 
HETATM    4  C   LIG     1      28.317  26.219  18.098  1.00  0.00     0.012 C 
HETATM    5  C   LIG     1      29.333  26.936  17.190  1.00  0.00     0.015 C 
HETATM    6  C   LIG     1      27.997  24.785  17.736  1.00  0.00    -0.057 C 
HETATM    7  C   LIG     1      28.768  24.083  16.878  1.00  0.00     0.059 C 
HETATM    8  C   LIG     1      28.635  22.630  16.772  1.00  0.00     0.172 C 
HETATM    9  C   LIG     1      27.775  21.924  17.716  1.00  0.00     0.052 C 
HETATM   10  C   LIG     1      26.991  22.606  18.554  1.00  0.00    -0.006 C 
HETATM   11  C   LIG     1      26.808  24.127  18.462  1.00  0.00     0.037 C 
HETATM   12  C   LIG     1      25.593  24.309  17.512  1.00  0.00     0.028 C 
HETATM   13  C   LIG     1      26.513  24.847  19.889  1.00  0.00     0.147 C 
HETATM   14  F   LIG     1      25.497  25.773  19.654  1.00  0.00    -0.238 F 
HETATM   15  C   LIG     1      25.908  23.921  21.014  1.00  0.00     0.160 C 
HETATM   16  C   LIG     1      26.933  23.014  21.761  1.00  0.00     0.048 C 
HETATM   17  C   LIG     1      28.328  23.689  22.003  1.00  0.00     0.001 C 
HETATM   18  C   LIG     1      29.341  23.139  20.949  1.00  0.00     0.019 C 
HETATM   19  C   LIG     1      28.958  23.527  23.438  1.00  0.00     0.125 C 
HETATM   20  C   LIG     1      29.907  24.757  23.562  1.00  0.00     0.047 C 
HETATM   21  C   LIG     1      29.460  25.797  22.516  1.00  0.00     0.009 C 
HETATM   22  O   LIG     1      29.302  21.990  15.917  1.00  0.00    -0.289 OA
ENDROOT
BRANCH  19  23
HETATM   23  C   LIG     1      27.917  23.495  24.575  1.00  0.00     0.158 C 
HETATM   24  C   LIG     1      27.296  24.719  25.197  1.00  0.00     0.094 C 
HETATM   25  O   LIG     1      27.558  22.408  25.009  1.00  0.00    -0.295 OA
ENDBRANCH  19  23
BRANCH  19  26
HETATM   26  O   LIG     1      29.717  22.337  23.501  1.00  0.00    -0.381 OA
HETATM   27  H   LIG     1      29.200  21.674  24.030  1.00  0.00     0.211 HD
ENDBRANCH  19  26
BRANCH  15  28
HETATM   28  O   LIG     1      24.830  23.151  20.545  1.00  0.00    -0.392 OA
HETATM   29  H   LIG     1      25.035  22.895  19.607  1.00  0.00     0.210 HD
ENDBRANCH  15  28
TORSDOF 3
ENDMDL
MODEL 4
REMARK VINA RESULT:      -4.9      4.726      6.125
REMARK  3 active torsions:
REMARK  status: ('A' for Active; 'I' for Inactive)
REMARK    1  A    between atoms: C_15  and  O_16 
REMARK    2  A    between atoms: C_20  and  C_21 
REMARK    3  A    between atoms: C_20  and  O_24 
ROOT
HETATM    1  C   LIG     1      26.045  21.449  26.155  1.00  0.00     0.005 C 
HETATM    2  C   LIG     1      25.565  20.447  25.060  1.00  0.00     0.035 C 
HETATM    3  C   LIG     1      24.065  20.077  25.137  1.00  0.00     0.017 C 
HETATM    4  C   LIG     1      23.568  19.503  23.816  1.00  0.00     0.012 C 
HETATM    5  C   LIG     1      22.176  18.868  23.986  1.00  0.00     0.015 C 
HETATM    6  C   LIG     1      23.665  20.637  22.818  1.00  0.00    -0.057 C 
HETATM    7  C   LIG     1      22.563  21.256  22.341  1.00  0.00     0.059 C 
HETATM    8  C   LIG     1      22.672  22.529  21.628  1.00  0.00     0.172 C 
HETATM    9  C   LIG     1      23.963  23.207  21.576  1.00  0.00     0.052 C 
HETATM   10  C   LIG     1      25.064  22.597  22.023  1.00  0.00    -0.006 C 
HETATM   11  C   LIG     1      25.079  21.120  22.442  1.00  0.00     0.037 C 
HETATM   12  C   LIG     1      25.441  20.358  21.138  1.00  0.00     0.028 C 
HETATM   13  C   LIG     1      26.155  20.772  23.608  1.00  0.00     0.147 C 
HETATM   14  F   LIG     1      26.765  19.577  23.229  1.00  0.00    -0.238 F 
HETATM   15  C   LIG     1      27.367  21.773  23.746  1.00  0.00     0.160 C 
HETATM   16  C   LIG     1      27.064  23.095  24.515  1.00  0.00     0.048 C 
HETATM   17  C   LIG     1      26.083  22.920  25.726  1.00  0.00     0.001 C 
HETATM   18  C   LIG     1      24.664  23.411  25.298  1.00  0.00     0.019 C 
HETATM   19  C   LIG     1      26.478  23.639  27.071  1.00  0.00     0.125 C 
HETATM   20  C   LIG     1      25.751  22.799  28.163  1.00  0.00     0.047 C 
HETATM   21  C   LIG     1      25.408  21.430  27.546  1.00  0.00     0.009 C 
HETATM   22  O   LIG     1      21.652  23.064  21.120  1.00  0.00    -0.289 OA
ENDROOT
BRANCH  19  23
HETATM   23  C   LIG     1      27.999  23.701  27.321  1.00  0.00     0.158 C 
HETATM   24  C   LIG     1      28.825  22.550  27.834  1.00  0.00     0.094 C 
HETATM   25  O   LIG     1      28.589  24.747  27.087  1.00  0.00    -0.295 OA
ENDBRANCH  19  23
BRANCH  19  26
HETATM   26  O   LIG     1      25.977  24.960  27.079  1.00  0.00    -0.381 OA
HETATM   27  H   LIG     1      25.536  25.113  27.956  1.00  0.00     0.211 HD
ENDBRANCH  19  26
BRANCH  15  28
HETATM   28  O   LIG     1      27.963  22.057  22.505  1.00  0.00    -0.392 OA
HETATM   29  H   LIG     1      27.595  22.925  22.192  1.00  0.00     0.210 HD
ENDBRANCH  15  28
TORSDOF 3
ENDMDL
MODEL 5
REMARK VINA RESULT:      -4.9      2.359      5.964
REMARK  3 active torsions:
REMARK  status: ('A' for Active; 'I' for Inactive)
REMARK    1  A    between atoms: C_15  and  O_16 
REMARK    2  A    between atoms: C_20  and  C_21 
REMARK    3  A    between atoms: C_20  and  O_24 
ROOT
HETATM    1  C   LIG     1      25.290  22.150  18.734  1.00  0.00     0.005 C 
HETATM    2  C   LIG     1      26.610  22.959  18.542  1.00  0.00     0.035 C 
HETATM    3  C   LIG     1      26.443  24.494  18.630  1.00  0.00     0.017 C 
HETATM    4  C   LIG     1      27.776  25.179  18.907  1.00  0.00     0.012 C 
HETATM    5  C   LIG     1      27.661  26.700  18.699  1.00  0.00     0.015 C 
HETATM    6  C   LIG     1      28.187  24.726  20.291  1.00  0.00    -0.057 C 
HETATM    7  C   LIG     1      28.153  25.564  21.350  1.00  0.00     0.059 C 
HETATM    8  C   LIG     1      28.253  25.048  22.715  1.00  0.00     0.172 C 
HETATM    9  C   LIG     1      28.228  23.605  22.933  1.00  0.00     0.052 C 
HETATM   10  C   LIG     1      28.284  22.765  21.897  1.00  0.00    -0.006 C 
HETATM   11  C   LIG     1      28.554  23.239  20.462  1.00  0.00     0.037 C 
HETATM   12  C   LIG     1      30.100  23.178  20.324  1.00  0.00     0.028 C 
HETATM   13  C   LIG     1      27.855  22.321  19.318  1.00  0.00     0.147 C 
HETATM   14  F   LIG     1      28.812  22.154  18.316  1.00  0.00    -0.238 F 
HETATM   15  C   LIG     1      27.510  20.841  19.741  1.00  0.00     0.160 C 
HETATM   16  C   LIG     1      26.206  20.668  20.578  1.00  0.00     0.048 C 
HETATM   17  C   LIG     1      25.040  21.628  20.154  1.00  0.00     0.001 C 
HETATM   18  C   LIG     1      24.964  22.808  21.173  1.00  0.00     0.019 C 
HETATM   19  C   LIG     1      23.606  20.989  20.017  1.00  0.00     0.125 C 
HETATM   20  C   LIG     1      22.877  21.936  19.017  1.00  0.00     0.047 C 
HETATM   21  C   LIG     1      23.957  22.730  18.256  1.00  0.00     0.009 C 
HETATM   22  O   LIG     1      28.297  25.838  23.693  1.00  0.00    -0.289 OA
ENDROOT
BRANCH  19  23
HETATM   23  C   LIG     1      23.619  19.532  19.512  1.00  0.00     0.158 C 
HETATM   24  C   LIG     1      23.734  19.133  18.064  1.00  0.00     0.094 C 
HETATM   25  O   LIG     1      23.537  18.628  20.333  1.00  0.00    -0.295 OA
ENDBRANCH  19  23
BRANCH  19  26
HETATM   26  O   LIG     1      22.943  21.018  21.264  1.00  0.00    -0.381 OA
HETATM   27  H   LIG     1      23.549  20.614  21.940  1.00  0.00     0.211 HD
ENDBRANCH  19  26
BRANCH  15  28
HETATM   28  O   LIG     1      28.587  20.207  20.383  1.00  0.00    -0.392 OA
HETATM   29  H   LIG     1      28.604  20.529  21.322  1.00  0.00     0.210 HD
ENDBRANCH  15  28
TORSDOF 3
ENDMDL
MODEL 6
REMARK VINA RESULT:      -4.8      2.563      4.378
REMARK  3 active torsions:
REMARK  status: ('A' for Active; 'I' for Inactive)
REMARK    1  A    between atoms: C_15  and  O_16 
REMARK    2  A    between atoms: C_20  and  C_21 
REMARK    3  A    between atoms: C_20  and  O_24 
ROOT
HETATM    1  C   LIG     1      26.252  20.557  17.152  1.00  0.00     0.005 C 
HETATM    2  C   LIG     1      24.741  20.673  17.524  1.00  0.00     0.035 C 
HETATM    3  C   LIG     1      24.041  19.323  17.805  1.00  0.00     0.017 C 
HETATM    4  C   LIG     1      22.756  19.521  18.599  1.00  0.00     0.012 C 
HETATM    5  C   LIG     1      21.920  18.229  18.617  1.00  0.00     0.015 C 
HETATM    6  C   LIG     1      23.189  20.053  19.948  1.00  0.00    -0.057 C 
HETATM    7  C   LIG     1      23.120  19.294  21.063  1.00  0.00     0.059 C 
HETATM    8  C   LIG     1      23.815  19.699  22.285  1.00  0.00     0.172 C 
HETATM    9  C   LIG     1      24.715  20.847  22.245  1.00  0.00     0.052 C 
HETATM   10  C   LIG     1      24.776  21.618  21.157  1.00  0.00    -0.006 C 
HETATM   11  C   LIG     1      23.802  21.467  19.980  1.00  0.00     0.037 C 
HETATM   12  C   LIG     1      22.626  22.418  20.333  1.00  0.00     0.028 C 
HETATM   13  C   LIG     1      24.435  21.871  18.539  1.00  0.00     0.147 C 
HETATM   14  F   LIG     1      23.456  22.615  17.881  1.00  0.00    -0.238 F 
HETATM   15  C   LIG     1      25.669  22.853  18.583  1.00  0.00     0.160 C 
HETATM   16  C   LIG     1      27.041  22.194  18.923  1.00  0.00     0.048 C 
HETATM   17  C   LIG     1      27.231  20.761  18.313  1.00  0.00     0.001 C 
HETATM   18  C   LIG     1      26.991  19.702  19.435  1.00  0.00     0.019 C 
HETATM   19  C   LIG     1      28.616  20.459  17.625  1.00  0.00     0.125 C 
HETATM   20  C   LIG     1      28.283  19.320  16.615  1.00  0.00     0.047 C 
HETATM   21  C   LIG     1      26.761  19.340  16.377  1.00  0.00     0.009 C 
HETATM   22  O   LIG     1      23.686  19.028  23.343  1.00  0.00    -0.289 OA
ENDROOT
BRANCH  19  23
HETATM   23  C   LIG     1      29.241  21.679  16.920  1.00  0.00     0.158 C 
HETATM   24  C   LIG     1      28.873  22.143  15.534  1.00  0.00     0.094 C 
HETATM   25  O   LIG     1      30.091  22.328  17.515  1.00  0.00    -0.295 OA
ENDBRANCH  19  23
BRANCH  19  26
HETATM   26  O   LIG     1      29.538  19.984  18.585  1.00  0.00    -0.381 OA
HETATM   27  H   LIG     1      29.398  20.498  19.423  1.00  0.00     0.211 HD
ENDBRANCH  19  26
BRANCH  15  28
HETATM   28  O   LIG     1      25.440  23.958  19.421  1.00  0.00    -0.392 OA
HETATM   29  H   LIG     1      26.294  24.460  19.488  1.00  0.00     0.210 HD
ENDBRANCH  15  28
TORSDOF 3
ENDMDL
MODEL 7
REMARK VINA RESULT:      -4.8      1.931      2.597
REMARK  3 active torsions:
REMARK  status: ('A' for Active; 'I' for Inactive)
REMARK    1  A    between atoms: C_15  and  O_16 
REMARK    2  A    between atoms: C_20  and  C_21 
REMARK    3  A    between atoms: C_20  and  O_24 
ROOT
HETATM    1  C   LIG     1      28.128  23.742  20.627  1.00  0.00     0.005 C 
HETATM    2  C   LIG     1      27.459  22.485  21.265  1.00  0.00     0.035 C 
HETATM    3  C   LIG     1      26.731  22.752  22.603  1.00  0.00     0.017 C 
HETATM    4  C   LIG     1      25.733  21.646  22.920  1.00  0.00     0.012 C 
HETATM    5  C   LIG     1      25.235  21.758  24.372  1.00  0.00     0.015 C 
HETATM    6  C   LIG     1      24.672  21.735  21.844  1.00  0.00    -0.057 C 
HETATM    7  C   LIG     1      23.429  22.190  22.112  1.00  0.00     0.059 C 
HETATM    8  C   LIG     1      22.519  22.558  21.027  1.00  0.00     0.172 C 
HETATM    9  C   LIG     1      23.019  22.584  19.657  1.00  0.00     0.052 C 
HETATM   10  C   LIG     1      24.237  22.117  19.375  1.00  0.00    -0.006 C 
HETATM   11  C   LIG     1      25.098  21.376  20.407  1.00  0.00     0.037 C 
HETATM   12  C   LIG     1      24.712  19.883  20.224  1.00  0.00     0.028 C 
HETATM   13  C   LIG     1      26.698  21.568  20.198  1.00  0.00     0.147 C 
HETATM   14  F   LIG     1      27.268  20.310  20.383  1.00  0.00    -0.238 F 
HETATM   15  C   LIG     1      27.157  21.965  18.741  1.00  0.00     0.160 C 
HETATM   16  C   LIG     1      26.997  23.471  18.372  1.00  0.00     0.048 C 
HETATM   17  C   LIG     1      27.295  24.456  19.556  1.00  0.00     0.001 C 
HETATM   18  C   LIG     1      25.939  24.954  20.149  1.00  0.00     0.019 C 
HETATM   19  C   LIG     1      28.192  25.710  19.230  1.00  0.00     0.125 C 
HETATM   20  C   LIG     1      28.817  26.081  20.608  1.00  0.00     0.047 C 
HETATM   21  C   LIG     1      28.703  24.843  21.520  1.00  0.00     0.009 C 
HETATM   22  O   LIG     1      21.336  22.910  21.280  1.00  0.00    -0.289 OA
ENDROOT
BRANCH  19  23
HETATM   23  C   LIG     1      29.276  25.440  18.168  1.00  0.00     0.158 C 
HETATM   24  C   LIG     1      29.198  25.900  16.735  1.00  0.00     0.094 C 
HETATM   25  O   LIG     1      30.276  24.817  18.498  1.00  0.00    -0.295 OA
ENDBRANCH  19  23
BRANCH  19  26
HETATM   26  O   LIG     1      27.384  26.776  18.776  1.00  0.00    -0.381 OA
HETATM   27  H   LIG     1      26.840  26.443  18.014  1.00  0.00     0.211 HD
ENDBRANCH  19  26
BRANCH  15  28
HETATM   28  O   LIG     1      26.560  21.157  17.758  1.00  0.00    -0.392 OA
HETATM   29  H   LIG     1      25.592  21.097  17.972  1.00  0.00     0.210 HD
ENDBRANCH  15  28
TORSDOF 3
ENDMDL
MODEL 8
REMARK VINA RESULT:      -4.8      3.082      5.200
REMARK  3 active torsions:
REMARK  status: ('A' for Active; 'I' for Inactive)
REMARK    1  A    between atoms: C_15  and  O_16 
REMARK    2  A    between atoms: C_20  and  C_21 
REMARK    3  A    between atoms: C_20  and  O_24 
ROOT
HETATM    1  C   LIG     1      26.049  22.864  23.085  1.00  0.00     0.005 C 
HETATM    2  C   LIG     1      25.344  23.334  21.775  1.00  0.00     0.035 C 
HETATM    3  C   LIG     1      26.306  23.693  20.619  1.00  0.00     0.017 C 
HETATM    4  C   LIG     1      25.586  23.679  19.276  1.00  0.00     0.012 C 
HETATM    5  C   LIG     1      26.459  24.318  18.181  1.00  0.00     0.015 C 
HETATM    6  C   LIG     1      25.179  22.240  19.047  1.00  0.00    -0.057 C 
HETATM    7  C   LIG     1      25.787  21.472  18.116  1.00  0.00     0.059 C 
HETATM    8  C   LIG     1      25.605  20.020  18.111  1.00  0.00     0.172 C 
HETATM    9  C   LIG     1      24.892  19.389  19.216  1.00  0.00     0.052 C 
HETATM   10  C   LIG     1      24.268  20.135  20.130  1.00  0.00    -0.006 C 
HETATM   11  C   LIG     1      24.107  21.655  19.987  1.00  0.00     0.037 C 
HETATM   12  C   LIG     1      22.760  21.827  19.233  1.00  0.00     0.028 C 
HETATM   13  C   LIG     1      24.061  22.454  21.401  1.00  0.00     0.147 C 
HETATM   14  F   LIG     1      23.042  23.398  21.281  1.00  0.00    -0.238 F 
HETATM   15  C   LIG     1      23.623  21.603  22.656  1.00  0.00     0.160 C 
HETATM   16  C   LIG     1      24.733  20.703  23.279  1.00  0.00     0.048 C 
HETATM   17  C   LIG     1      26.164  21.346  23.260  1.00  0.00     0.001 C 
HETATM   18  C   LIG     1      26.983  20.713  22.090  1.00  0.00     0.019 C 
HETATM   19  C   LIG     1      27.012  21.235  24.583  1.00  0.00     0.125 C 
HETATM   20  C   LIG     1      27.996  22.440  24.489  1.00  0.00     0.047 C 
HETATM   21  C   LIG     1      27.412  23.440  23.473  1.00  0.00     0.009 C 
HETATM   22  O   LIG     1      26.112  19.318  17.197  1.00  0.00    -0.289 OA
ENDROOT
BRANCH  19  23
HETATM   23  C   LIG     1      26.166  21.292  25.871  1.00  0.00     0.158 C 
HETATM   24  C   LIG     1      25.579  22.553  26.450  1.00  0.00     0.094 C 
HETATM   25  O   LIG     1      25.944  20.248  26.471  1.00  0.00    -0.295 OA
ENDBRANCH  19  23
BRANCH  19  26
HETATM   26  O   LIG     1      27.744  20.027  24.589  1.00  0.00    -0.381 OA
HETATM   27  H   LIG     1      27.949  19.791  23.645  1.00  0.00     0.211 HD
ENDBRANCH  19  26
BRANCH  15  28
HETATM   28  O   LIG     1      22.466  20.845  22.406  1.00  0.00    -0.392 OA
HETATM   29  H   LIG     1      22.215  20.993  21.457  1.00  0.00     0.210 HD
ENDBRANCH  15  28
TORSDOF 3
ENDMDL
MODEL 9
REMARK VINA RESULT:      -4.8      2.066      5.845
REMARK  3 active torsions:
REMARK  status: ('A' for Active; 'I' for Inactive)
REMARK    1  A    between atoms: C_15  and  O_16 
REMARK    2  A    between atoms: C_20  and  C_21 
REMARK    3  A    between atoms: C_20  and  O_24 
ROOT
HETATM    1  C   LIG     1      25.449  20.978  20.165  1.00  0.00     0.005 C 
HETATM    2  C   LIG     1      27.005  20.997  20.049  1.00  0.00     0.035 C 
HETATM    3  C   LIG     1      27.569  20.229  18.831  1.00  0.00     0.017 C 
HETATM    4  C   LIG     1      28.993  20.669  18.511  1.00  0.00     0.012 C 
HETATM    5  C   LIG     1      29.648  19.707  17.503  1.00  0.00     0.015 C 
HETATM    6  C   LIG     1      28.884  22.115  18.076  1.00  0.00    -0.057 C 
HETATM    7  C   LIG     1      29.059  22.482  16.789  1.00  0.00     0.059 C 
HETATM    8  C   LIG     1      28.656  23.812  16.330  1.00  0.00     0.172 C 
HETATM    9  C   LIG     1      27.915  24.682  17.236  1.00  0.00     0.052 C 
HETATM   10  C   LIG     1      27.754  24.342  18.517  1.00  0.00    -0.006 C 
HETATM   11  C   LIG     1      28.469  23.140  19.150  1.00  0.00     0.037 C 
HETATM   12  C   LIG     1      29.800  23.730  19.692  1.00  0.00     0.028 C 
HETATM   13  C   LIG     1      27.640  22.434  20.355  1.00  0.00     0.147 C 
HETATM   14  F   LIG     1      28.567  22.172  21.363  1.00  0.00    -0.238 F 
HETATM   15  C   LIG     1      26.567  23.340  21.074  1.00  0.00     0.160 C 
HETATM   16  C   LIG     1      25.209  23.499  20.325  1.00  0.00     0.048 C 
HETATM   17  C   LIG     1      24.732  22.201  19.584  1.00  0.00     0.001 C 
HETATM   18  C   LIG     1      25.039  22.351  18.060  1.00  0.00     0.019 C 
HETATM   19  C   LIG     1      23.218  21.800  19.754  1.00  0.00     0.125 C 
HETATM   20  C   LIG     1      23.215  20.263  19.501  1.00  0.00     0.047 C 
HETATM   21  C   LIG     1      24.658  19.757  19.690  1.00  0.00     0.009 C 
HETATM   22  O   LIG     1      28.890  24.176  15.148  1.00  0.00    -0.289 OA
ENDROOT
BRANCH  19  23
HETATM   23  C   LIG     1      22.633  22.149  21.137  1.00  0.00     0.158 C 
HETATM   24  C   LIG     1      22.810  21.308  22.374  1.00  0.00     0.094 C 
HETATM   25  O   LIG     1      21.983  23.180  21.255  1.00  0.00    -0.295 OA
ENDBRANCH  19  23
BRANCH  19  26
HETATM   26  O   LIG     1      22.434  22.442  18.769  1.00  0.00    -0.381 OA
HETATM   27  H   LIG     1      22.101  21.746  18.143  1.00  0.00     0.211 HD
ENDBRANCH  19  26
BRANCH  15  28
HETATM   28  O   LIG     1      27.083  24.602  21.417  1.00  0.00    -0.392 OA
HETATM   29  H   LIG     1      27.864  24.450  22.012  1.00  0.00     0.210 HD
ENDBRANCH  15  28
TORSDOF 3
ENDMDL
MODEL 10
REMARK VINA RESULT:      -4.8      2.231      3.779
REMARK  3 active torsions:
REMARK  status: ('A' for Active; 'I' for Inactive)
REMARK    1  A    between atoms: C_15  and  O_16 
REMARK    2  A    between atoms: C_20  and  C_21 
REMARK    3  A    between atoms: C_20  and  O_24 
ROOT
HETATM    1  C   LIG     1      27.570  22.420  19.309  1.00  0.00     0.005 C 
HETATM    2  C   LIG     1      26.791  21.070  19.259  1.00  0.00     0.035 C 
HETATM    3  C   LIG     1      27.102  20.103  20.425  1.00  0.00     0.017 C 
HETATM    4  C   LIG     1      26.007  19.056  20.583  1.00  0.00     0.012 C 
HETATM    5  C   LIG     1      26.458  17.933  21.534  1.00  0.00     0.015 C 
HETATM    6  C   LIG     1      24.769  19.821  20.997  1.00  0.00    -0.057 C 
HETATM    7  C   LIG     1      24.274  19.742  22.251  1.00  0.00     0.059 C 
HETATM    8  C   LIG     1      23.278  20.704  22.723  1.00  0.00     0.172 C 
HETATM    9  C   LIG     1      22.941  21.849  21.884  1.00  0.00     0.052 C 
HETATM   10  C   LIG     1      23.405  21.929  20.634  1.00  0.00    -0.006 C 
HETATM   11  C   LIG     1      24.151  20.772  19.953  1.00  0.00     0.037 C 
HETATM   12  C   LIG     1      23.029  19.951  19.261  1.00  0.00     0.028 C 
HETATM   13  C   LIG     1      25.252  21.247  18.858  1.00  0.00     0.147 C 
HETATM   14  F   LIG     1      25.102  20.398  17.762  1.00  0.00    -0.238 F 
HETATM   15  C   LIG     1      25.032  22.682  18.239  1.00  0.00     0.160 C 
HETATM   16  C   LIG     1      25.500  23.876  19.126  1.00  0.00     0.048 C 
HETATM   17  C   LIG     1      26.811  23.594  19.939  1.00  0.00     0.001 C 
HETATM   18  C   LIG     1      26.425  23.274  21.418  1.00  0.00     0.019 C 
HETATM   19  C   LIG     1      27.906  24.726  19.939  1.00  0.00     0.125 C 
HETATM   20  C   LIG     1      29.231  23.955  20.222  1.00  0.00     0.047 C 
HETATM   21  C   LIG     1      28.985  22.470  19.890  1.00  0.00     0.009 C 
HETATM   22  O   LIG     1      22.765  20.581  23.866  1.00  0.00    -0.289 OA
ENDROOT
BRANCH  19  23
HETATM   23  C   LIG     1      27.982  25.520  18.620  1.00  0.00     0.158 C 
HETATM   24  C   LIG     1      28.457  24.949  17.309  1.00  0.00     0.094 C 
HETATM   25  O   LIG     1      27.630  26.692  18.621  1.00  0.00    -0.295 OA
ENDBRANCH  19  23
BRANCH  19  26
HETATM   26  O   LIG     1      27.658  25.638  20.989  1.00  0.00    -0.381 OA
HETATM   27  H   LIG     1      27.475  26.527  20.583  1.00  0.00     0.211 HD
ENDBRANCH  19  26
BRANCH  15  28
HETATM   28  O   LIG     1      23.706  22.880  17.817  1.00  0.00    -0.392 OA
HETATM   29  H   LIG     1      23.343  23.648  18.332  1.00  0.00     0.210 HD
ENDBRANCH  15  28
TORSDOF 3
ENDMDL
MODEL 11
REMARK VINA RESULT:      -4.7      5.237      7.564
REMARK  3 active torsions:
REMARK  status: ('A' for Active; 'I' for Inactive)
REMARK    1  A    between atoms: C_15  and  O_16 
REMARK    2  A    between atoms: C_20  and  C_21 
REMARK    3  A    between atoms: C_20  and  O_24 
ROOT
HETATM    1  C   LIG     1      23.456  21.056  24.124  1.00  0.00     0.005 C 
HETATM    2  C   LIG     1      23.541  20.882  25.672  1.00  0.00     0.035 C 
HETATM    3  C   LIG     1      23.698  19.419  26.149  1.00  0.00     0.017 C 
HETATM    4  C   LIG     1      24.238  19.357  27.573  1.00  0.00     0.012 C 
HETATM    5  C   LIG     1      24.112  17.933  28.142  1.00  0.00     0.015 C 
HETATM    6  C   LIG     1      25.639  19.924  27.502  1.00  0.00    -0.057 C 
HETATM    7  C   LIG     1      26.729  19.138  27.632  1.00  0.00     0.059 C 
HETATM    8  C   LIG     1      28.055  19.632  27.262  1.00  0.00     0.172 C 
HETATM    9  C   LIG     1      28.173  20.926  26.599  1.00  0.00     0.052 C 
HETATM   10  C   LIG     1      27.108  21.723  26.483  1.00  0.00    -0.006 C 
HETATM   11  C   LIG     1      25.772  21.425  27.178  1.00  0.00     0.037 C 
HETATM   12  C   LIG     1      25.891  22.135  28.555  1.00  0.00     0.028 C 
HETATM   13  C   LIG     1      24.470  21.977  26.377  1.00  0.00     0.147 C 
HETATM   14  F   LIG     1      23.634  22.544  27.339  1.00  0.00    -0.238 F 
HETATM   15  C   LIG     1      24.734  23.167  25.376  1.00  0.00     0.160 C 
HETATM   16  C   LIG     1      25.328  22.764  23.992  1.00  0.00     0.048 C 
HETATM   17  C   LIG     1      24.778  21.407  23.430  1.00  0.00     0.001 C 
HETATM   18  C   LIG     1      25.844  20.293  23.672  1.00  0.00     0.019 C 
HETATM   19  C   LIG     1      24.362  21.382  21.910  1.00  0.00     0.125 C 
HETATM   20  C   LIG     1      23.318  20.228  21.835  1.00  0.00     0.047 C 
HETATM   21  C   LIG     1      22.801  19.973  23.264  1.00  0.00     0.009 C 
HETATM   22  O   LIG     1      29.077  18.921  27.456  1.00  0.00    -0.289 OA
ENDROOT
BRANCH  19  23
HETATM   23  C   LIG     1      23.774  22.714  21.404  1.00  0.00     0.158 C 
HETATM   24  C   LIG     1      22.323  23.105  21.521  1.00  0.00     0.094 C 
HETATM   25  O   LIG     1      24.525  23.522  20.873  1.00  0.00    -0.295 OA
ENDBRANCH  19  23
BRANCH  19  26
HETATM   26  O   LIG     1      25.480  21.061  21.109  1.00  0.00    -0.381 OA
HETATM   27  H   LIG     1      25.890  21.913  20.803  1.00  0.00     0.211 HD
ENDBRANCH  19  26
BRANCH  15  28
HETATM   28  O   LIG     1      25.504  24.189  25.957  1.00  0.00    -0.392 OA
HETATM   29  H   LIG     1      25.918  24.705  25.216  1.00  0.00     0.210 HD
ENDBRANCH  15  28
TORSDOF 3
ENDMDL
MODEL 12
REMARK VINA RESULT:      -4.7      3.493      6.040
REMARK  3 active torsions:
REMARK  status: ('A' for Active; 'I' for Inactive)
REMARK    1  A    between atoms: C_15  and  O_16 
REMARK    2  A    between atoms: C_20  and  C_21 
REMARK    3  A    between atoms: C_20  and  O_24 
ROOT
HETATM    1  C   LIG     1      25.373  21.030  22.719  1.00  0.00     0.005 C 
HETATM    2  C   LIG     1      25.687  21.680  21.336  1.00  0.00     0.035 C 
HETATM    3  C   LIG     1      26.715  20.905  20.478  1.00  0.00     0.017 C 
HETATM    4  C   LIG     1      26.622  21.303  19.010  1.00  0.00     0.012 C 
HETATM    5  C   LIG     1      27.828  20.761  18.221  1.00  0.00     0.015 C 
HETATM    6  C   LIG     1      25.259  20.836  18.547  1.00  0.00    -0.057 C 
HETATM    7  C   LIG     1      25.117  19.785  17.711  1.00  0.00     0.059 C 
HETATM    8  C   LIG     1      23.810  19.158  17.515  1.00  0.00     0.172 C 
HETATM    9  C   LIG     1      22.690  19.572  18.353  1.00  0.00     0.052 C 
HETATM   10  C   LIG     1      22.810  20.623  19.168  1.00  0.00    -0.006 C 
HETATM   11  C   LIG     1      24.032  21.551  19.147  1.00  0.00     0.037 C 
HETATM   12  C   LIG     1      23.656  22.654  18.121  1.00  0.00     0.028 C 
HETATM   13  C   LIG     1      24.381  22.221  20.585  1.00  0.00     0.147 C 
HETATM   14  F   LIG     1      24.684  23.557  20.327  1.00  0.00    -0.238 F 
HETATM   15  C   LIG     1      23.185  22.310  21.610  1.00  0.00     0.160 C 
HETATM   16  C   LIG     1      22.859  20.994  22.379  1.00  0.00     0.048 C 
HETATM   17  C   LIG     1      24.122  20.145  22.760  1.00  0.00     0.001 C 
HETATM   18  C   LIG     1      24.250  18.957  21.755  1.00  0.00     0.019 C 
HETATM   19  C   LIG     1      24.179  19.572  24.226  1.00  0.00     0.125 C 
HETATM   20  C   LIG     1      25.703  19.385  24.488  1.00  0.00     0.047 C 
HETATM   21  C   LIG     1      26.461  20.261  23.471  1.00  0.00     0.009 C 
HETATM   22  O   LIG     1      23.669  18.228  16.678  1.00  0.00    -0.289 OA
ENDROOT
BRANCH  19  23
HETATM   23  C   LIG     1      23.530  20.491  25.280  1.00  0.00     0.158 C 
HETATM   24  C   LIG     1      24.149  21.762  25.799  1.00  0.00     0.094 C 
HETATM   25  O   LIG     1      22.434  20.182  25.731  1.00  0.00    -0.295 OA
ENDBRANCH  19  23
BRANCH  19  26
HETATM   26  O   LIG     1      23.534  18.316  24.279  1.00  0.00    -0.381 OA
HETATM   27  H   LIG     1      23.841  17.783  23.499  1.00  0.00     0.211 HD
ENDBRANCH  19  26
BRANCH  15  28
HETATM   28  O   LIG     1      22.020  22.830  21.021  1.00  0.00    -0.392 OA
HETATM   29  H   LIG     1      21.374  22.081  20.930  1.00  0.00     0.210 HD
ENDBRANCH  15  28
TORSDOF 3
ENDMDL
MODEL 13
REMARK VINA RESULT:      -4.5     13.508     16.300
REMARK  3 active torsions:
REMARK  status: ('A' for Active; 'I' for Inactive)
REMARK    1  A    between atoms: C_15  and  O_16 
REMARK    2  A    between atoms: C_20  and  C_21 
REMARK    3  A    between atoms: C_20  and  O_24 
ROOT
HETATM    1  C   LIG     1      20.016  19.497  33.268  1.00  0.00     0.005 C 
HETATM    2  C   LIG     1      19.897  20.085  34.708  1.00  0.00     0.035 C 
HETATM    3  C   LIG     1      20.866  19.462  35.741  1.00  0.00     0.017 C 
HETATM    4  C   LIG     1      21.037  20.366  36.955  1.00  0.00     0.012 C 
HETATM    5  C   LIG     1      21.753  19.620  38.095  1.00  0.00     0.015 C 
HETATM    6  C   LIG     1      21.724  21.612  36.440  1.00  0.00    -0.057 C 
HETATM    7  C   LIG     1      23.014  21.882  36.735  1.00  0.00     0.059 C 
HETATM    8  C   LIG     1      23.750  22.908  35.997  1.00  0.00     0.172 C 
HETATM    9  C   LIG     1      23.130  23.528  34.831  1.00  0.00     0.052 C 
HETATM   10  C   LIG     1      21.849  23.288  34.541  1.00  0.00    -0.006 C 
HETATM   11  C   LIG     1      20.918  22.514  35.485  1.00  0.00     0.037 C 
HETATM   12  C   LIG     1      20.290  23.612  36.386  1.00  0.00     0.028 C 
HETATM   13  C   LIG     1      19.749  21.678  34.726  1.00  0.00     0.147 C 
HETATM   14  F   LIG     1      18.583  21.889  35.461  1.00  0.00    -0.238 F 
HETATM   15  C   LIG     1      19.368  22.187  33.282  1.00  0.00     0.160 C 
HETATM   16  C   LIG     1      20.330  21.747  32.138  1.00  0.00     0.048 C 
HETATM   17  C   LIG     1      20.901  20.296  32.304  1.00  0.00     0.001 C 
HETATM   18  C   LIG     1      22.364  20.390  32.843  1.00  0.00     0.019 C 
HETATM   19  C   LIG     1      20.896  19.377  31.024  1.00  0.00     0.125 C 
HETATM   20  C   LIG     1      20.879  17.933  31.609  1.00  0.00     0.047 C 
HETATM   21  C   LIG     1      20.389  18.027  33.067  1.00  0.00     0.009 C 
HETATM   22  O   LIG     1      24.928  23.208  36.326  1.00  0.00    -0.289 OA
ENDROOT
BRANCH  19  23
HETATM   23  C   LIG     1      19.698  19.624  30.085  1.00  0.00     0.158 C 
HETATM   24  C   LIG     1      18.301  19.120  30.336  1.00  0.00     0.094 C 
HETATM   25  O   LIG     1      19.879  20.277  29.066  1.00  0.00    -0.295 OA
ENDBRANCH  19  23
BRANCH  19  26
HETATM   26  O   LIG     1      22.084  19.573  30.284  1.00  0.00    -0.381 OA
HETATM   27  H   LIG     1      22.196  18.795  29.677  1.00  0.00     0.211 HD
ENDBRANCH  19  26
BRANCH  15  28
HETATM   28  O   LIG     1      19.172  23.578  33.245  1.00  0.00    -0.392 OA
HETATM   29  H   LIG     1      18.304  23.743  32.791  1.00  0.00     0.210 HD
ENDBRANCH  15  28
TORSDOF 3
ENDMDL
MODEL 14
REMARK VINA RESULT:      -4.4      4.350      5.941
REMARK  3 active torsions:
REMARK  status: ('A' for Active; 'I' for Inactive)
REMARK    1  A    between atoms: C_15  and  O_16 
REMARK    2  A    between atoms: C_20  and  C_21 
REMARK    3  A    between atoms: C_20  and  O_24 
ROOT
HETATM    1  C   LIG     1      26.464  22.679  25.429  1.00  0.00     0.005 C 
HETATM    2  C   LIG     1      25.889  22.061  24.117  1.00  0.00     0.035 C 
HETATM    3  C   LIG     1      24.675  22.816  23.527  1.00  0.00     0.017 C 
HETATM    4  C   LIG     1      24.469  22.470  22.057  1.00  0.00     0.012 C 
HETATM    5  C   LIG     1      23.105  22.983  21.562  1.00  0.00     0.015 C 
HETATM    6  C   LIG     1      25.685  23.012  21.338  1.00  0.00    -0.057 C 
HETATM    7  C   LIG     1      25.608  24.094  20.533  1.00  0.00     0.059 C 
HETATM    8  C   LIG     1      26.820  24.785  20.094  1.00  0.00     0.172 C 
HETATM    9  C   LIG     1      28.107  24.395  20.660  1.00  0.00     0.052 C 
HETATM   10  C   LIG     1      28.201  23.314  21.438  1.00  0.00    -0.006 C 
HETATM   11  C   LIG     1      27.037  22.334  21.637  1.00  0.00     0.037 C 
HETATM   12  C   LIG     1      27.227  21.281  20.511  1.00  0.00     0.028 C 
HETATM   13  C   LIG     1      27.025  21.603  23.088  1.00  0.00     0.147 C 
HETATM   14  F   LIG     1      26.724  20.263  22.845  1.00  0.00    -0.238 F 
HETATM   15  C   LIG     1      28.414  21.535  23.833  1.00  0.00     0.160 C 
HETATM   16  C   LIG     1      28.846  22.838  24.570  1.00  0.00     0.048 C 
HETATM   17  C   LIG     1      27.662  23.617  25.242  1.00  0.00     0.001 C 
HETATM   18  C   LIG     1      27.280  24.831  24.336  1.00  0.00     0.019 C 
HETATM   19  C   LIG     1      27.895  24.141  26.710  1.00  0.00     0.125 C 
HETATM   20  C   LIG     1      26.455  24.251  27.293  1.00  0.00     0.047 C 
HETATM   21  C   LIG     1      25.532  23.375  26.423  1.00  0.00     0.009 C 
HETATM   22  O   LIG     1      26.747  25.747  19.284  1.00  0.00    -0.289 OA
ENDROOT
BRANCH  19  23
HETATM   23  C   LIG     1      28.786  23.218  27.565  1.00  0.00     0.158 C 
HETATM   24  C   LIG     1      28.305  21.966  28.252  1.00  0.00     0.094 C 
HETATM   25  O   LIG     1      29.968  23.507  27.701  1.00  0.00    -0.295 OA
ENDBRANCH  19  23
BRANCH  19  26
HETATM   26  O   LIG     1      28.490  25.422  26.677  1.00  0.00    -0.381 OA
HETATM   27  H   LIG     1      29.071  25.508  27.479  1.00  0.00     0.211 HD
ENDBRANCH  19  26
BRANCH  15  28
HETATM   28  O   LIG     1      29.446  21.086  22.992  1.00  0.00    -0.392 OA
HETATM   29  H   LIG     1      29.895  20.330  23.453  1.00  0.00     0.210 HD
ENDBRANCH  15  28
TORSDOF 3
ENDMDL
MODEL 15
REMARK VINA RESULT:      -4.3      2.837      6.404
REMARK  3 active torsions:
REMARK  status: ('A' for Active; 'I' for Inactive)
REMARK    1  A    between atoms: C_15  and  O_16 
REMARK    2  A    between atoms: C_20  and  C_21 
REMARK    3  A    between atoms: C_20  and  O_24 
ROOT
HETATM    1  C   LIG     1      24.626  21.498  21.142  1.00  0.00     0.005 C 
HETATM    2  C   LIG     1      25.702  22.192  20.251  1.00  0.00     0.035 C 
HETATM    3  C   LIG     1      25.451  23.696  19.991  1.00  0.00     0.017 C 
HETATM    4  C   LIG     1      26.725  24.400  19.543  1.00  0.00     0.012 C 
HETATM    5  C   LIG     1      26.411  25.808  19.004  1.00  0.00     0.015 C 
HETATM    6  C   LIG     1      27.665  24.335  20.727  1.00  0.00    -0.057 C 
HETATM    7  C   LIG     1      27.960  25.432  21.457  1.00  0.00     0.059 C 
HETATM    8  C   LIG     1      28.612  25.308  22.761  1.00  0.00     0.172 C 
HETATM    9  C   LIG     1      28.794  23.982  23.342  1.00  0.00     0.052 C 
HETATM   10  C   LIG     1      28.527  22.889  22.624  1.00  0.00    -0.006 C 
HETATM   11  C   LIG     1      28.195  22.944  21.126  1.00  0.00     0.037 C 
HETATM   12  C   LIG     1      29.574  22.812  20.424  1.00  0.00     0.028 C 
HETATM   13  C   LIG     1      27.198  21.763  20.624  1.00  0.00     0.147 C 
HETATM   14  F   LIG     1      27.717  21.306  19.413  1.00  0.00    -0.238 F 
HETATM   15  C   LIG     1      27.166  20.465  21.520  1.00  0.00     0.160 C 
HETATM   16  C   LIG     1      26.294  20.559  22.808  1.00  0.00     0.048 C 
HETATM   17  C   LIG     1      24.976  21.391  22.631  1.00  0.00     0.001 C 
HETATM   18  C   LIG     1      25.189  22.807  23.254  1.00  0.00     0.019 C 
HETATM   19  C   LIG     1      23.657  20.773  23.230  1.00  0.00     0.125 C 
HETATM   20  C   LIG     1      22.527  21.425  22.379  1.00  0.00     0.047 C 
HETATM   21  C   LIG     1      23.167  21.954  21.082  1.00  0.00     0.009 C 
HETATM   22  O   LIG     1      28.953  26.337  23.403  1.00  0.00    -0.289 OA
ENDROOT
BRANCH  19  23
HETATM   23  C   LIG     1      23.604  19.233  23.161  1.00  0.00     0.158 C 
HETATM   24  C   LIG     1      23.929  18.317  24.312  1.00  0.00     0.094 C 
HETATM   25  O   LIG     1      23.272  18.706  22.107  1.00  0.00    -0.295 OA
ENDBRANCH  19  23
BRANCH  19  26
HETATM   26  O   LIG     1      23.513  21.158  24.582  1.00  0.00    -0.381 OA
HETATM   27  H   LIG     1      24.218  20.696  25.107  1.00  0.00     0.211 HD
ENDBRANCH  19  26
BRANCH  15  28
HETATM   28  O   LIG     1      28.456  20.007  21.838  1.00  0.00    -0.392 OA
HETATM   29  H   LIG     1      28.455  19.020  21.729  1.00  0.00     0.210 HD
ENDBRANCH  15  28
TORSDOF 3
ENDMDL
MODEL 16
REMARK VINA RESULT:      -4.3      3.218      6.054
REMARK  3 active torsions:
REMARK  status: ('A' for Active; 'I' for Inactive)
REMARK    1  A    between atoms: C_15  and  O_16 
REMARK    2  A    between atoms: C_20  and  C_21 
REMARK    3  A    between atoms: C_20  and  O_24 
ROOT
HETATM    1  C   LIG     1      23.384  19.959  20.697  1.00  0.00     0.005 C 
HETATM    2  C   LIG     1      23.158  20.699  22.052  1.00  0.00     0.035 C 
HETATM    3  C   LIG     1      22.853  19.770  23.250  1.00  0.00     0.017 C 
HETATM    4  C   LIG     1      23.109  20.475  24.576  1.00  0.00     0.012 C 
HETATM    5  C   LIG     1      22.529  19.663  25.748  1.00  0.00     0.015 C 
HETATM    6  C   LIG     1      24.600  20.732  24.618  1.00  0.00    -0.057 C 
HETATM    7  C   LIG     1      25.414  20.043  25.448  1.00  0.00     0.059 C 
HETATM    8  C   LIG     1      26.865  20.077  25.268  1.00  0.00     0.172 C 
HETATM    9  C   LIG     1      27.421  20.730  24.087  1.00  0.00     0.052 C 
HETATM   10  C   LIG     1      26.632  21.433  23.271  1.00  0.00    -0.006 C 
HETATM   11  C   LIG     1      25.166  21.746  23.605  1.00  0.00     0.037 C 
HETATM   12  C   LIG     1      25.229  23.098  24.367  1.00  0.00     0.028 C 
HETATM   13  C   LIG     1      24.204  21.883  22.303  1.00  0.00     0.147 C 
HETATM   14  F   LIG     1      23.391  22.992  22.536  1.00  0.00    -0.238 F 
HETATM   15  C   LIG     1      24.929  22.241  20.948  1.00  0.00     0.160 C 
HETATM   16  C   LIG     1      25.625  21.049  20.223  1.00  0.00     0.048 C 
HETATM   17  C   LIG     1      24.849  19.691  20.332  1.00  0.00     0.001 C 
HETATM   18  C   LIG     1      25.538  18.804  21.417  1.00  0.00     0.019 C 
HETATM   19  C   LIG     1      24.703  18.845  19.010  1.00  0.00     0.125 C 
HETATM   20  C   LIG     1      23.427  17.988  19.262  1.00  0.00     0.047 C 
HETATM   21  C   LIG     1      22.628  18.664  20.393  1.00  0.00     0.009 C 
HETATM   22  O   LIG     1      27.622  19.495  26.088  1.00  0.00    -0.289 OA
ENDROOT
BRANCH  19  23
HETATM   23  C   LIG     1      24.571  19.702  17.735  1.00  0.00     0.158 C 
HETATM   24  C   LIG     1      25.716  20.050  16.820  1.00  0.00     0.094 C 
HETATM   25  O   LIG     1      23.465  20.130  17.430  1.00  0.00    -0.295 OA
ENDBRANCH  19  23
BRANCH  19  26
HETATM   26  O   LIG     1      25.821  17.995  18.856  1.00  0.00    -0.381 OA
HETATM   27  H   LIG     1      25.823  17.355  19.616  1.00  0.00     0.211 HD
ENDBRANCH  19  26
BRANCH  15  28
HETATM   28  O   LIG     1      25.825  23.313  21.093  1.00  0.00    -0.392 OA
HETATM   29  H   LIG     1      26.324  23.170  21.940  1.00  0.00     0.210 HD
ENDBRANCH  15  28
TORSDOF 3
ENDMDL
MODEL 17
REMARK VINA RESULT:      -4.3      3.132      5.869
REMARK  3 active torsions:
REMARK  status: ('A' for Active; 'I' for Inactive)
REMARK    1  A    between atoms: C_15  and  O_16 
REMARK    2  A    between atoms: C_20  and  C_21 
REMARK    3  A    between atoms: C_20  and  O_24 
ROOT
HETATM    1  C   LIG     1      24.536  20.227  23.011  1.00  0.00     0.005 C 
HETATM    2  C   LIG     1      24.767  20.150  21.470  1.00  0.00     0.035 C 
HETATM    3  C   LIG     1      23.692  20.870  20.621  1.00  0.00     0.017 C 
HETATM    4  C   LIG     1      24.203  21.165  19.216  1.00  0.00     0.012 C 
HETATM    5  C   LIG     1      23.049  21.604  18.297  1.00  0.00     0.015 C 
HETATM    6  C   LIG     1      25.329  22.161  19.394  1.00  0.00    -0.057 C 
HETATM    7  C   LIG     1      25.193  23.455  19.030  1.00  0.00     0.059 C 
HETATM    8  C   LIG     1      26.155  24.461  19.479  1.00  0.00     0.172 C 
HETATM    9  C   LIG     1      27.173  24.087  20.455  1.00  0.00     0.052 C 
HETATM   10  C   LIG     1      27.333  22.809  20.806  1.00  0.00    -0.006 C 
HETATM   11  C   LIG     1      26.605  21.659  20.096  1.00  0.00     0.037 C 
HETATM   12  C   LIG     1      27.570  21.246  18.951  1.00  0.00     0.028 C 
HETATM   13  C   LIG     1      26.293  20.381  21.050  1.00  0.00     0.147 C 
HETATM   14  F   LIG     1      26.599  19.249  20.296  1.00  0.00    -0.238 F 
HETATM   15  C   LIG     1      27.216  20.232  22.321  1.00  0.00     0.160 C 
HETATM   16  C   LIG     1      26.845  21.140  23.533  1.00  0.00     0.048 C 
HETATM   17  C   LIG     1      25.303  21.340  23.734  1.00  0.00     0.001 C 
HETATM   18  C   LIG     1      24.901  22.742  23.178  1.00  0.00     0.019 C 
HETATM   19  C   LIG     1      24.754  21.207  25.206  1.00  0.00     0.125 C 
HETATM   20  C   LIG     1      23.261  20.809  25.006  1.00  0.00     0.047 C 
HETATM   21  C   LIG     1      23.115  20.255  23.575  1.00  0.00     0.009 C 
HETATM   22  O   LIG     1      26.067  25.651  19.076  1.00  0.00    -0.289 OA
ENDROOT
BRANCH  19  23
HETATM   23  C   LIG     1      25.509  20.169  26.060  1.00  0.00     0.158 C 
HETATM   24  C   LIG     1      25.333  18.678  25.942  1.00  0.00     0.094 C 
HETATM   25  O   LIG     1      26.313  20.570  26.892  1.00  0.00    -0.295 OA
ENDBRANCH  19  23
BRANCH  19  26
HETATM   26  O   LIG     1      24.826  22.456  25.862  1.00  0.00    -0.381 OA
HETATM   27  H   LIG     1      23.898  22.744  26.072  1.00  0.00     0.211 HD
ENDBRANCH  19  26
BRANCH  15  28
HETATM   28  O   LIG     1      28.579  20.372  22.007  1.00  0.00    -0.392 OA
HETATM   29  H   LIG     1      28.641  20.549  21.032  1.00  0.00     0.210 HD
ENDBRANCH  15  28
TORSDOF 3
ENDMDL
MODEL 18
REMARK VINA RESULT:      -4.3      4.047      5.645
REMARK  3 active torsions:
REMARK  status: ('A' for Active; 'I' for Inactive)
REMARK    1  A    between atoms: C_15  and  O_16 
REMARK    2  A    between atoms: C_20  and  C_21 
REMARK    3  A    between atoms: C_20  and  O_24 
ROOT
HETATM    1  C   LIG     1      25.128  22.816  22.296  1.00  0.00     0.005 C 
HETATM    2  C   LIG     1      24.556  22.595  23.730  1.00  0.00     0.035 C 
HETATM    3  C   LIG     1      23.784  21.268  23.919  1.00  0.00     0.017 C 
HETATM    4  C   LIG     1      23.671  20.898  25.393  1.00  0.00     0.012 C 
HETATM    5  C   LIG     1      22.662  19.754  25.593  1.00  0.00     0.015 C 
HETATM    6  C   LIG     1      25.087  20.625  25.853  1.00  0.00    -0.057 C 
HETATM    7  C   LIG     1      25.512  19.373  26.130  1.00  0.00     0.059 C 
HETATM    8  C   LIG     1      26.939  19.084  26.273  1.00  0.00     0.172 C 
HETATM    9  C   LIG     1      27.911  20.125  25.956  1.00  0.00     0.052 C 
HETATM   10  C   LIG     1      27.506  21.371  25.702  1.00  0.00    -0.006 C 
HETATM   11  C   LIG     1      26.053  21.825  25.900  1.00  0.00     0.037 C 
HETATM   12  C   LIG     1      26.008  22.333  27.367  1.00  0.00     0.028 C 
HETATM   13  C   LIG     1      25.583  23.005  24.886  1.00  0.00     0.147 C 
HETATM   14  F   LIG     1      24.860  23.914  25.658  1.00  0.00    -0.238 F 
HETATM   15  C   LIG     1      26.740  23.886  24.274  1.00  0.00     0.160 C 
HETATM   16  C   LIG     1      27.504  23.252  23.072  1.00  0.00     0.048 C 
HETATM   17  C   LIG     1      26.596  22.415  22.106  1.00  0.00     0.001 C 
HETATM   18  C   LIG     1      26.800  20.897  22.413  1.00  0.00     0.019 C 
HETATM   19  C   LIG     1      26.797  22.646  20.560  1.00  0.00     0.125 C 
HETATM   20  C   LIG     1      25.425  22.236  19.946  1.00  0.00     0.047 C 
HETATM   21  C   LIG     1      24.379  22.272  21.077  1.00  0.00     0.009 C 
HETATM   22  O   LIG     1      27.325  17.933  26.605  1.00  0.00    -0.289 OA
ENDROOT
BRANCH  19  23
HETATM   23  C   LIG     1      27.174  24.095  20.192  1.00  0.00     0.158 C 
HETATM   24  C   LIG     1      26.189  25.146  19.749  1.00  0.00     0.094 C 
HETATM   25  O   LIG     1      28.349  24.431  20.263  1.00  0.00    -0.295 OA
ENDBRANCH  19  23
BRANCH  19  26
HETATM   26  O   LIG     1      27.808  21.790  20.071  1.00  0.00    -0.381 OA
HETATM   27  H   LIG     1      28.059  21.166  20.803  1.00  0.00     0.211 HD
ENDBRANCH  19  26
BRANCH  15  28
HETATM   28  O   LIG     1      27.649  24.322  25.253  1.00  0.00    -0.392 OA
HETATM   29  H   LIG     1      28.561  24.099  24.930  1.00  0.00     0.210 HD
ENDBRANCH  15  28
TORSDOF 3
ENDMDL
MODEL 19
REMARK VINA RESULT:      -4.3      5.681      7.911
REMARK  3 active torsions:
REMARK  status: ('A' for Active; 'I' for Inactive)
REMARK    1  A    between atoms: C_15  and  O_16 
REMARK    2  A    between atoms: C_20  and  C_21 
REMARK    3  A    between atoms: C_20  and  O_24 
ROOT
HETATM    1  C   LIG     1      24.639  22.196  24.965  1.00  0.00     0.005 C 
HETATM    2  C   LIG     1      25.052  22.575  26.421  1.00  0.00     0.035 C 
HETATM    3  C   LIG     1      25.042  21.396  27.421  1.00  0.00     0.017 C 
HETATM    4  C   LIG     1      25.881  21.709  28.654  1.00  0.00     0.012 C 
HETATM    5  C   LIG     1      25.630  20.673  29.764  1.00  0.00     0.015 C 
HETATM    6  C   LIG     1      27.307  21.822  28.159  1.00  0.00    -0.057 C 
HETATM    7  C   LIG     1      28.230  20.877  28.438  1.00  0.00     0.059 C 
HETATM    8  C   LIG     1      29.500  20.836  27.713  1.00  0.00     0.172 C 
HETATM    9  C   LIG     1      29.697  21.725  26.573  1.00  0.00     0.052 C 
HETATM   10  C   LIG     1      28.803  22.678  26.298  1.00  0.00    -0.006 C 
HETATM   11  C   LIG     1      27.637  23.014  27.239  1.00  0.00     0.037 C 
HETATM   12  C   LIG     1      28.208  24.112  28.177  1.00  0.00     0.028 C 
HETATM   13  C   LIG     1      26.309  23.563  26.480  1.00  0.00     0.147 C 
HETATM   14  F   LIG     1      25.845  24.637  27.238  1.00  0.00    -0.238 F 
HETATM   15  C   LIG     1      26.546  24.199  25.055  1.00  0.00     0.160 C 
HETATM   16  C   LIG     1      26.712  23.183  23.884  1.00  0.00     0.048 C 
HETATM   17  C   LIG     1      25.801  21.912  24.006  1.00  0.00     0.001 C 
HETATM   18  C   LIG     1      26.668  20.720  24.523  1.00  0.00     0.019 C 
HETATM   19  C   LIG     1      25.042  21.453  22.704  1.00  0.00     0.125 C 
HETATM   20  C   LIG     1      23.813  20.668  23.254  1.00  0.00     0.047 C 
HETATM   21  C   LIG     1      23.609  21.091  24.722  1.00  0.00     0.009 C 
HETATM   22  O   LIG     1      30.387  20.001  28.029  1.00  0.00    -0.289 OA
ENDROOT
BRANCH  19  23
HETATM   23  C   LIG     1      24.610  22.618  21.792  1.00  0.00     0.158 C 
HETATM   24  C   LIG     1      23.229  23.221  21.776  1.00  0.00     0.094 C 
HETATM   25  O   LIG     1      25.435  23.099  21.027  1.00  0.00    -0.295 OA
ENDBRANCH  19  23
BRANCH  19  26
HETATM   26  O   LIG     1      25.859  20.582  21.950  1.00  0.00    -0.381 OA
HETATM   27  H   LIG     1      25.903  19.713  22.430  1.00  0.00     0.211 HD
ENDBRANCH  19  26
BRANCH  15  28
HETATM   28  O   LIG     1      27.608  25.119  25.055  1.00  0.00    -0.392 OA
HETATM   29  H   LIG     1      28.417  24.638  25.373  1.00  0.00     0.210 HD
ENDBRANCH  15  28
TORSDOF 3
ENDMDL
MODEL 20
REMARK VINA RESULT:      -4.2      3.839      6.655
REMARK  3 active torsions:
REMARK  status: ('A' for Active; 'I' for Inactive)
REMARK    1  A    between atoms: C_15  and  O_16 
REMARK    2  A    between atoms: C_20  and  C_21 
REMARK    3  A    between atoms: C_20  and  O_24 
ROOT
HETATM    1  C   LIG     1      25.962  22.090  21.365  1.00  0.00     0.005 C 
HETATM    2  C   LIG     1      27.285  22.617  22.001  1.00  0.00     0.035 C 
HETATM    3  C   LIG     1      27.364  24.156  22.141  1.00  0.00     0.017 C 
HETATM    4  C   LIG     1      28.418  24.565  23.163  1.00  0.00     0.012 C 
HETATM    5  C   LIG     1      28.699  26.076  23.083  1.00  0.00     0.015 C 
HETATM    6  C   LIG     1      27.914  24.051  24.495  1.00  0.00    -0.057 C 
HETATM    7  C   LIG     1      27.448  24.889  25.446  1.00  0.00     0.059 C 
HETATM    8  C   LIG     1      26.690  24.375  26.587  1.00  0.00     0.172 C 
HETATM    9  C   LIG     1      26.302  22.969  26.609  1.00  0.00     0.052 C 
HETATM   10  C   LIG     1      26.774  22.125  25.688  1.00  0.00    -0.006 C 
HETATM   11  C   LIG     1      27.865  22.522  24.684  1.00  0.00     0.037 C 
HETATM   12  C   LIG     1      29.194  22.153  25.399  1.00  0.00     0.028 C 
HETATM   13  C   LIG     1      27.767  21.752  23.257  1.00  0.00     0.147 C 
HETATM   14  F   LIG     1      29.071  21.388  22.921  1.00  0.00    -0.238 F 
HETATM   15  C   LIG     1      26.998  20.374  23.273  1.00  0.00     0.160 C 
HETATM   16  C   LIG     1      25.442  20.472  23.249  1.00  0.00     0.048 C 
HETATM   17  C   LIG     1      24.888  21.641  22.362  1.00  0.00     0.001 C 
HETATM   18  C   LIG     1      24.466  22.822  23.293  1.00  0.00     0.019 C 
HETATM   19  C   LIG     1      23.682  21.299  21.407  1.00  0.00     0.125 C 
HETATM   20  C   LIG     1      23.798  22.363  20.275  1.00  0.00     0.047 C 
HETATM   21  C   LIG     1      25.235  22.919  20.304  1.00  0.00     0.009 C 
HETATM   22  O   LIG     1      26.323  25.151  27.509  1.00  0.00    -0.289 OA
ENDROOT
BRANCH  19  23
HETATM   23  C   LIG     1      23.720  19.864  20.844  1.00  0.00     0.158 C 
HETATM   24  C   LIG     1      22.928  18.710  21.400  1.00  0.00     0.094 C 
HETATM   25  O   LIG     1      24.435  19.634  19.877  1.00  0.00    -0.295 OA
ENDBRANCH  19  23
BRANCH  19  26
HETATM   26  O   LIG     1      22.459  21.471  22.093  1.00  0.00    -0.381 OA
HETATM   27  H   LIG     1      22.486  20.906  22.910  1.00  0.00     0.211 HD
ENDBRANCH  19  26
BRANCH  15  28
HETATM   28  O   LIG     1      27.417  19.544  24.326  1.00  0.00    -0.392 OA
HETATM   29  H   LIG     1      28.231  19.065  24.020  1.00  0.00     0.210 HD
ENDBRANCH  15  28
TORSDOF 3
ENDMDL
