REMARK  5 active torsions:
REMARK  status: ('A' for Active; 'I' for Inactive)
REMARK    1  A    between atoms: C_2  and  C_3 
REMARK    2  A    between atoms: C_3  and  C_4 
REMARK    3  A    between atoms: C_4  and  C_5 
REMARK    4  A    between atoms: C_5  and  C_6 
REMARK    5  A    between atoms: C_6  and  C_7 
ROOT
HETATM    1  C   LIG     1      -0.062  -1.077  -0.132  1.00  0.00     0.000 C 
ENDROOT
BRANCH   1   2
HETATM    2  C   LIG     1      -1.013   0.124  -0.247  1.00  0.00    -0.000 C 
BRANCH   2   3
HETATM    3  C   LIG     1      -2.476  -0.325  -0.154  1.00  0.00    -0.005 C 
HETATM    4  C   LIG     1      -3.425   0.865  -0.257  1.00  0.00     0.005 C 
ENDBRANCH   2   3
ENDBRANCH   1   2
BRANCH   1   5
HETATM    5  C   LIG     1       1.409  -0.690  -0.352  1.00  0.00     0.001 C 
BRANCH   5   6
HETATM    6  C   LIG     1       1.986   0.130   0.815  1.00  0.00     0.010 C 
BRANCH   6   7
HETATM    7  C   LIG     1       3.488   0.371   0.658  1.00  0.00     0.079 C 
HETATM    8  I   LIG     1       3.914   1.761  -0.916  1.00  0.00    -0.090 I 
ENDBRANCH   6   7
ENDBRANCH   5   6
ENDBRANCH   1   5
TORSDOF 5
