MODEL 1
REMARK VINA RESULT:      -5.1      0.000      0.000
REMARK  5 active torsions:
REMARK  status: ('A' for Active; 'I' for Inactive)
REMARK    1  A    between atoms: C_2  and  C_3 
REMARK    2  A    between atoms: C_3  and  C_4 
REMARK    3  A    between atoms: C_4  and  C_5 
REMARK    4  A    between atoms: C_5  and  C_6 
REMARK    5  A    between atoms: C_6  and  C_7 
ROOT
HETATM    1  C   LIG     1      17.236  38.005  25.407  1.00  0.00     0.000 C 
ENDROOT
BRANCH   1   2
HETATM    2  C   LIG     1      18.513  37.188  25.654  1.00  0.00    -0.000 C 
BRANCH   2   3
HETATM    3  C   LIG     1      18.280  36.121  26.731  1.00  0.00    -0.005 C 
HETATM    4  C   LIG     1      17.841  34.798  26.110  1.00  0.00     0.005 C 
ENDBRANCH   2   3
ENDBRANCH   1   2
BRANCH   1   5
HETATM    5  C   LIG     1      16.650  37.777  24.005  1.00  0.00     0.001 C 
BRANCH   5   6
HETATM    6  C   LIG     1      17.590  38.256  22.885  1.00  0.00     0.010 C 
BRANCH   6   7
HETATM    7  C   LIG     1      17.422  37.435  21.606  1.00  0.00     0.079 C 
HETATM    8  I   LIG     1      16.729  35.449  22.017  1.00  0.00    -0.090 I 
ENDBRANCH   6   7
ENDBRANCH   5   6
ENDBRANCH   1   5
TORSDOF 5
ENDMDL
MODEL 2
REMARK VINA RESULT:      -5.0      1.847      1.931
REMARK  5 active torsions:
REMARK  status: ('A' for Active; 'I' for Inactive)
REMARK    1  A    between atoms: C_2  and  C_3 
REMARK    2  A    between atoms: C_3  and  C_4 
REMARK    3  A    between atoms: C_4  and  C_5 
REMARK    4  A    between atoms: C_5  and  C_6 
REMARK    5  A    between atoms: C_6  and  C_7 
ROOT
HETATM    1  C   LIG     1      18.033  37.871  24.561  1.00  0.00     0.000 C 
ENDROOT
BRANCH   1   2
HETATM    2  C   LIG     1      17.618  37.496  25.992  1.00  0.00    -0.000 C 
BRANCH   2   3
HETATM    3  C   LIG     1      18.486  36.353  26.532  1.00  0.00    -0.005 C 
HETATM    4  C   LIG     1      17.947  34.996  26.092  1.00  0.00     0.005 C 
ENDBRANCH   2   3
ENDBRANCH   1   2
BRANCH   1   5
HETATM    5  C   LIG     1      16.851  37.855  23.579  1.00  0.00     0.001 C 
BRANCH   5   6
HETATM    6  C   LIG     1      17.078  38.772  22.365  1.00  0.00     0.010 C 
BRANCH   6   7
HETATM    7  C   LIG     1      18.555  39.120  22.179  1.00  0.00     0.079 C 
HETATM    8  I   LIG     1      19.164  38.956  20.131  1.00  0.00    -0.090 I 
ENDBRANCH   6   7
ENDBRANCH   5   6
ENDBRANCH   1   5
TORSDOF 5
ENDMDL
MODEL 3
REMARK VINA RESULT:      -4.8      2.477      4.893
REMARK  5 active torsions:
REMARK  status: ('A' for Active; 'I' for Inactive)
REMARK    1  A    between atoms: C_2  and  C_3 
REMARK    2  A    between atoms: C_3  and  C_4 
REMARK    3  A    between atoms: C_4  and  C_5 
REMARK    4  A    between atoms: C_5  and  C_6 
REMARK    5  A    between atoms: C_6  and  C_7 
ROOT
HETATM    1  C   LIG     1      18.657  38.930  21.868  1.00  0.00     0.000 C 
ENDROOT
BRANCH   1   2
HETATM    2  C   LIG     1      18.800  39.429  20.422  1.00  0.00    -0.000 C 
BRANCH   2   3
HETATM    3  C   LIG     1      19.737  38.519  19.619  1.00  0.00    -0.005 C 
HETATM    4  C   LIG     1      19.174  37.105  19.512  1.00  0.00     0.005 C 
ENDBRANCH   2   3
ENDBRANCH   1   2
BRANCH   1   5
HETATM    5  C   LIG     1      17.191  38.741  22.286  1.00  0.00     0.001 C 
BRANCH   5   6
HETATM    6  C   LIG     1      17.026  37.706  23.413  1.00  0.00     0.010 C 
BRANCH   6   7
HETATM    7  C   LIG     1      17.675  38.171  24.717  1.00  0.00     0.079 C 
HETATM    8  I   LIG     1      18.072  36.533  26.040  1.00  0.00    -0.090 I 
ENDBRANCH   6   7
ENDBRANCH   5   6
ENDBRANCH   1   5
TORSDOF 5
ENDMDL
MODEL 4
REMARK VINA RESULT:      -4.7      2.770      4.499
REMARK  5 active torsions:
REMARK  status: ('A' for Active; 'I' for Inactive)
REMARK    1  A    between atoms: C_2  and  C_3 
REMARK    2  A    between atoms: C_3  and  C_4 
REMARK    3  A    between atoms: C_4  and  C_5 
REMARK    4  A    between atoms: C_5  and  C_6 
REMARK    5  A    between atoms: C_6  and  C_7 
ROOT
HETATM    1  C   LIG     1      18.300  38.610  21.878  1.00  0.00     0.000 C 
ENDROOT
BRANCH   1   2
HETATM    2  C   LIG     1      18.756  39.439  20.668  1.00  0.00    -0.000 C 
BRANCH   2   3
HETATM    3  C   LIG     1      19.698  38.627  19.771  1.00  0.00    -0.005 C 
HETATM    4  C   LIG     1      19.160  37.218  19.540  1.00  0.00     0.005 C 
ENDBRANCH   2   3
ENDBRANCH   1   2
BRANCH   1   5
HETATM    5  C   LIG     1      16.901  39.007  22.374  1.00  0.00     0.001 C 
BRANCH   5   6
HETATM    6  C   LIG     1      16.074  37.797  22.843  1.00  0.00     0.010 C 
BRANCH   6   7
HETATM    7  C   LIG     1      16.832  36.481  22.663  1.00  0.00     0.079 C 
HETATM    8  I   LIG     1      15.969  35.267  21.123  1.00  0.00    -0.090 I 
ENDBRANCH   6   7
ENDBRANCH   5   6
ENDBRANCH   1   5
TORSDOF 5
ENDMDL
MODEL 5
REMARK VINA RESULT:      -4.6      1.958      2.204
REMARK  5 active torsions:
REMARK  status: ('A' for Active; 'I' for Inactive)
REMARK    1  A    between atoms: C_2  and  C_3 
REMARK    2  A    between atoms: C_3  and  C_4 
REMARK    3  A    between atoms: C_4  and  C_5 
REMARK    4  A    between atoms: C_5  and  C_6 
REMARK    5  A    between atoms: C_6  and  C_7 
ROOT
HETATM    1  C   LIG     1      16.889  35.503  24.282  1.00  0.00     0.000 C 
ENDROOT
BRANCH   1   2
HETATM    2  C   LIG     1      17.571  36.747  24.873  1.00  0.00    -0.000 C 
BRANCH   2   3
HETATM    3  C   LIG     1      18.363  36.389  26.136  1.00  0.00    -0.005 C 
HETATM    4  C   LIG     1      18.361  34.882  26.379  1.00  0.00     0.005 C 
ENDBRANCH   2   3
ENDBRANCH   1   2
BRANCH   1   5
HETATM    5  C   LIG     1      17.193  35.317  22.787  1.00  0.00     0.001 C 
BRANCH   5   6
HETATM    6  C   LIG     1      16.647  36.467  21.924  1.00  0.00     0.010 C 
BRANCH   6   7
HETATM    7  C   LIG     1      17.710  37.026  20.976  1.00  0.00     0.079 C 
HETATM    8  I   LIG     1      18.415  38.947  21.611  1.00  0.00    -0.090 I 
ENDBRANCH   6   7
ENDBRANCH   5   6
ENDBRANCH   1   5
TORSDOF 5
ENDMDL
MODEL 6
REMARK VINA RESULT:      -4.5      2.603      5.016
REMARK  5 active torsions:
REMARK  status: ('A' for Active; 'I' for Inactive)
REMARK    1  A    between atoms: C_2  and  C_3 
REMARK    2  A    between atoms: C_3  and  C_4 
REMARK    3  A    between atoms: C_4  and  C_5 
REMARK    4  A    between atoms: C_5  and  C_6 
REMARK    5  A    between atoms: C_6  and  C_7 
ROOT
HETATM    1  C   LIG     1      17.537  37.166  21.613  1.00  0.00     0.000 C 
ENDROOT
BRANCH   1   2
HETATM    2  C   LIG     1      18.442  37.409  20.396  1.00  0.00    -0.000 C 
BRANCH   2   3
HETATM    3  C   LIG     1      19.151  38.764  20.502  1.00  0.00    -0.005 C 
HETATM    4  C   LIG     1      20.261  38.888  19.463  1.00  0.00     0.005 C 
ENDBRANCH   2   3
ENDBRANCH   1   2
BRANCH   1   5
HETATM    5  C   LIG     1      17.052  35.711  21.708  1.00  0.00     0.001 C 
BRANCH   5   6
HETATM    6  C   LIG     1      16.999  35.198  23.158  1.00  0.00     0.010 C 
BRANCH   6   7
HETATM    7  C   LIG     1      17.247  36.316  24.170  1.00  0.00     0.079 C 
HETATM    8  I   LIG     1      17.912  35.552  26.059  1.00  0.00    -0.090 I 
ENDBRANCH   6   7
ENDBRANCH   5   6
ENDBRANCH   1   5
TORSDOF 5
ENDMDL
MODEL 7
REMARK VINA RESULT:      -4.5      1.485      2.068
REMARK  5 active torsions:
REMARK  status: ('A' for Active; 'I' for Inactive)
REMARK    1  A    between atoms: C_2  and  C_3 
REMARK    2  A    between atoms: C_3  and  C_4 
REMARK    3  A    between atoms: C_4  and  C_5 
REMARK    4  A    between atoms: C_5  and  C_6 
REMARK    5  A    between atoms: C_6  and  C_7 
ROOT
HETATM    1  C   LIG     1      17.153  35.133  24.075  1.00  0.00     0.000 C 
ENDROOT
BRANCH   1   2
HETATM    2  C   LIG     1      17.041  34.851  25.581  1.00  0.00    -0.000 C 
BRANCH   2   3
HETATM    3  C   LIG     1      18.411  34.962  26.261  1.00  0.00    -0.005 C 
HETATM    4  C   LIG     1      18.624  36.355  26.846  1.00  0.00     0.005 C 
ENDBRANCH   2   3
ENDBRANCH   1   2
BRANCH   1   5
HETATM    5  C   LIG     1      17.050  36.630  23.744  1.00  0.00     0.001 C 
BRANCH   5   6
HETATM    6  C   LIG     1      16.583  36.887  22.301  1.00  0.00     0.010 C 
BRANCH   6   7
HETATM    7  C   LIG     1      17.166  35.868  21.320  1.00  0.00     0.079 C 
HETATM    8  I   LIG     1      15.673  34.511  20.597  1.00  0.00    -0.090 I 
ENDBRANCH   6   7
ENDBRANCH   5   6
ENDBRANCH   1   5
TORSDOF 5
ENDMDL
MODEL 8
REMARK VINA RESULT:      -4.4      2.160      4.170
REMARK  5 active torsions:
REMARK  status: ('A' for Active; 'I' for Inactive)
REMARK    1  A    between atoms: C_2  and  C_3 
REMARK    2  A    between atoms: C_3  and  C_4 
REMARK    3  A    between atoms: C_4  and  C_5 
REMARK    4  A    between atoms: C_5  and  C_6 
REMARK    5  A    between atoms: C_6  and  C_7 
ROOT
HETATM    1  C   LIG     1      17.235  37.369  22.055  1.00  0.00     0.000 C 
ENDROOT
BRANCH   1   2
HETATM    2  C   LIG     1      15.853  36.700  22.104  1.00  0.00    -0.000 C 
BRANCH   2   3
HETATM    3  C   LIG     1      15.944  35.226  21.692  1.00  0.00    -0.005 C 
HETATM    4  C   LIG     1      15.858  35.071  20.176  1.00  0.00     0.005 C 
ENDBRANCH   2   3
ENDBRANCH   1   2
BRANCH   1   5
HETATM    5  C   LIG     1      17.475  38.318  23.240  1.00  0.00     0.001 C 
BRANCH   5   6
HETATM    6  C   LIG     1      16.790  37.838  24.530  1.00  0.00     0.010 C 
BRANCH   6   7
HETATM    7  C   LIG     1      17.802  37.369  25.577  1.00  0.00     0.079 C 
HETATM    8  I   LIG     1      17.756  35.243  25.837  1.00  0.00    -0.090 I 
ENDBRANCH   6   7
ENDBRANCH   5   6
ENDBRANCH   1   5
TORSDOF 5
ENDMDL
MODEL 9
REMARK VINA RESULT:      -4.3      3.188      4.845
REMARK  5 active torsions:
REMARK  status: ('A' for Active; 'I' for Inactive)
REMARK    1  A    between atoms: C_2  and  C_3 
REMARK    2  A    between atoms: C_3  and  C_4 
REMARK    3  A    between atoms: C_4  and  C_5 
REMARK    4  A    between atoms: C_5  and  C_6 
REMARK    5  A    between atoms: C_6  and  C_7 
ROOT
HETATM    1  C   LIG     1      16.713  35.139  22.075  1.00  0.00     0.000 C 
ENDROOT
BRANCH   1   2
HETATM    2  C   LIG     1      15.400  34.624  21.465  1.00  0.00    -0.000 C 
BRANCH   2   3
HETATM    3  C   LIG     1      15.615  34.149  20.023  1.00  0.00    -0.005 C 
HETATM    4  C   LIG     1      15.497  32.632  19.919  1.00  0.00     0.005 C 
ENDBRANCH   2   3
ENDBRANCH   1   2
BRANCH   1   5
HETATM    5  C   LIG     1      17.377  36.226  21.215  1.00  0.00     0.001 C 
BRANCH   5   6
HETATM    6  C   LIG     1      17.345  37.611  21.883  1.00  0.00     0.010 C 
BRANCH   6   7
HETATM    7  C   LIG     1      16.396  37.647  23.082  1.00  0.00     0.079 C 
HETATM    8  I   LIG     1      17.458  37.769  24.938  1.00  0.00    -0.090 I 
ENDBRANCH   6   7
ENDBRANCH   5   6
ENDBRANCH   1   5
TORSDOF 5
ENDMDL
MODEL 10
REMARK VINA RESULT:      -4.2      1.752      2.016
REMARK  5 active torsions:
REMARK  status: ('A' for Active; 'I' for Inactive)
REMARK    1  A    between atoms: C_2  and  C_3 
REMARK    2  A    between atoms: C_3  and  C_4 
REMARK    3  A    between atoms: C_4  and  C_5 
REMARK    4  A    between atoms: C_5  and  C_6 
REMARK    5  A    between atoms: C_6  and  C_7 
ROOT
HETATM    1  C   LIG     1      17.008  36.277  24.242  1.00  0.00     0.000 C 
ENDROOT
BRANCH   1   2
HETATM    2  C   LIG     1      17.609  37.323  25.193  1.00  0.00    -0.000 C 
BRANCH   2   3
HETATM    3  C   LIG     1      18.457  36.652  26.280  1.00  0.00    -0.005 C 
HETATM    4  C   LIG     1      18.227  35.144  26.305  1.00  0.00     0.005 C 
ENDBRANCH   2   3
ENDBRANCH   1   2
BRANCH   1   5
HETATM    5  C   LIG     1      16.964  36.760  22.784  1.00  0.00     0.001 C 
BRANCH   5   6
HETATM    6  C   LIG     1      17.073  35.603  21.775  1.00  0.00     0.010 C 
BRANCH   6   7
HETATM    7  C   LIG     1      15.876  35.558  20.824  1.00  0.00     0.079 C 
HETATM    8  I   LIG     1      15.415  33.555  20.216  1.00  0.00    -0.090 I 
ENDBRANCH   6   7
ENDBRANCH   5   6
ENDBRANCH   1   5
TORSDOF 5
ENDMDL
MODEL 11
REMARK VINA RESULT:      -4.1      9.049     11.227
REMARK  5 active torsions:
REMARK  status: ('A' for Active; 'I' for Inactive)
REMARK    1  A    between atoms: C_2  and  C_3 
REMARK    2  A    between atoms: C_3  and  C_4 
REMARK    3  A    between atoms: C_4  and  C_5 
REMARK    4  A    between atoms: C_5  and  C_6 
REMARK    5  A    between atoms: C_6  and  C_7 
ROOT
HETATM    1  C   LIG     1      13.009  30.506  15.421  1.00  0.00     0.000 C 
ENDROOT
BRANCH   1   2
HETATM    2  C   LIG     1      13.815  29.527  14.553  1.00  0.00    -0.000 C 
BRANCH   2   3
HETATM    3  C   LIG     1      15.293  29.931  14.501  1.00  0.00    -0.005 C 
HETATM    4  C   LIG     1      15.523  31.047  13.487  1.00  0.00     0.005 C 
ENDBRANCH   2   3
ENDBRANCH   1   2
BRANCH   1   5
HETATM    5  C   LIG     1      13.749  30.902  16.708  1.00  0.00     0.001 C 
BRANCH   5   6
HETATM    6  C   LIG     1      13.777  32.424  16.930  1.00  0.00     0.010 C 
BRANCH   6   7
HETATM    7  C   LIG     1      15.044  32.874  17.658  1.00  0.00     0.079 C 
HETATM    8  I   LIG     1      15.197  32.002  19.610  1.00  0.00    -0.090 I 
ENDBRANCH   6   7
ENDBRANCH   5   6
ENDBRANCH   1   5
TORSDOF 5
ENDMDL
MODEL 12
REMARK VINA RESULT:      -4.0      9.758     11.757
REMARK  5 active torsions:
REMARK  status: ('A' for Active; 'I' for Inactive)
REMARK    1  A    between atoms: C_2  and  C_3 
REMARK    2  A    between atoms: C_3  and  C_4 
REMARK    3  A    between atoms: C_4  and  C_5 
REMARK    4  A    between atoms: C_5  and  C_6 
REMARK    5  A    between atoms: C_6  and  C_7 
ROOT
HETATM    1  C   LIG     1      13.045  30.424  15.555  1.00  0.00     0.000 C 
ENDROOT
BRANCH   1   2
HETATM    2  C   LIG     1      13.336  29.485  14.374  1.00  0.00    -0.000 C 
BRANCH   2   3
HETATM    3  C   LIG     1      14.843  29.391  14.108  1.00  0.00    -0.005 C 
HETATM    4  C   LIG     1      15.241  27.979  13.689  1.00  0.00     0.005 C 
ENDBRANCH   2   3
ENDBRANCH   1   2
BRANCH   1   5
HETATM    5  C   LIG     1      14.321  31.045  16.145  1.00  0.00     0.001 C 
BRANCH   5   6
HETATM    6  C   LIG     1      14.054  32.384  16.854  1.00  0.00     0.010 C 
BRANCH   6   7
HETATM    7  C   LIG     1      15.187  33.386  16.632  1.00  0.00     0.079 C 
HETATM    8  I   LIG     1      16.596  32.689  15.175  1.00  0.00    -0.090 I 
ENDBRANCH   6   7
ENDBRANCH   5   6
ENDBRANCH   1   5
TORSDOF 5
ENDMDL
MODEL 13
REMARK VINA RESULT:      -3.9      6.970      9.072
REMARK  5 active torsions:
REMARK  status: ('A' for Active; 'I' for Inactive)
REMARK    1  A    between atoms: C_2  and  C_3 
REMARK    2  A    between atoms: C_3  and  C_4 
REMARK    3  A    between atoms: C_4  and  C_5 
REMARK    4  A    between atoms: C_5  and  C_6 
REMARK    5  A    between atoms: C_6  and  C_7 
ROOT
HETATM    1  C   LIG     1      15.034  32.837  17.505  1.00  0.00     0.000 C 
ENDROOT
BRANCH   1   2
HETATM    2  C   LIG     1      14.771  31.963  16.270  1.00  0.00    -0.000 C 
BRANCH   2   3
HETATM    3  C   LIG     1      13.571  31.037  16.499  1.00  0.00    -0.005 C 
HETATM    4  C   LIG     1      13.231  30.253  15.235  1.00  0.00     0.005 C 
ENDBRANCH   2   3
ENDBRANCH   1   2
BRANCH   1   5
HETATM    5  C   LIG     1      14.859  32.066  18.823  1.00  0.00     0.001 C 
BRANCH   5   6
HETATM    6  C   LIG     1      15.547  32.761  20.011  1.00  0.00     0.010 C 
BRANCH   6   7
HETATM    7  C   LIG     1      15.497  34.285  19.890  1.00  0.00     0.079 C 
HETATM    8  I   LIG     1      16.465  35.249  21.541  1.00  0.00    -0.090 I 
ENDBRANCH   6   7
ENDBRANCH   5   6
ENDBRANCH   1   5
TORSDOF 5
ENDMDL
MODEL 14
REMARK VINA RESULT:      -3.9      2.644      3.683
REMARK  5 active torsions:
REMARK  status: ('A' for Active; 'I' for Inactive)
REMARK    1  A    between atoms: C_2  and  C_3 
REMARK    2  A    between atoms: C_3  and  C_4 
REMARK    3  A    between atoms: C_4  and  C_5 
REMARK    4  A    between atoms: C_5  and  C_6 
REMARK    5  A    between atoms: C_6  and  C_7 
ROOT
HETATM    1  C   LIG     1      15.834  36.838  22.253  1.00  0.00     0.000 C 
ENDROOT
BRANCH   1   2
HETATM    2  C   LIG     1      16.639  37.926  22.979  1.00  0.00    -0.000 C 
BRANCH   2   3
HETATM    3  C   LIG     1      16.758  37.614  24.475  1.00  0.00    -0.005 C 
HETATM    4  C   LIG     1      18.195  37.777  24.960  1.00  0.00     0.005 C 
ENDBRANCH   2   3
ENDBRANCH   1   2
BRANCH   1   5
HETATM    5  C   LIG     1      16.639  35.546  22.045  1.00  0.00     0.001 C 
BRANCH   5   6
HETATM    6  C   LIG     1      16.275  34.827  20.734  1.00  0.00     0.010 C 
BRANCH   6   7
HETATM    7  C   LIG     1      15.072  33.898  20.905  1.00  0.00     0.079 C 
HETATM    8  I   LIG     1      15.223  32.158  19.665  1.00  0.00    -0.090 I 
ENDBRANCH   6   7
ENDBRANCH   5   6
ENDBRANCH   1   5
TORSDOF 5
ENDMDL
MODEL 15
REMARK VINA RESULT:      -3.7     11.157     11.802
REMARK  5 active torsions:
REMARK  status: ('A' for Active; 'I' for Inactive)
REMARK    1  A    between atoms: C_2  and  C_3 
REMARK    2  A    between atoms: C_3  and  C_4 
REMARK    3  A    between atoms: C_4  and  C_5 
REMARK    4  A    between atoms: C_5  and  C_6 
REMARK    5  A    between atoms: C_6  and  C_7 
ROOT
HETATM    1  C   LIG     1      15.473  31.560  14.774  1.00  0.00     0.000 C 
ENDROOT
BRANCH   1   2
HETATM    2  C   LIG     1      14.787  30.232  14.420  1.00  0.00    -0.000 C 
BRANCH   2   3
HETATM    3  C   LIG     1      13.398  30.144  15.064  1.00  0.00    -0.005 C 
HETATM    4  C   LIG     1      13.354  30.906  16.385  1.00  0.00     0.005 C 
ENDBRANCH   2   3
ENDBRANCH   1   2
BRANCH   1   5
HETATM    5  C   LIG     1      16.207  32.184  13.577  1.00  0.00     0.001 C 
BRANCH   5   6
HETATM    6  C   LIG     1      17.360  33.107  14.006  1.00  0.00     0.010 C 
BRANCH   6   7
HETATM    7  C   LIG     1      17.710  34.128  12.922  1.00  0.00     0.079 C 
HETATM    8  I   LIG     1      19.632  33.748  12.056  1.00  0.00    -0.090 I 
ENDBRANCH   6   7
ENDBRANCH   5   6
ENDBRANCH   1   5
TORSDOF 5
ENDMDL
MODEL 16
REMARK VINA RESULT:      -3.7     10.622     12.647
REMARK  5 active torsions:
REMARK  status: ('A' for Active; 'I' for Inactive)
REMARK    1  A    between atoms: C_2  and  C_3 
REMARK    2  A    between atoms: C_3  and  C_4 
REMARK    3  A    between atoms: C_4  and  C_5 
REMARK    4  A    between atoms: C_5  and  C_6 
REMARK    5  A    between atoms: C_6  and  C_7 
ROOT
HETATM    1  C   LIG     1      14.149  29.607  14.352  1.00  0.00     0.000 C 
ENDROOT
BRANCH   1   2
HETATM    2  C   LIG     1      15.348  29.074  13.552  1.00  0.00    -0.000 C 
BRANCH   2   3
HETATM    3  C   LIG     1      15.333  27.542  13.499  1.00  0.00    -0.005 C 
HETATM    4  C   LIG     1      15.870  27.032  12.165  1.00  0.00     0.005 C 
ENDBRANCH   2   3
ENDBRANCH   1   2
BRANCH   1   5
HETATM    5  C   LIG     1      14.494  30.861  15.170  1.00  0.00     0.001 C 
BRANCH   5   6
HETATM    6  C   LIG     1      15.758  31.573  14.657  1.00  0.00     0.010 C 
BRANCH   6   7
HETATM    7  C   LIG     1      16.150  32.755  15.545  1.00  0.00     0.079 C 
HETATM    8  I   LIG     1      14.886  32.913  17.268  1.00  0.00    -0.090 I 
ENDBRANCH   6   7
ENDBRANCH   5   6
ENDBRANCH   1   5
TORSDOF 5
ENDMDL
MODEL 17
REMARK VINA RESULT:      -3.7      9.435     10.967
REMARK  5 active torsions:
REMARK  status: ('A' for Active; 'I' for Inactive)
REMARK    1  A    between atoms: C_2  and  C_3 
REMARK    2  A    between atoms: C_3  and  C_4 
REMARK    3  A    between atoms: C_4  and  C_5 
REMARK    4  A    between atoms: C_5  and  C_6 
REMARK    5  A    between atoms: C_6  and  C_7 
ROOT
HETATM    1  C   LIG     1      14.189  31.041  16.470  1.00  0.00     0.000 C 
ENDROOT
BRANCH   1   2
HETATM    2  C   LIG     1      13.837  32.086  17.540  1.00  0.00    -0.000 C 
BRANCH   2   3
HETATM    3  C   LIG     1      15.028  32.337  18.473  1.00  0.00    -0.005 C 
HETATM    4  C   LIG     1      14.912  31.509  19.749  1.00  0.00     0.005 C 
ENDBRANCH   2   3
ENDBRANCH   1   2
BRANCH   1   5
HETATM    5  C   LIG     1      12.981  30.650  15.605  1.00  0.00     0.001 C 
BRANCH   5   6
HETATM    6  C   LIG     1      13.319  29.557  14.576  1.00  0.00     0.010 C 
BRANCH   6   7
HETATM    7  C   LIG     1      14.789  29.599  14.159  1.00  0.00     0.079 C 
HETATM    8  I   LIG     1      15.448  27.721  13.364  1.00  0.00    -0.090 I 
ENDBRANCH   6   7
ENDBRANCH   5   6
ENDBRANCH   1   5
TORSDOF 5
ENDMDL
MODEL 18
REMARK VINA RESULT:      -3.5     11.135     13.077
REMARK  5 active torsions:
REMARK  status: ('A' for Active; 'I' for Inactive)
REMARK    1  A    between atoms: C_2  and  C_3 
REMARK    2  A    between atoms: C_3  and  C_4 
REMARK    3  A    between atoms: C_4  and  C_5 
REMARK    4  A    between atoms: C_5  and  C_6 
REMARK    5  A    between atoms: C_6  and  C_7 
ROOT
HETATM    1  C   LIG     1      14.361  29.311  14.248  1.00  0.00     0.000 C 
ENDROOT
BRANCH   1   2
HETATM    2  C   LIG     1      12.954  28.755  13.981  1.00  0.00    -0.000 C 
BRANCH   2   3
HETATM    3  C   LIG     1      13.007  27.255  13.671  1.00  0.00    -0.005 C 
HETATM    4  C   LIG     1      11.775  26.810  12.889  1.00  0.00     0.005 C 
ENDBRANCH   2   3
ENDBRANCH   1   2
BRANCH   1   5
HETATM    5  C   LIG     1      14.341  30.587  15.105  1.00  0.00     0.001 C 
BRANCH   5   6
HETATM    6  C   LIG     1      13.056  30.717  15.942  1.00  0.00     0.010 C 
BRANCH   6   7
HETATM    7  C   LIG     1      13.152  31.848  16.967  1.00  0.00     0.079 C 
HETATM    8  I   LIG     1      15.031  32.872  16.852  1.00  0.00    -0.090 I 
ENDBRANCH   6   7
ENDBRANCH   5   6
ENDBRANCH   1   5
TORSDOF 5
ENDMDL
MODEL 19
REMARK VINA RESULT:      -3.5      6.687      9.048
REMARK  5 active torsions:
REMARK  status: ('A' for Active; 'I' for Inactive)
REMARK    1  A    between atoms: C_2  and  C_3 
REMARK    2  A    between atoms: C_3  and  C_4 
REMARK    3  A    between atoms: C_4  and  C_5 
REMARK    4  A    between atoms: C_5  and  C_6 
REMARK    5  A    between atoms: C_6  and  C_7 
ROOT
HETATM    1  C   LIG     1      14.833  32.627  17.283  1.00  0.00     0.000 C 
ENDROOT
BRANCH   1   2
HETATM    2  C   LIG     1      14.759  31.656  16.095  1.00  0.00    -0.000 C 
BRANCH   2   3
HETATM    3  C   LIG     1      15.605  32.162  14.921  1.00  0.00    -0.005 C 
HETATM    4  C   LIG     1      17.065  32.335  15.328  1.00  0.00     0.005 C 
ENDBRANCH   2   3
ENDBRANCH   1   2
BRANCH   1   5
HETATM    5  C   LIG     1      14.668  31.919  18.637  1.00  0.00     0.001 C 
BRANCH   5   6
HETATM    6  C   LIG     1      15.484  32.586  19.757  1.00  0.00     0.010 C 
BRANCH   6   7
HETATM    7  C   LIG     1      15.535  34.107  19.601  1.00  0.00     0.079 C 
HETATM    8  I   LIG     1      16.103  35.079  21.424  1.00  0.00    -0.090 I 
ENDBRANCH   6   7
ENDBRANCH   5   6
ENDBRANCH   1   5
TORSDOF 5
ENDMDL
MODEL 20
REMARK VINA RESULT:      -3.3     10.233     11.982
REMARK  5 active torsions:
REMARK  status: ('A' for Active; 'I' for Inactive)
REMARK    1  A    between atoms: C_2  and  C_3 
REMARK    2  A    between atoms: C_3  and  C_4 
REMARK    3  A    between atoms: C_4  and  C_5 
REMARK    4  A    between atoms: C_5  and  C_6 
REMARK    5  A    between atoms: C_6  and  C_7 
ROOT
HETATM    1  C   LIG     1      18.975  33.802  13.087  1.00  0.00     0.000 C 
ENDROOT
BRANCH   1   2
HETATM    2  C   LIG     1      19.480  33.341  11.711  1.00  0.00    -0.000 C 
BRANCH   2   3
HETATM    3  C   LIG     1      20.960  33.695  11.524  1.00  0.00    -0.005 C 
HETATM    4  C   LIG     1      21.513  34.416  12.749  1.00  0.00     0.005 C 
ENDBRANCH   2   3
ENDBRANCH   1   2
BRANCH   1   5
HETATM    5  C   LIG     1      17.533  33.352  13.370  1.00  0.00     0.001 C 
BRANCH   5   6
HETATM    6  C   LIG     1      17.221  33.277  14.874  1.00  0.00     0.010 C 
BRANCH   6   7
HETATM    7  C   LIG     1      16.162  32.218  15.187  1.00  0.00     0.079 C 
HETATM    8  I   LIG     1      14.945  32.776  16.860  1.00  0.00    -0.090 I 
ENDBRANCH   6   7
ENDBRANCH   5   6
ENDBRANCH   1   5
TORSDOF 5
ENDMDL
