MODEL 1
REMARK VINA RESULT:      -6.3      0.000      0.000
REMARK  5 active torsions:
REMARK  status: ('A' for Active; 'I' for Inactive)
REMARK    1  A    between atoms: C_2  and  C_3 
REMARK    2  A    between atoms: C_2  and  C_7 
REMARK    3  A    between atoms: C_7  and  N_8 
REMARK    4  A    between atoms: C_7  and  O_13 
REMARK    5  A    between atoms: O_13  and  C_14 
ROOT
HETATM    1  C   LIG     1      17.570  37.125  21.596  1.00  0.00     0.324 C 
ENDROOT
BRANCH   1   2
HETATM    2  C   LIG     1      18.201  38.264  20.825  1.00  0.00     0.184 C 
HETATM    3  O   LIG     1      17.896  39.408  21.137  1.00  0.00    -0.292 OA
BRANCH   2   4
HETATM    4  C   LIG     1      19.183  38.019  19.677  1.00  0.00     0.014 C 
HETATM    5  C   LIG     1      19.452  36.507  19.536  1.00  0.00     0.023 C 
HETATM    6  C   LIG     1      20.507  38.761  19.952  1.00  0.00     0.023 C 
HETATM    7  C   LIG     1      18.604  38.539  18.341  1.00  0.00     0.023 C 
ENDBRANCH   2   4
ENDBRANCH   1   2
BRANCH   1   8
HETATM    8  N   LIG     1      17.386  37.522  22.992  1.00  0.00    -0.225 N 
HETATM    9  C   LIG     1      16.225  37.667  23.653  1.00  0.00     0.233 A 
HETATM   10  N   LIG     1      16.435  38.077  24.919  1.00  0.00    -0.234 NA
HETATM   11  C   LIG     1      17.782  38.174  24.974  1.00  0.00     0.256 A 
HETATM   12  N   LIG     1      18.372  37.844  23.809  1.00  0.00    -0.162 NA
ENDBRANCH   1   8
BRANCH   1  13
HETATM   13  O   LIG     1      16.312  36.802  21.000  1.00  0.00    -0.317 OA
BRANCH  13  14
HETATM   14  C   LIG     1      15.890  35.508  20.654  1.00  0.00     0.072 A 
HETATM   15  C   LIG     1      16.003  35.111  19.316  1.00  0.00     0.038 A 
HETATM   16  C   LIG     1      15.594  33.835  18.917  1.00  0.00     0.026 A 
HETATM   17  C   LIG     1      15.069  32.942  19.855  1.00  0.00     0.034 A 
HETATM   18  C   LIG     1      14.955  33.327  21.195  1.00  0.00     0.026 A 
HETATM   19 CL   LIG     1      14.556  31.341  19.353  1.00  0.00    -0.084 Cl
HETATM   20  C   LIG     1      15.363  34.603  21.596  1.00  0.00     0.038 A 
ENDBRANCH  13  14
ENDBRANCH   1  13
TORSDOF 5
ENDMDL
MODEL 2
REMARK VINA RESULT:      -6.1      2.788      4.972
REMARK  5 active torsions:
REMARK  status: ('A' for Active; 'I' for Inactive)
REMARK    1  A    between atoms: C_2  and  C_3 
REMARK    2  A    between atoms: C_2  and  C_7 
REMARK    3  A    between atoms: C_7  and  N_8 
REMARK    4  A    between atoms: C_7  and  O_13 
REMARK    5  A    between atoms: O_13  and  C_14 
ROOT
HETATM    1  C   LIG     1      17.049  36.534  22.792  1.00  0.00     0.324 C 
ENDROOT
BRANCH   1   2
HETATM    2  C   LIG     1      16.775  35.314  21.940  1.00  0.00     0.184 C 
HETATM    3  O   LIG     1      17.636  34.446  21.886  1.00  0.00    -0.292 OA
BRANCH   2   4
HETATM    4  C   LIG     1      15.475  35.153  21.149  1.00  0.00     0.014 C 
HETATM    5  C   LIG     1      14.506  36.299  21.503  1.00  0.00     0.023 C 
HETATM    6  C   LIG     1      14.823  33.795  21.481  1.00  0.00     0.023 C 
HETATM    7  C   LIG     1      15.750  35.200  19.628  1.00  0.00     0.023 C 
ENDBRANCH   2   4
ENDBRANCH   1   2
BRANCH   1   8
HETATM    8  N   LIG     1      17.212  36.129  24.188  1.00  0.00    -0.225 N 
HETATM    9  C   LIG     1      17.481  36.919  25.241  1.00  0.00     0.233 A 
HETATM   10  N   LIG     1      17.595  36.198  26.373  1.00  0.00    -0.234 NA
HETATM   11  C   LIG     1      17.386  34.937  25.937  1.00  0.00     0.256 A 
HETATM   12  N   LIG     1      17.156  34.880  24.612  1.00  0.00    -0.162 NA
ENDBRANCH   1   8
BRANCH   1  13
HETATM   13  O   LIG     1      18.235  37.175  22.318  1.00  0.00    -0.317 OA
BRANCH  13  14
HETATM   14  C   LIG     1      18.407  37.706  21.029  1.00  0.00     0.072 A 
HETATM   15  C   LIG     1      18.322  39.094  20.869  1.00  0.00     0.038 A 
HETATM   16  C   LIG     1      18.482  39.674  19.607  1.00  0.00     0.026 A 
HETATM   17  C   LIG     1      18.731  38.869  18.492  1.00  0.00     0.034 A 
HETATM   18  C   LIG     1      18.821  37.481  18.641  1.00  0.00     0.026 A 
HETATM   19 CL   LIG     1      18.931  39.597  16.909  1.00  0.00    -0.084 Cl
HETATM   20  C   LIG     1      18.661  36.899  19.902  1.00  0.00     0.038 A 
ENDBRANCH  13  14
ENDBRANCH   1  13
TORSDOF 5
ENDMDL
MODEL 3
REMARK VINA RESULT:      -5.9      0.987      1.737
REMARK  5 active torsions:
REMARK  status: ('A' for Active; 'I' for Inactive)
REMARK    1  A    between atoms: C_2  and  C_3 
REMARK    2  A    between atoms: C_2  and  C_7 
REMARK    3  A    between atoms: C_7  and  N_8 
REMARK    4  A    between atoms: C_7  and  O_13 
REMARK    5  A    between atoms: O_13  and  C_14 
ROOT
HETATM    1  C   LIG     1      17.327  36.712  21.788  1.00  0.00     0.324 C 
ENDROOT
BRANCH   1   2
HETATM    2  C   LIG     1      17.740  38.059  21.237  1.00  0.00     0.184 C 
HETATM    3  O   LIG     1      17.178  39.055  21.673  1.00  0.00    -0.292 OA
BRANCH   2   4
HETATM    4  C   LIG     1      18.815  38.197  20.157  1.00  0.00     0.014 C 
HETATM    5  C   LIG     1      20.090  38.813  20.767  1.00  0.00     0.023 C 
HETATM    6  C   LIG     1      18.297  39.094  19.013  1.00  0.00     0.023 C 
HETATM    7  C   LIG     1      19.177  36.816  19.564  1.00  0.00     0.023 C 
ENDBRANCH   2   4
ENDBRANCH   1   2
BRANCH   1   8
HETATM    8  N   LIG     1      17.336  36.758  23.251  1.00  0.00    -0.225 N 
HETATM    9  C   LIG     1      17.485  37.841  24.033  1.00  0.00     0.233 A 
HETATM   10  N   LIG     1      17.476  37.504  25.337  1.00  0.00    -0.234 NA
HETATM   11  C   LIG     1      17.320  36.163  25.289  1.00  0.00     0.256 A 
HETATM   12  N   LIG     1      17.238  35.696  24.029  1.00  0.00    -0.162 NA
ENDBRANCH   1   8
BRANCH   1  13
HETATM   13  O   LIG     1      16.020  36.395  21.308  1.00  0.00    -0.317 OA
BRANCH  13  14
HETATM   14  C   LIG     1      15.690  35.257  20.552  1.00  0.00     0.072 A 
HETATM   15  C   LIG     1      15.286  34.104  21.236  1.00  0.00     0.038 A 
HETATM   16  C   LIG     1      14.950  32.943  20.532  1.00  0.00     0.026 A 
HETATM   17  C   LIG     1      15.013  32.927  19.136  1.00  0.00     0.034 A 
HETATM   18  C   LIG     1      15.412  34.074  18.443  1.00  0.00     0.026 A 
HETATM   19 CL   LIG     1      14.591  31.470  18.254  1.00  0.00    -0.084 Cl
HETATM   20  C   LIG     1      15.749  35.236  19.145  1.00  0.00     0.038 A 
ENDBRANCH  13  14
ENDBRANCH   1  13
TORSDOF 5
ENDMDL
MODEL 4
REMARK VINA RESULT:      -5.7      6.998      9.225
REMARK  5 active torsions:
REMARK  status: ('A' for Active; 'I' for Inactive)
REMARK    1  A    between atoms: C_2  and  C_3 
REMARK    2  A    between atoms: C_2  and  C_7 
REMARK    3  A    between atoms: C_7  and  N_8 
REMARK    4  A    between atoms: C_7  and  O_13 
REMARK    5  A    between atoms: O_13  and  C_14 
ROOT
HETATM    1  C   LIG     1      15.742  31.974  14.854  1.00  0.00     0.324 C 
ENDROOT
BRANCH   1   2
HETATM    2  C   LIG     1      15.870  32.179  16.347  1.00  0.00     0.184 C 
HETATM    3  O   LIG     1      16.930  31.878  16.880  1.00  0.00    -0.292 OA
BRANCH   2   4
HETATM    4  C   LIG     1      14.718  32.730  17.191  1.00  0.00     0.014 C 
HETATM    5  C   LIG     1      14.614  34.256  16.997  1.00  0.00     0.023 C 
HETATM    6  C   LIG     1      14.958  32.407  18.681  1.00  0.00     0.023 C 
HETATM    7  C   LIG     1      13.375  32.092  16.768  1.00  0.00     0.023 C 
ENDBRANCH   2   4
ENDBRANCH   1   2
BRANCH   1   8
HETATM    8  N   LIG     1      16.691  32.842  14.157  1.00  0.00    -0.225 N 
HETATM    9  C   LIG     1      17.095  34.070  14.524  1.00  0.00     0.233 A 
HETATM   10  N   LIG     1      17.953  34.588  13.624  1.00  0.00    -0.234 NA
HETATM   11  C   LIG     1      18.033  33.605  12.700  1.00  0.00     0.256 A 
HETATM   12  N   LIG     1      17.269  32.541  13.009  1.00  0.00    -0.162 NA
ENDBRANCH   1   8
BRANCH   1  13
HETATM   13  O   LIG     1      16.004  30.603  14.549  1.00  0.00    -0.317 OA
BRANCH  13  14
HETATM   14  C   LIG     1      15.028  29.642  14.237  1.00  0.00     0.072 A 
HETATM   15  C   LIG     1      15.453  28.406  13.736  1.00  0.00     0.038 A 
HETATM   16  C   LIG     1      14.522  27.416  13.406  1.00  0.00     0.026 A 
HETATM   17  C   LIG     1      13.156  27.654  13.576  1.00  0.00     0.034 A 
HETATM   18  C   LIG     1      12.720  28.884  14.078  1.00  0.00     0.026 A 
HETATM   19 CL   LIG     1      11.989  26.411  13.161  1.00  0.00    -0.084 Cl
HETATM   20  C   LIG     1      13.649  29.876  14.409  1.00  0.00     0.038 A 
ENDBRANCH  13  14
ENDBRANCH   1  13
TORSDOF 5
ENDMDL
MODEL 5
REMARK VINA RESULT:      -5.3      2.239      3.894
REMARK  5 active torsions:
REMARK  status: ('A' for Active; 'I' for Inactive)
REMARK    1  A    between atoms: C_2  and  C_3 
REMARK    2  A    between atoms: C_2  and  C_7 
REMARK    3  A    between atoms: C_7  and  N_8 
REMARK    4  A    between atoms: C_7  and  O_13 
REMARK    5  A    between atoms: O_13  and  C_14 
ROOT
HETATM    1  C   LIG     1      16.705  36.199  21.322  1.00  0.00     0.324 C 
ENDROOT
BRANCH   1   2
HETATM    2  C   LIG     1      16.994  36.494  22.777  1.00  0.00     0.184 C 
HETATM    3  O   LIG     1      17.186  35.546  23.528  1.00  0.00    -0.292 OA
BRANCH   2   4
HETATM    4  C   LIG     1      17.034  37.923  23.322  1.00  0.00     0.014 C 
HETATM    5  C   LIG     1      15.864  38.737  22.734  1.00  0.00     0.023 C 
HETATM    6  C   LIG     1      18.375  38.590  22.947  1.00  0.00     0.023 C 
HETATM    7  C   LIG     1      16.905  37.926  24.863  1.00  0.00     0.023 C 
ENDBRANCH   2   4
ENDBRANCH   1   2
BRANCH   1   8
HETATM    8  N   LIG     1      17.824  36.658  20.499  1.00  0.00    -0.225 N 
HETATM    9  C   LIG     1      17.909  37.806  19.805  1.00  0.00     0.233 A 
HETATM   10  N   LIG     1      19.074  37.882  19.132  1.00  0.00    -0.234 NA
HETATM   11  C   LIG     1      19.674  36.715  19.458  1.00  0.00     0.256 A 
HETATM   12  N   LIG     1      18.924  35.961  20.284  1.00  0.00    -0.162 NA
ENDBRANCH   1   8
BRANCH   1  13
HETATM   13  O   LIG     1      16.513  34.792  21.162  1.00  0.00    -0.317 OA
BRANCH  13  14
HETATM   14  C   LIG     1      15.927  34.178  20.042  1.00  0.00     0.072 A 
HETATM   15  C   LIG     1      15.567  32.829  20.141  1.00  0.00     0.038 A 
HETATM   16  C   LIG     1      14.984  32.168  19.056  1.00  0.00     0.026 A 
HETATM   17  C   LIG     1      14.754  32.854  17.860  1.00  0.00     0.034 A 
HETATM   18  C   LIG     1      15.107  34.203  17.751  1.00  0.00     0.026 A 
HETATM   19 CL   LIG     1      14.022  32.024  16.498  1.00  0.00    -0.084 Cl
HETATM   20  C   LIG     1      15.691  34.865  18.835  1.00  0.00     0.038 A 
ENDBRANCH  13  14
ENDBRANCH   1  13
TORSDOF 5
ENDMDL
MODEL 6
REMARK VINA RESULT:      -5.2      5.704      7.448
REMARK  5 active torsions:
REMARK  status: ('A' for Active; 'I' for Inactive)
REMARK    1  A    between atoms: C_2  and  C_3 
REMARK    2  A    between atoms: C_2  and  C_7 
REMARK    3  A    between atoms: C_7  and  N_8 
REMARK    4  A    between atoms: C_7  and  O_13 
REMARK    5  A    between atoms: O_13  and  C_14 
ROOT
HETATM    1  C   LIG     1      15.443  32.171  16.709  1.00  0.00     0.324 C 
ENDROOT
BRANCH   1   2
HETATM    2  C   LIG     1      15.840  33.441  15.990  1.00  0.00     0.184 C 
HETATM    3  O   LIG     1      15.259  34.477  16.288  1.00  0.00    -0.292 OA
BRANCH   2   4
HETATM    4  C   LIG     1      16.922  33.455  14.908  1.00  0.00     0.014 C 
HETATM    5  C   LIG     1      18.059  32.490  15.297  1.00  0.00     0.023 C 
HETATM    6  C   LIG     1      17.483  34.884  14.745  1.00  0.00     0.023 C 
HETATM    7  C   LIG     1      16.343  33.003  13.548  1.00  0.00     0.023 C 
ENDBRANCH   2   4
ENDBRANCH   1   2
BRANCH   1   8
HETATM    8  N   LIG     1      15.273  32.449  18.136  1.00  0.00    -0.225 N 
HETATM    9  C   LIG     1      14.708  31.655  19.060  1.00  0.00     0.233 A 
HETATM   10  N   LIG     1      14.694  32.250  20.269  1.00  0.00    -0.234 NA
HETATM   11  C   LIG     1      15.276  33.442  20.013  1.00  0.00     0.256 A 
HETATM   12  N   LIG     1      15.629  33.578  18.721  1.00  0.00    -0.162 NA
ENDBRANCH   1   8
BRANCH   1  13
HETATM   13  O   LIG     1      14.223  31.682  16.149  1.00  0.00    -0.317 OA
BRANCH  13  14
HETATM   14  C   LIG     1      14.107  30.545  15.332  1.00  0.00     0.072 A 
HETATM   15  C   LIG     1      15.276  29.998  14.791  1.00  0.00     0.038 A 
HETATM   16  C   LIG     1      15.217  28.869  13.968  1.00  0.00     0.026 A 
HETATM   17  C   LIG     1      13.985  28.275  13.681  1.00  0.00     0.034 A 
HETATM   18  C   LIG     1      12.811  28.812  14.218  1.00  0.00     0.026 A 
HETATM   19 CL   LIG     1      13.911  26.859  12.648  1.00  0.00    -0.084 Cl
HETATM   20  C   LIG     1      12.868  29.941  15.042  1.00  0.00     0.038 A 
ENDBRANCH  13  14
ENDBRANCH   1  13
TORSDOF 5
ENDMDL
MODEL 7
REMARK VINA RESULT:      -4.9     15.644     17.417
REMARK  5 active torsions:
REMARK  status: ('A' for Active; 'I' for Inactive)
REMARK    1  A    between atoms: C_2  and  C_3 
REMARK    2  A    between atoms: C_2  and  C_7 
REMARK    3  A    between atoms: C_7  and  N_8 
REMARK    4  A    between atoms: C_7  and  O_13 
REMARK    5  A    between atoms: O_13  and  C_14 
ROOT
HETATM    1  C   LIG     1      25.099  22.080  19.194  1.00  0.00     0.324 C 
ENDROOT
BRANCH   1   2
HETATM    2  C   LIG     1      23.669  22.059  19.685  1.00  0.00     0.184 C 
HETATM    3  O   LIG     1      22.777  21.958  18.852  1.00  0.00    -0.292 OA
BRANCH   2   4
HETATM    4  C   LIG     1      23.320  22.172  21.171  1.00  0.00     0.014 C 
HETATM    5  C   LIG     1      24.469  22.874  21.922  1.00  0.00     0.023 C 
HETATM    6  C   LIG     1      23.090  20.766  21.764  1.00  0.00     0.023 C 
HETATM    7  C   LIG     1      22.030  23.000  21.369  1.00  0.00     0.023 C 
ENDBRANCH   2   4
ENDBRANCH   1   2
BRANCH   1   8
HETATM    8  N   LIG     1      25.411  20.810  18.539  1.00  0.00    -0.225 N 
HETATM    9  C   LIG     1      25.487  19.595  19.109  1.00  0.00     0.233 A 
HETATM   10  N   LIG     1      25.831  18.656  18.206  1.00  0.00    -0.234 NA
HETATM   11  C   LIG     1      25.962  19.378  17.071  1.00  0.00     0.256 A 
HETATM   12  N   LIG     1      25.714  20.687  17.260  1.00  0.00    -0.162 NA
ENDBRANCH   1   8
BRANCH   1  13
HETATM   13  O   LIG     1      25.260  23.165  18.278  1.00  0.00    -0.317 OA
BRANCH  13  14
HETATM   14  C   LIG     1      26.242  24.165  18.372  1.00  0.00     0.072 A 
HETATM   15  C   LIG     1      27.347  24.089  17.516  1.00  0.00     0.038 A 
HETATM   16  C   LIG     1      28.356  25.056  17.571  1.00  0.00     0.026 A 
HETATM   17  C   LIG     1      28.266  26.110  18.484  1.00  0.00     0.034 A 
HETATM   18  C   LIG     1      27.165  26.198  19.342  1.00  0.00     0.026 A 
HETATM   19 CL   LIG     1      29.532  27.323  18.552  1.00  0.00    -0.084 Cl
HETATM   20  C   LIG     1      26.155  25.232  19.288  1.00  0.00     0.038 A 
ENDBRANCH  13  14
ENDBRANCH   1  13
TORSDOF 5
ENDMDL
MODEL 8
REMARK VINA RESULT:      -4.6      2.993      4.728
REMARK  5 active torsions:
REMARK  status: ('A' for Active; 'I' for Inactive)
REMARK    1  A    between atoms: C_2  and  C_3 
REMARK    2  A    between atoms: C_2  and  C_7 
REMARK    3  A    between atoms: C_7  and  N_8 
REMARK    4  A    between atoms: C_7  and  O_13 
REMARK    5  A    between atoms: O_13  and  C_14 
ROOT
HETATM    1  C   LIG     1      16.651  37.220  20.934  1.00  0.00     0.324 C 
ENDROOT
BRANCH   1   2
HETATM    2  C   LIG     1      18.126  37.071  20.632  1.00  0.00     0.184 C 
HETATM    3  O   LIG     1      18.648  35.983  20.835  1.00  0.00    -0.292 OA
BRANCH   2   4
HETATM    4  C   LIG     1      18.966  38.236  20.103  1.00  0.00     0.014 C 
HETATM    5  C   LIG     1      20.376  37.734  19.733  1.00  0.00     0.023 C 
HETATM    6  C   LIG     1      19.069  39.339  21.177  1.00  0.00     0.023 C 
HETATM    7  C   LIG     1      18.319  38.849  18.840  1.00  0.00     0.023 C 
ENDBRANCH   2   4
ENDBRANCH   1   2
BRANCH   1   8
HETATM    8  N   LIG     1      16.011  35.904  20.904  1.00  0.00    -0.225 N 
HETATM    9  C   LIG     1      14.907  35.518  21.566  1.00  0.00     0.233 A 
HETATM   10  N   LIG     1      14.625  34.223  21.326  1.00  0.00    -0.234 NA
HETATM   11  C   LIG     1      15.622  33.858  20.491  1.00  0.00     0.256 A 
HETATM   12  N   LIG     1      16.473  34.868  20.229  1.00  0.00    -0.162 NA
ENDBRANCH   1   8
BRANCH   1  13
HETATM   13  O   LIG     1      16.498  37.819  22.222  1.00  0.00    -0.317 OA
BRANCH  13  14
HETATM   14  C   LIG     1      17.064  37.333  23.412  1.00  0.00     0.072 A 
HETATM   15  C   LIG     1      16.889  35.980  23.724  1.00  0.00     0.038 A 
HETATM   16  C   LIG     1      17.428  35.446  24.898  1.00  0.00     0.026 A 
HETATM   17  C   LIG     1      18.152  36.262  25.771  1.00  0.00     0.034 A 
HETATM   18  C   LIG     1      18.336  37.615  25.468  1.00  0.00     0.026 A 
HETATM   19 CL   LIG     1      18.828  35.591  27.244  1.00  0.00    -0.084 Cl
HETATM   20  C   LIG     1      17.797  38.151  24.294  1.00  0.00     0.038 A 
ENDBRANCH  13  14
ENDBRANCH   1  13
TORSDOF 5
ENDMDL
MODEL 9
REMARK VINA RESULT:      -4.5      6.201      8.338
REMARK  5 active torsions:
REMARK  status: ('A' for Active; 'I' for Inactive)
REMARK    1  A    between atoms: C_2  and  C_3 
REMARK    2  A    between atoms: C_2  and  C_7 
REMARK    3  A    between atoms: C_7  and  N_8 
REMARK    4  A    between atoms: C_7  and  O_13 
REMARK    5  A    between atoms: O_13  and  C_14 
ROOT
HETATM    1  C   LIG     1      15.512  32.043  15.653  1.00  0.00     0.324 C 
ENDROOT
BRANCH   1   2
HETATM    2  C   LIG     1      16.954  32.333  15.301  1.00  0.00     0.184 C 
HETATM    3  O   LIG     1      17.822  31.640  15.816  1.00  0.00    -0.292 OA
BRANCH   2   4
HETATM    4  C   LIG     1      17.343  33.462  14.344  1.00  0.00     0.014 C 
HETATM    5  C   LIG     1      17.166  34.823  15.046  1.00  0.00     0.023 C 
HETATM    6  C   LIG     1      16.460  33.407  13.080  1.00  0.00     0.023 C 
HETATM    7  C   LIG     1      18.821  33.326  13.909  1.00  0.00     0.023 C 
ENDBRANCH   2   4
ENDBRANCH   1   2
BRANCH   1   8
HETATM    8  N   LIG     1      15.046  30.884  14.892  1.00  0.00    -0.225 N 
HETATM    9  C   LIG     1      13.828  30.316  14.934  1.00  0.00     0.233 A 
HETATM   10  N   LIG     1      13.765  29.243  14.122  1.00  0.00    -0.234 NA
HETATM   11  C   LIG     1      15.010  29.200  13.599  1.00  0.00     0.256 A 
HETATM   12  N   LIG     1      15.799  30.188  14.061  1.00  0.00    -0.162 NA
ENDBRANCH   1   8
BRANCH   1  13
HETATM   13  O   LIG     1      15.419  31.788  17.056  1.00  0.00    -0.317 OA
BRANCH  13  14
HETATM   14  C   LIG     1      15.411  32.772  18.058  1.00  0.00     0.072 A 
HETATM   15  C   LIG     1      15.487  32.357  19.393  1.00  0.00     0.038 A 
HETATM   16  C   LIG     1      15.479  33.295  20.430  1.00  0.00     0.026 A 
HETATM   17  C   LIG     1      15.398  34.659  20.140  1.00  0.00     0.034 A 
HETATM   18  C   LIG     1      15.326  35.086  18.810  1.00  0.00     0.026 A 
HETATM   19 CL   LIG     1      15.389  35.836  21.441  1.00  0.00    -0.084 Cl
HETATM   20  C   LIG     1      15.333  34.149  17.771  1.00  0.00     0.038 A 
ENDBRANCH  13  14
ENDBRANCH   1  13
TORSDOF 5
ENDMDL
MODEL 10
REMARK VINA RESULT:      -4.5     15.537     17.041
REMARK  5 active torsions:
REMARK  status: ('A' for Active; 'I' for Inactive)
REMARK    1  A    between atoms: C_2  and  C_3 
REMARK    2  A    between atoms: C_2  and  C_7 
REMARK    3  A    between atoms: C_7  and  N_8 
REMARK    4  A    between atoms: C_7  and  O_13 
REMARK    5  A    between atoms: O_13  and  C_14 
ROOT
HETATM    1  C   LIG     1      25.123  22.642  19.518  1.00  0.00     0.324 C 
ENDROOT
BRANCH   1   2
HETATM    2  C   LIG     1      25.310  22.317  20.983  1.00  0.00     0.184 C 
HETATM    3  O   LIG     1      26.452  22.173  21.399  1.00  0.00    -0.292 OA
BRANCH   2   4
HETATM    4  C   LIG     1      24.122  22.152  21.935  1.00  0.00     0.014 C 
HETATM    5  C   LIG     1      24.526  22.603  23.353  1.00  0.00     0.023 C 
HETATM    6  C   LIG     1      23.674  20.676  21.963  1.00  0.00     0.023 C 
HETATM    7  C   LIG     1      22.925  23.014  21.471  1.00  0.00     0.023 C 
ENDBRANCH   2   4
ENDBRANCH   1   2
BRANCH   1   8
HETATM    8  N   LIG     1      25.973  23.776  19.156  1.00  0.00    -0.225 N 
HETATM    9  C   LIG     1      26.951  23.803  18.234  1.00  0.00     0.233 A 
HETATM   10  N   LIG     1      27.546  25.010  18.193  1.00  0.00    -0.234 NA
HETATM   11  C   LIG     1      26.875  25.699  19.142  1.00  0.00     0.256 A 
HETATM   12  N   LIG     1      25.920  24.960  19.738  1.00  0.00    -0.162 NA
ENDBRANCH   1   8
BRANCH   1  13
HETATM   13  O   LIG     1      25.467  21.494  18.739  1.00  0.00    -0.317 OA
BRANCH  13  14
HETATM   14  C   LIG     1      24.551  20.673  18.061  1.00  0.00     0.072 A 
HETATM   15  C   LIG     1      25.053  19.729  17.157  1.00  0.00     0.038 A 
HETATM   16  C   LIG     1      24.185  18.889  16.453  1.00  0.00     0.026 A 
HETATM   17  C   LIG     1      22.804  18.986  16.647  1.00  0.00     0.034 A 
HETATM   18  C   LIG     1      22.292  19.924  17.549  1.00  0.00     0.026 A 
HETATM   19 CL   LIG     1      21.716  17.933  15.762  1.00  0.00    -0.084 Cl
HETATM   20  C   LIG     1      23.158  20.765  18.255  1.00  0.00     0.038 A 
ENDBRANCH  13  14
ENDBRANCH   1  13
TORSDOF 5
ENDMDL
MODEL 11
REMARK VINA RESULT:      -4.5     15.382     16.894
REMARK  5 active torsions:
REMARK  status: ('A' for Active; 'I' for Inactive)
REMARK    1  A    between atoms: C_2  and  C_3 
REMARK    2  A    between atoms: C_2  and  C_7 
REMARK    3  A    between atoms: C_7  and  N_8 
REMARK    4  A    between atoms: C_7  and  O_13 
REMARK    5  A    between atoms: O_13  and  C_14 
ROOT
HETATM    1  C   LIG     1      25.401  22.634  19.738  1.00  0.00     0.324 C 
ENDROOT
BRANCH   1   2
HETATM    2  C   LIG     1      24.661  22.011  18.575  1.00  0.00     0.184 C 
HETATM    3  O   LIG     1      23.992  22.746  17.859  1.00  0.00    -0.292 OA
BRANCH   2   4
HETATM    4  C   LIG     1      24.719  20.509  18.288  1.00  0.00     0.014 C 
HETATM    5  C   LIG     1      23.289  19.957  18.118  1.00  0.00     0.023 C 
HETATM    6  C   LIG     1      25.425  19.780  19.450  1.00  0.00     0.023 C 
HETATM    7  C   LIG     1      25.508  20.229  16.989  1.00  0.00     0.023 C 
ENDBRANCH   2   4
ENDBRANCH   1   2
BRANCH   1   8
HETATM    8  N   LIG     1      26.191  23.769  19.263  1.00  0.00    -0.225 N 
HETATM    9  C   LIG     1      26.092  25.052  19.652  1.00  0.00     0.233 A 
HETATM   10  N   LIG     1      26.959  25.832  18.977  1.00  0.00    -0.234 NA
HETATM   11  C   LIG     1      27.574  24.947  18.163  1.00  0.00     0.256 A 
HETATM   12  N   LIG     1      27.115  23.691  18.323  1.00  0.00    -0.162 NA
ENDBRANCH   1   8
BRANCH   1  13
HETATM   13  O   LIG     1      24.452  23.062  20.717  1.00  0.00    -0.317 OA
BRANCH  13  14
HETATM   14  C   LIG     1      24.072  22.325  21.851  1.00  0.00     0.072 A 
HETATM   15  C   LIG     1      24.762  22.551  23.047  1.00  0.00     0.038 A 
HETATM   16  C   LIG     1      24.427  21.842  24.205  1.00  0.00     0.026 A 
HETATM   17  C   LIG     1      23.394  20.901  24.176  1.00  0.00     0.034 A 
HETATM   18  C   LIG     1      22.696  20.670  22.987  1.00  0.00     0.026 A 
HETATM   19 CL   LIG     1      22.974  20.012  25.629  1.00  0.00    -0.084 Cl
HETATM   20  C   LIG     1      23.029  21.377  21.828  1.00  0.00     0.038 A 
ENDBRANCH  13  14
ENDBRANCH   1  13
TORSDOF 5
ENDMDL
MODEL 12
REMARK VINA RESULT:      -4.4     15.216     16.754
REMARK  5 active torsions:
REMARK  status: ('A' for Active; 'I' for Inactive)
REMARK    1  A    between atoms: C_2  and  C_3 
REMARK    2  A    between atoms: C_2  and  C_7 
REMARK    3  A    between atoms: C_7  and  N_8 
REMARK    4  A    between atoms: C_7  and  O_13 
REMARK    5  A    between atoms: O_13  and  C_14 
ROOT
HETATM    1  C   LIG     1      25.556  22.846  22.210  1.00  0.00     0.324 C 
ENDROOT
BRANCH   1   2
HETATM    2  C   LIG     1      24.893  21.567  21.752  1.00  0.00     0.184 C 
HETATM    3  O   LIG     1      25.599  20.580  21.588  1.00  0.00    -0.292 OA
BRANCH   2   4
HETATM    4  C   LIG     1      23.389  21.486  21.479  1.00  0.00     0.014 C 
HETATM    5  C   LIG     1      22.790  22.906  21.439  1.00  0.00     0.023 C 
HETATM    6  C   LIG     1      22.699  20.660  22.586  1.00  0.00     0.023 C 
HETATM    7  C   LIG     1      23.114  20.801  20.121  1.00  0.00     0.023 C 
ENDBRANCH   2   4
ENDBRANCH   1   2
BRANCH   1   8
HETATM    8  N   LIG     1      25.733  22.814  23.662  1.00  0.00    -0.225 N 
HETATM    9  C   LIG     1      26.861  22.546  24.341  1.00  0.00     0.233 A 
HETATM   10  N   LIG     1      26.646  22.571  25.670  1.00  0.00    -0.234 NA
HETATM   11  C   LIG     1      25.328  22.863  25.746  1.00  0.00     0.256 A 
HETATM   12  N   LIG     1      24.761  23.008  24.534  1.00  0.00    -0.162 NA
ENDBRANCH   1   8
BRANCH   1  13
HETATM   13  O   LIG     1      26.821  22.974  21.557  1.00  0.00    -0.317 OA
BRANCH  13  14
HETATM   14  C   LIG     1      27.238  24.091  20.813  1.00  0.00     0.072 A 
HETATM   15  C   LIG     1      26.353  24.623  19.868  1.00  0.00     0.038 A 
HETATM   16  C   LIG     1      26.719  25.732  19.099  1.00  0.00     0.026 A 
HETATM   17  C   LIG     1      27.976  26.319  19.270  1.00  0.00     0.034 A 
HETATM   18  C   LIG     1      28.866  25.797  20.213  1.00  0.00     0.026 A 
HETATM   19 CL   LIG     1      28.434  27.710  18.304  1.00  0.00    -0.084 Cl
HETATM   20  C   LIG     1      28.502  24.689  20.984  1.00  0.00     0.038 A 
ENDBRANCH  13  14
ENDBRANCH   1  13
TORSDOF 5
ENDMDL
MODEL 13
REMARK VINA RESULT:      -4.4      5.190      7.942
REMARK  5 active torsions:
REMARK  status: ('A' for Active; 'I' for Inactive)
REMARK    1  A    between atoms: C_2  and  C_3 
REMARK    2  A    between atoms: C_2  and  C_7 
REMARK    3  A    between atoms: C_7  and  N_8 
REMARK    4  A    between atoms: C_7  and  O_13 
REMARK    5  A    between atoms: O_13  and  C_14 
ROOT
HETATM    1  C   LIG     1      15.848  32.519  16.405  1.00  0.00     0.324 C 
ENDROOT
BRANCH   1   2
HETATM    2  C   LIG     1      14.825  31.705  15.644  1.00  0.00     0.184 C 
HETATM    3  O   LIG     1      15.058  31.441  14.471  1.00  0.00    -0.292 OA
BRANCH   2   4
HETATM    4  C   LIG     1      13.525  31.225  16.293  1.00  0.00     0.014 C 
HETATM    5  C   LIG     1      13.832  30.592  17.665  1.00  0.00     0.023 C 
HETATM    6  C   LIG     1      12.835  30.188  15.382  1.00  0.00     0.023 C 
HETATM    7  C   LIG     1      12.552  32.407  16.508  1.00  0.00     0.023 C 
ENDBRANCH   2   4
ENDBRANCH   1   2
BRANCH   1   8
HETATM    8  N   LIG     1      16.758  33.167  15.461  1.00  0.00    -0.225 N 
HETATM    9  C   LIG     1      16.759  34.456  15.080  1.00  0.00     0.233 A 
HETATM   10  N   LIG     1      17.721  34.693  14.169  1.00  0.00    -0.234 NA
HETATM   11  C   LIG     1      18.290  33.476  14.022  1.00  0.00     0.256 A 
HETATM   12  N   LIG     1      17.712  32.539  14.798  1.00  0.00    -0.162 NA
ENDBRANCH   1   8
BRANCH   1  13
HETATM   13  O   LIG     1      15.168  33.499  17.193  1.00  0.00    -0.317 OA
BRANCH  13  14
HETATM   14  C   LIG     1      15.480  33.824  18.524  1.00  0.00     0.072 A 
HETATM   15  C   LIG     1      15.916  35.125  18.801  1.00  0.00     0.038 A 
HETATM   16  C   LIG     1      16.243  35.501  20.108  1.00  0.00     0.026 A 
HETATM   17  C   LIG     1      16.134  34.577  21.150  1.00  0.00     0.034 A 
HETATM   18  C   LIG     1      15.695  33.275  20.885  1.00  0.00     0.026 A 
HETATM   19 CL   LIG     1      16.544  35.049  22.789  1.00  0.00    -0.084 Cl
HETATM   20  C   LIG     1      15.368  32.897  19.579  1.00  0.00     0.038 A 
ENDBRANCH  13  14
ENDBRANCH   1  13
TORSDOF 5
ENDMDL
MODEL 14
REMARK VINA RESULT:      -4.2     15.474     16.973
REMARK  5 active torsions:
REMARK  status: ('A' for Active; 'I' for Inactive)
REMARK    1  A    between atoms: C_2  and  C_3 
REMARK    2  A    between atoms: C_2  and  C_7 
REMARK    3  A    between atoms: C_7  and  N_8 
REMARK    4  A    between atoms: C_7  and  O_13 
REMARK    5  A    between atoms: O_13  and  C_14 
ROOT
HETATM    1  C   LIG     1      25.115  22.471  20.986  1.00  0.00     0.324 C 
ENDROOT
BRANCH   1   2
HETATM    2  C   LIG     1      25.693  21.358  20.141  1.00  0.00     0.184 C 
HETATM    3  O   LIG     1      26.446  20.558  20.681  1.00  0.00    -0.292 OA
BRANCH   2   4
HETATM    4  C   LIG     1      25.374  21.223  18.650  1.00  0.00     0.014 C 
HETATM    5  C   LIG     1      24.135  22.073  18.304  1.00  0.00     0.023 C 
HETATM    6  C   LIG     1      25.105  19.744  18.303  1.00  0.00     0.023 C 
HETATM    7  C   LIG     1      26.559  21.716  17.789  1.00  0.00     0.023 C 
ENDBRANCH   2   4
ENDBRANCH   1   2
BRANCH   1   8
HETATM    8  N   LIG     1      24.427  21.900  22.144  1.00  0.00    -0.225 N 
HETATM    9  C   LIG     1      24.726  22.081  23.442  1.00  0.00     0.233 A 
HETATM   10  N   LIG     1      23.898  21.372  24.234  1.00  0.00    -0.234 NA
HETATM   11  C   LIG     1      23.096  20.756  23.338  1.00  0.00     0.256 A 
HETATM   12  N   LIG     1      23.409  21.064  22.066  1.00  0.00    -0.162 NA
ENDBRANCH   1   8
BRANCH   1  13
HETATM   13  O   LIG     1      26.174  23.331  21.410  1.00  0.00    -0.317 OA
BRANCH  13  14
HETATM   14  C   LIG     1      26.740  24.359  20.637  1.00  0.00     0.072 A 
HETATM   15  C   LIG     1      28.035  24.788  20.955  1.00  0.00     0.038 A 
HETATM   16  C   LIG     1      28.644  25.810  20.220  1.00  0.00     0.026 A 
HETATM   17  C   LIG     1      27.963  26.411  19.158  1.00  0.00     0.034 A 
HETATM   18  C   LIG     1      26.671  25.988  18.830  1.00  0.00     0.026 A 
HETATM   19 CL   LIG     1      28.728  27.693  18.237  1.00  0.00    -0.084 Cl
HETATM   20  C   LIG     1      26.060  24.966  19.564  1.00  0.00     0.038 A 
ENDBRANCH  13  14
ENDBRANCH   1  13
TORSDOF 5
ENDMDL
MODEL 15
REMARK VINA RESULT:      -4.2      5.579      8.323
REMARK  5 active torsions:
REMARK  status: ('A' for Active; 'I' for Inactive)
REMARK    1  A    between atoms: C_2  and  C_3 
REMARK    2  A    between atoms: C_2  and  C_7 
REMARK    3  A    between atoms: C_7  and  N_8 
REMARK    4  A    between atoms: C_7  and  O_13 
REMARK    5  A    between atoms: O_13  and  C_14 
ROOT
HETATM    1  C   LIG     1      15.322  31.774  16.402  1.00  0.00     0.324 C 
ENDROOT
BRANCH   1   2
HETATM    2  C   LIG     1      14.373  31.093  15.442  1.00  0.00     0.184 C 
HETATM    3  O   LIG     1      13.174  31.313  15.564  1.00  0.00    -0.292 OA
BRANCH   2   4
HETATM    4  C   LIG     1      14.869  30.142  14.350  1.00  0.00     0.014 C 
HETATM    5  C   LIG     1      15.329  30.954  13.123  1.00  0.00     0.023 C 
HETATM    6  C   LIG     1      13.737  29.176  13.942  1.00  0.00     0.023 C 
HETATM    7  C   LIG     1      16.064  29.303  14.856  1.00  0.00     0.023 C 
ENDBRANCH   2   4
ENDBRANCH   1   2
BRANCH   1   8
HETATM    8  N   LIG     1      16.309  32.548  15.649  1.00  0.00    -0.225 N 
HETATM    9  C   LIG     1      16.119  33.721  15.020  1.00  0.00     0.233 A 
HETATM   10  N   LIG     1      17.244  34.126  14.400  1.00  0.00    -0.234 NA
HETATM   11  C   LIG     1      18.111  33.130  14.688  1.00  0.00     0.256 A 
HETATM   12  N   LIG     1      17.554  32.163  15.442  1.00  0.00    -0.162 NA
ENDBRANCH   1   8
BRANCH   1  13
HETATM   13  O   LIG     1      14.573  32.630  17.268  1.00  0.00    -0.317 OA
BRANCH  13  14
HETATM   14  C   LIG     1      15.073  33.246  18.427  1.00  0.00     0.072 A 
HETATM   15  C   LIG     1      15.325  32.443  19.546  1.00  0.00     0.038 A 
HETATM   16  C   LIG     1      15.820  33.006  20.726  1.00  0.00     0.026 A 
HETATM   17  C   LIG     1      16.068  34.379  20.797  1.00  0.00     0.034 A 
HETATM   18  C   LIG     1      15.823  35.190  19.684  1.00  0.00     0.026 A 
HETATM   19 CL   LIG     1      16.689  35.085  22.278  1.00  0.00    -0.084 Cl
HETATM   20  C   LIG     1      15.328  34.629  18.502  1.00  0.00     0.038 A 
ENDBRANCH  13  14
ENDBRANCH   1  13
TORSDOF 5
ENDMDL
MODEL 16
REMARK VINA RESULT:      -4.2     15.632     16.825
REMARK  5 active torsions:
REMARK  status: ('A' for Active; 'I' for Inactive)
REMARK    1  A    between atoms: C_2  and  C_3 
REMARK    2  A    between atoms: C_2  and  C_7 
REMARK    3  A    between atoms: C_7  and  N_8 
REMARK    4  A    between atoms: C_7  and  O_13 
REMARK    5  A    between atoms: O_13  and  C_14 
ROOT
HETATM    1  C   LIG     1      25.677  22.913  20.373  1.00  0.00     0.324 C 
ENDROOT
BRANCH   1   2
HETATM    2  C   LIG     1      26.868  23.106  19.461  1.00  0.00     0.184 C 
HETATM    3  O   LIG     1      27.484  22.111  19.101  1.00  0.00    -0.292 OA
BRANCH   2   4
HETATM    4  C   LIG     1      27.319  24.494  18.999  1.00  0.00     0.014 C 
HETATM    5  C   LIG     1      27.708  24.446  17.508  1.00  0.00     0.023 C 
HETATM    6  C   LIG     1      28.527  24.959  19.839  1.00  0.00     0.023 C 
HETATM    7  C   LIG     1      26.181  25.526  19.173  1.00  0.00     0.023 C 
ENDBRANCH   2   4
ENDBRANCH   1   2
BRANCH   1   8
HETATM    8  N   LIG     1      24.656  22.124  19.684  1.00  0.00    -0.225 N 
HETATM    9  C   LIG     1      24.156  22.331  18.454  1.00  0.00     0.233 A 
HETATM   10  N   LIG     1      23.204  21.424  18.158  1.00  0.00    -0.234 NA
HETATM   11  C   LIG     1      23.161  20.671  19.279  1.00  0.00     0.256 A 
HETATM   12  N   LIG     1      24.035  21.087  20.215  1.00  0.00    -0.162 NA
ENDBRANCH   1   8
BRANCH   1  13
HETATM   13  O   LIG     1      26.106  22.246  21.561  1.00  0.00    -0.317 OA
BRANCH  13  14
HETATM   14  C   LIG     1      26.112  22.809  22.848  1.00  0.00     0.072 A 
HETATM   15  C   LIG     1      27.233  23.551  23.239  1.00  0.00     0.038 A 
HETATM   16  C   LIG     1      27.293  24.130  24.510  1.00  0.00     0.026 A 
HETATM   17  C   LIG     1      26.229  23.974  25.402  1.00  0.00     0.034 A 
HETATM   18  C   LIG     1      25.102  23.239  25.021  1.00  0.00     0.026 A 
HETATM   19 CL   LIG     1      26.304  24.702  26.997  1.00  0.00    -0.084 Cl
HETATM   20  C   LIG     1      25.040  22.658  23.750  1.00  0.00     0.038 A 
ENDBRANCH  13  14
ENDBRANCH   1  13
TORSDOF 5
ENDMDL
MODEL 17
REMARK VINA RESULT:      -3.8     15.817     17.160
REMARK  5 active torsions:
REMARK  status: ('A' for Active; 'I' for Inactive)
REMARK    1  A    between atoms: C_2  and  C_3 
REMARK    2  A    between atoms: C_2  and  C_7 
REMARK    3  A    between atoms: C_7  and  N_8 
REMARK    4  A    between atoms: C_7  and  O_13 
REMARK    5  A    between atoms: O_13  and  C_14 
ROOT
HETATM    1  C   LIG     1      24.901  22.439  25.599  1.00  0.00     0.324 C 
ENDROOT
BRANCH   1   2
HETATM    2  C   LIG     1      25.005  21.011  26.085  1.00  0.00     0.184 C 
HETATM    3  O   LIG     1      26.072  20.429  25.936  1.00  0.00    -0.292 OA
BRANCH   2   4
HETATM    4  C   LIG     1      23.822  20.287  26.733  1.00  0.00     0.014 C 
HETATM    5  C   LIG     1      23.375  19.115  25.836  1.00  0.00     0.023 C 
HETATM    6  C   LIG     1      22.649  21.270  26.931  1.00  0.00     0.023 C 
HETATM    7  C   LIG     1      24.218  19.719  28.116  1.00  0.00     0.023 C 
ENDBRANCH   2   4
ENDBRANCH   1   2
BRANCH   1   8
HETATM    8  N   LIG     1      25.592  23.326  26.535  1.00  0.00    -0.225 N 
HETATM    9  C   LIG     1      25.747  23.155  27.859  1.00  0.00     0.233 A 
HETATM   10  N   LIG     1      26.410  24.190  28.409  1.00  0.00    -0.234 NA
HETATM   11  C   LIG     1      26.636  24.990  27.343  1.00  0.00     0.256 A 
HETATM   12  N   LIG     1      26.140  24.479  26.200  1.00  0.00    -0.162 NA
ENDBRANCH   1   8
BRANCH   1  13
HETATM   13  O   LIG     1      25.487  22.532  24.300  1.00  0.00    -0.317 OA
BRANCH  13  14
HETATM   14  C   LIG     1      24.797  22.369  23.087  1.00  0.00     0.072 A 
HETATM   15  C   LIG     1      25.384  22.871  21.920  1.00  0.00     0.038 A 
HETATM   16  C   LIG     1      24.738  22.739  20.687  1.00  0.00     0.026 A 
HETATM   17  C   LIG     1      23.497  22.102  20.611  1.00  0.00     0.034 A 
HETATM   18  C   LIG     1      22.902  21.594  21.770  1.00  0.00     0.026 A 
HETATM   19 CL   LIG     1      22.687  21.937  19.063  1.00  0.00    -0.084 Cl
HETATM   20  C   LIG     1      23.547  21.725  23.005  1.00  0.00     0.038 A 
ENDBRANCH  13  14
ENDBRANCH   1  13
TORSDOF 5
ENDMDL
MODEL 18
REMARK VINA RESULT:      -3.7      5.026      7.660
REMARK  5 active torsions:
REMARK  status: ('A' for Active; 'I' for Inactive)
REMARK    1  A    between atoms: C_2  and  C_3 
REMARK    2  A    between atoms: C_2  and  C_7 
REMARK    3  A    between atoms: C_7  and  N_8 
REMARK    4  A    between atoms: C_7  and  O_13 
REMARK    5  A    between atoms: O_13  and  C_14 
ROOT
HETATM    1  C   LIG     1      15.057  32.982  17.371  1.00  0.00     0.324 C 
ENDROOT
BRANCH   1   2
HETATM    2  C   LIG     1      14.168  31.781  17.602  1.00  0.00     0.184 C 
HETATM    3  O   LIG     1      14.334  31.131  18.627  1.00  0.00    -0.292 OA
BRANCH   2   4
HETATM    4  C   LIG     1      13.096  31.360  16.594  1.00  0.00     0.014 C 
HETATM    5  C   LIG     1      13.767  30.898  15.285  1.00  0.00     0.023 C 
HETATM    6  C   LIG     1      12.152  32.545  16.307  1.00  0.00     0.023 C 
HETATM    7  C   LIG     1      12.252  30.190  17.149  1.00  0.00     0.023 C 
ENDBRANCH   2   4
ENDBRANCH   1   2
BRANCH   1   8
HETATM    8  N   LIG     1      15.385  33.603  18.655  1.00  0.00    -0.225 N 
HETATM    9  C   LIG     1      15.380  33.023  19.867  1.00  0.00     0.233 A 
HETATM   10  N   LIG     1      15.703  33.907  20.830  1.00  0.00    -0.234 NA
HETATM   11  C   LIG     1      15.895  35.045  20.127  1.00  0.00     0.256 A 
HETATM   12  N   LIG     1      15.701  34.875  18.806  1.00  0.00    -0.162 NA
ENDBRANCH   1   8
BRANCH   1  13
HETATM   13  O   LIG     1      16.248  32.558  16.705  1.00  0.00    -0.317 OA
BRANCH  13  14
HETATM   14  C   LIG     1      16.730  33.085  15.495  1.00  0.00     0.072 A 
HETATM   15  C   LIG     1      16.673  32.278  14.353  1.00  0.00     0.038 A 
HETATM   16  C   LIG     1      17.142  32.752  13.124  1.00  0.00     0.026 A 
HETATM   17  C   LIG     1      17.671  34.041  13.027  1.00  0.00     0.034 A 
HETATM   18  C   LIG     1      17.730  34.858  14.161  1.00  0.00     0.026 A 
HETATM   19 CL   LIG     1      18.260  34.636  11.485  1.00  0.00    -0.084 Cl
HETATM   20  C   LIG     1      17.262  34.385  15.391  1.00  0.00     0.038 A 
ENDBRANCH  13  14
ENDBRANCH   1  13
TORSDOF 5
ENDMDL
MODEL 19
REMARK VINA RESULT:      -3.5     15.750     16.952
REMARK  5 active torsions:
REMARK  status: ('A' for Active; 'I' for Inactive)
REMARK    1  A    between atoms: C_2  and  C_3 
REMARK    2  A    between atoms: C_2  and  C_7 
REMARK    3  A    between atoms: C_7  and  N_8 
REMARK    4  A    between atoms: C_7  and  O_13 
REMARK    5  A    between atoms: O_13  and  C_14 
ROOT
HETATM    1  C   LIG     1      25.974  23.278  20.178  1.00  0.00     0.324 C 
ENDROOT
BRANCH   1   2
HETATM    2  C   LIG     1      27.234  24.078  19.930  1.00  0.00     0.184 C 
HETATM    3  O   LIG     1      28.221  23.821  20.607  1.00  0.00    -0.292 OA
BRANCH   2   4
HETATM    4  C   LIG     1      27.294  25.189  18.880  1.00  0.00     0.014 C 
HETATM    5  C   LIG     1      25.890  25.798  18.686  1.00  0.00     0.023 C 
HETATM    6  C   LIG     1      27.806  24.619  17.541  1.00  0.00     0.023 C 
HETATM    7  C   LIG     1      28.256  26.314  19.327  1.00  0.00     0.023 C 
ENDBRANCH   2   4
ENDBRANCH   1   2
BRANCH   1   8
HETATM    8  N   LIG     1      25.866  22.213  19.180  1.00  0.00    -0.225 N 
HETATM    9  C   LIG     1      24.849  21.992  18.330  1.00  0.00     0.233 A 
HETATM   10  N   LIG     1      25.076  20.900  17.575  1.00  0.00    -0.234 NA
HETATM   11  C   LIG     1      26.279  20.480  18.025  1.00  0.00     0.256 A 
HETATM   12  N   LIG     1      26.768  21.266  19.002  1.00  0.00    -0.162 NA
ENDBRANCH   1   8
BRANCH   1  13
HETATM   13  O   LIG     1      26.028  22.723  21.494  1.00  0.00    -0.317 OA
BRANCH  13  14
HETATM   14  C   LIG     1      25.089  21.828  22.033  1.00  0.00     0.072 A 
HETATM   15  C   LIG     1      23.736  22.185  21.991  1.00  0.00     0.038 A 
HETATM   16  C   LIG     1      22.760  21.333  22.517  1.00  0.00     0.026 A 
HETATM   17  C   LIG     1      23.130  20.113  23.089  1.00  0.00     0.034 A 
HETATM   18  C   LIG     1      24.479  19.744  23.133  1.00  0.00     0.026 A 
HETATM   19 CL   LIG     1      21.905  19.044  23.748  1.00  0.00    -0.084 Cl
HETATM   20  C   LIG     1      25.456  20.595  22.608  1.00  0.00     0.038 A 
ENDBRANCH  13  14
ENDBRANCH   1  13
TORSDOF 5
ENDMDL
MODEL 20
REMARK VINA RESULT:      -3.3     15.535     17.008
REMARK  5 active torsions:
REMARK  status: ('A' for Active; 'I' for Inactive)
REMARK    1  A    between atoms: C_2  and  C_3 
REMARK    2  A    between atoms: C_2  and  C_7 
REMARK    3  A    between atoms: C_7  and  N_8 
REMARK    4  A    between atoms: C_7  and  O_13 
REMARK    5  A    between atoms: O_13  and  C_14 
ROOT
HETATM    1  C   LIG     1      25.896  22.504  21.889  1.00  0.00     0.324 C 
ENDROOT
BRANCH   1   2
HETATM    2  C   LIG     1      25.131  21.540  21.010  1.00  0.00     0.184 C 
HETATM    3  O   LIG     1      25.744  20.962  20.122  1.00  0.00    -0.292 OA
BRANCH   2   4
HETATM    4  C   LIG     1      23.633  21.288  21.195  1.00  0.00     0.014 C 
HETATM    5  C   LIG     1      23.074  20.550  19.963  1.00  0.00     0.023 C 
HETATM    6  C   LIG     1      22.894  22.630  21.380  1.00  0.00     0.023 C 
HETATM    7  C   LIG     1      23.375  20.416  22.446  1.00  0.00     0.023 C 
ENDBRANCH   2   4
ENDBRANCH   1   2
BRANCH   1   8
HETATM    8  N   LIG     1      26.334  23.650  21.093  1.00  0.00    -0.225 N 
HETATM    9  C   LIG     1      27.486  24.333  21.209  1.00  0.00     0.233 A 
HETATM   10  N   LIG     1      27.539  25.352  20.329  1.00  0.00    -0.234 NA
HETATM   11  C   LIG     1      26.354  25.243  19.688  1.00  0.00     0.256 A 
HETATM   12  N   LIG     1      25.612  24.217  20.144  1.00  0.00    -0.162 NA
ENDBRANCH   1   8
BRANCH   1  13
HETATM   13  O   LIG     1      25.047  22.935  22.955  1.00  0.00    -0.317 OA
BRANCH  13  14
HETATM   14  C   LIG     1      25.432  23.045  24.302  1.00  0.00     0.072 A 
HETATM   15  C   LIG     1      24.623  22.444  25.272  1.00  0.00     0.038 A 
HETATM   16  C   LIG     1      24.958  22.527  26.627  1.00  0.00     0.026 A 
HETATM   17  C   LIG     1      26.110  23.212  27.023  1.00  0.00     0.034 A 
HETATM   18  C   LIG     1      26.928  23.814  26.061  1.00  0.00     0.026 A 
HETATM   19 CL   LIG     1      26.530  23.315  28.723  1.00  0.00    -0.084 Cl
HETATM   20  C   LIG     1      26.594  23.732  24.706  1.00  0.00     0.038 A 
ENDBRANCH  13  14
ENDBRANCH   1  13
TORSDOF 5
ENDMDL
