REMARK  3 active torsions:
REMARK  status: ('A' for Active; 'I' for Inactive)
REMARK    1  A    between atoms: C_2  and  C_5 
REMARK    2  A    between atoms: C_6  and  C_7 
REMARK    3  A    between atoms: C_7  and  O_8 
ROOT
HETATM    1  C   LIG     1      -0.609   0.569   0.156  1.00  0.00     0.064 A 
HETATM    2  C   LIG     1       0.679  -0.041   0.098  1.00  0.00     0.052 A 
HETATM    3  C   LIG     1       0.774  -1.431  -0.095  1.00  0.00     0.019 A 
HETATM    4  C   LIG     1      -0.371  -2.216  -0.218  1.00  0.00     0.001 A 
HETATM    5  C   LIG     1      -1.631  -1.627  -0.152  1.00  0.00     0.001 A 
HETATM    6  C   LIG     1      -1.752  -0.250   0.033  1.00  0.00     0.017 A 
ENDROOT
BRANCH   1   7
HETATM    7  C   LIG     1      -0.783   2.068   0.317  1.00  0.00     0.418 C 
HETATM    8  F   LIG     1       0.009   2.739  -0.598  1.00  0.00    -0.166 F 
HETATM    9  F   LIG     1      -2.095   2.457   0.104  1.00  0.00    -0.166 F 
HETATM   10  F   LIG     1      -0.428   2.444   1.599  1.00  0.00    -0.166 F 
ENDBRANCH   1   7
BRANCH   2  11
HETATM   11  C   LIG     1       1.940   0.730   0.228  1.00  0.00     0.176 C 
HETATM   12  O   LIG     1       2.049   1.637   1.092  1.00  0.00    -0.646 OA
BRANCH  11  13
HETATM   13  O   LIG     1       3.037   0.441  -0.582  1.00  0.00    -0.773 OA
HETATM   14  H   LIG     1       2.986  -0.248  -1.323  1.00  0.00     0.167 HD
ENDBRANCH  11  13
ENDBRANCH   2  11
TORSDOF 3
