MODEL 1
REMARK VINA RESULT:      -7.8      0.000      0.000
REMARK  3 active torsions:
REMARK  status: ('A' for Active; 'I' for Inactive)
REMARK    1  A    between atoms: C_2  and  C_5 
REMARK    2  A    between atoms: C_6  and  C_7 
REMARK    3  A    between atoms: C_7  and  O_8 
ROOT
HETATM    1  C   LIG     1      17.262  36.557  21.470  1.00  0.00     0.064 A 
HETATM    2  C   LIG     1      17.202  37.719  22.296  1.00  0.00     0.052 A 
HETATM    3  C   LIG     1      17.950  38.855  21.939  1.00  0.00     0.019 A 
HETATM    4  C   LIG     1      18.753  38.855  20.800  1.00  0.00     0.001 A 
HETATM    5  C   LIG     1      18.823  37.720  19.996  1.00  0.00     0.001 A 
HETATM    6  C   LIG     1      18.086  36.583  20.325  1.00  0.00     0.017 A 
ENDROOT
BRANCH   1   7
HETATM    7  C   LIG     1      16.446  35.313  21.771  1.00  0.00     0.418 C 
HETATM    8  F   LIG     1      15.095  35.611  21.736  1.00  0.00    -0.166 F 
HETATM    9  F   LIG     1      16.681  34.311  20.845  1.00  0.00    -0.166 F 
HETATM   10  F   LIG     1      16.780  34.827  23.021  1.00  0.00    -0.166 F 
ENDBRANCH   1   7
BRANCH   2  11
HETATM   11  C   LIG     1      16.376  37.789  23.526  1.00  0.00     0.176 C 
HETATM   12  O   LIG     1      16.885  37.563  24.653  1.00  0.00    -0.646 OA
BRANCH  11  13
HETATM   13  O   LIG     1      15.028  38.138  23.458  1.00  0.00    -0.773 OA
HETATM   14  H   LIG     1      14.296  37.501  23.751  1.00  0.00     0.167 HD
ENDBRANCH  11  13
ENDBRANCH   2  11
TORSDOF 3
ENDMDL
MODEL 2
REMARK VINA RESULT:      -7.6      2.356      3.466
REMARK  3 active torsions:
REMARK  status: ('A' for Active; 'I' for Inactive)
REMARK    1  A    between atoms: C_2  and  C_5 
REMARK    2  A    between atoms: C_6  and  C_7 
REMARK    3  A    between atoms: C_7  and  O_8 
ROOT
HETATM    1  C   LIG     1      17.151  36.031  23.760  1.00  0.00     0.064 A 
HETATM    2  C   LIG     1      17.568  37.311  24.231  1.00  0.00     0.052 A 
HETATM    3  C   LIG     1      18.063  37.434  25.542  1.00  0.00     0.019 A 
HETATM    4  C   LIG     1      18.139  36.326  26.385  1.00  0.00     0.001 A 
HETATM    5  C   LIG     1      17.723  35.076  25.933  1.00  0.00     0.001 A 
HETATM    6  C   LIG     1      17.234  34.927  24.636  1.00  0.00     0.017 A 
ENDROOT
BRANCH   1   7
HETATM    7  C   LIG     1      16.649  35.819  22.343  1.00  0.00     0.418 C 
HETATM    8  F   LIG     1      15.537  36.608  22.110  1.00  0.00    -0.166 F 
HETATM    9  F   LIG     1      17.610  36.156  21.404  1.00  0.00    -0.166 F 
HETATM   10  F   LIG     1      16.319  34.489  22.159  1.00  0.00    -0.166 F 
ENDBRANCH   1   7
BRANCH   2  11
HETATM   11  C   LIG     1      17.510  38.534  23.393  1.00  0.00     0.176 C 
HETATM   12  O   LIG     1      16.492  39.272  23.408  1.00  0.00    -0.646 OA
BRANCH  11  13
HETATM   13  O   LIG     1      18.594  38.904  22.599  1.00  0.00    -0.773 OA
HETATM   14  H   LIG     1      18.947  38.304  21.864  1.00  0.00     0.167 HD
ENDBRANCH  11  13
ENDBRANCH   2  11
TORSDOF 3
ENDMDL
MODEL 3
REMARK VINA RESULT:      -7.2      2.340      3.111
REMARK  3 active torsions:
REMARK  status: ('A' for Active; 'I' for Inactive)
REMARK    1  A    between atoms: C_2  and  C_5 
REMARK    2  A    between atoms: C_6  and  C_7 
REMARK    3  A    between atoms: C_7  and  O_8 
ROOT
HETATM    1  C   LIG     1      17.751  38.164  21.598  1.00  0.00     0.064 A 
HETATM    2  C   LIG     1      17.817  36.938  20.873  1.00  0.00     0.052 A 
HETATM    3  C   LIG     1      18.723  36.819  19.804  1.00  0.00     0.019 A 
HETATM    4  C   LIG     1      19.544  37.885  19.440  1.00  0.00     0.001 A 
HETATM    5  C   LIG     1      19.476  39.088  20.138  1.00  0.00     0.001 A 
HETATM    6  C   LIG     1      18.590  39.229  21.205  1.00  0.00     0.017 A 
ENDROOT
BRANCH   1   7
HETATM    7  C   LIG     1      16.829  38.346  22.790  1.00  0.00     0.418 C 
HETATM    8  F   LIG     1      16.795  39.677  23.165  1.00  0.00    -0.166 F 
HETATM    9  F   LIG     1      15.532  37.956  22.498  1.00  0.00    -0.166 F 
HETATM   10  F   LIG     1      17.278  37.578  23.848  1.00  0.00    -0.166 F 
ENDBRANCH   1   7
BRANCH   2  11
HETATM   11  C   LIG     1      16.970  35.764  21.199  1.00  0.00     0.176 C 
HETATM   12  O   LIG     1      17.287  34.987  22.135  1.00  0.00    -0.646 OA
BRANCH  11  13
HETATM   13  O   LIG     1      15.790  35.522  20.497  1.00  0.00    -0.773 OA
HETATM   14  H   LIG     1      15.595  35.972  19.611  1.00  0.00     0.167 HD
ENDBRANCH  11  13
ENDBRANCH   2  11
TORSDOF 3
ENDMDL
MODEL 4
REMARK VINA RESULT:      -7.1      2.684      3.681
REMARK  3 active torsions:
REMARK  status: ('A' for Active; 'I' for Inactive)
REMARK    1  A    between atoms: C_2  and  C_5 
REMARK    2  A    between atoms: C_6  and  C_7 
REMARK    3  A    between atoms: C_7  and  O_8 
ROOT
HETATM    1  C   LIG     1      17.495  37.550  22.329  1.00  0.00     0.064 A 
HETATM    2  C   LIG     1      17.372  36.941  23.614  1.00  0.00     0.052 A 
HETATM    3  C   LIG     1      17.019  35.583  23.700  1.00  0.00     0.019 A 
HETATM    4  C   LIG     1      16.777  34.832  22.551  1.00  0.00     0.001 A 
HETATM    5  C   LIG     1      16.886  35.424  21.295  1.00  0.00     0.001 A 
HETATM    6  C   LIG     1      17.240  36.768  21.182  1.00  0.00     0.017 A 
ENDROOT
BRANCH   1   7
HETATM    7  C   LIG     1      17.916  38.998  22.162  1.00  0.00     0.418 C 
HETATM    8  F   LIG     1      17.969  39.326  20.819  1.00  0.00    -0.166 F 
HETATM    9  F   LIG     1      17.024  39.865  22.772  1.00  0.00    -0.166 F 
HETATM   10  F   LIG     1      19.159  39.192  22.735  1.00  0.00    -0.166 F 
ENDBRANCH   1   7
BRANCH   2  11
HETATM   11  C   LIG     1      17.607  37.680  24.879  1.00  0.00     0.176 C 
HETATM   12  O   LIG     1      16.701  38.392  25.381  1.00  0.00    -0.646 OA
BRANCH  11  13
HETATM   13  O   LIG     1      18.824  37.571  25.550  1.00  0.00    -0.773 OA
HETATM   14  H   LIG     1      19.433  36.772  25.425  1.00  0.00     0.167 HD
ENDBRANCH  11  13
ENDBRANCH   2  11
TORSDOF 3
ENDMDL
MODEL 5
REMARK VINA RESULT:      -7.0      2.978      4.371
REMARK  3 active torsions:
REMARK  status: ('A' for Active; 'I' for Inactive)
REMARK    1  A    between atoms: C_2  and  C_5 
REMARK    2  A    between atoms: C_6  and  C_7 
REMARK    3  A    between atoms: C_7  and  O_8 
ROOT
HETATM    1  C   LIG     1      17.108  37.152  23.981  1.00  0.00     0.064 A 
HETATM    2  C   LIG     1      17.047  35.752  23.715  1.00  0.00     0.052 A 
HETATM    3  C   LIG     1      17.410  34.843  24.725  1.00  0.00     0.019 A 
HETATM    4  C   LIG     1      17.838  35.294  25.973  1.00  0.00     0.001 A 
HETATM    5  C   LIG     1      17.910  36.660  26.234  1.00  0.00     0.001 A 
HETATM    6  C   LIG     1      17.550  37.581  25.251  1.00  0.00     0.017 A 
ENDROOT
BRANCH   1   7
HETATM    7  C   LIG     1      16.688  38.186  22.952  1.00  0.00     0.418 C 
HETATM    8  F   LIG     1      15.346  38.039  22.652  1.00  0.00    -0.166 F 
HETATM    9  F   LIG     1      16.877  39.477  23.417  1.00  0.00    -0.166 F 
HETATM   10  F   LIG     1      17.439  38.031  21.802  1.00  0.00    -0.166 F 
ENDBRANCH   1   7
BRANCH   2  11
HETATM   11  C   LIG     1      16.608  35.201  22.410  1.00  0.00     0.176 C 
HETATM   12  O   LIG     1      15.440  34.757  22.263  1.00  0.00    -0.646 OA
BRANCH  11  13
HETATM   13  O   LIG     1      17.470  35.194  21.314  1.00  0.00    -0.773 OA
HETATM   14  H   LIG     1      18.410  34.821  21.378  1.00  0.00     0.167 HD
ENDBRANCH  11  13
ENDBRANCH   2  11
TORSDOF 3
ENDMDL
MODEL 6
REMARK VINA RESULT:      -6.9      3.780      4.803
REMARK  3 active torsions:
REMARK  status: ('A' for Active; 'I' for Inactive)
REMARK    1  A    between atoms: C_2  and  C_5 
REMARK    2  A    between atoms: C_6  and  C_7 
REMARK    3  A    between atoms: C_7  and  O_8 
ROOT
HETATM    1  C   LIG     1      18.049  38.177  21.335  1.00  0.00     0.064 A 
HETATM    2  C   LIG     1      18.006  36.913  20.675  1.00  0.00     0.052 A 
HETATM    3  C   LIG     1      17.227  35.877  21.222  1.00  0.00     0.019 A 
HETATM    4  C   LIG     1      16.511  36.067  22.402  1.00  0.00     0.001 A 
HETATM    5  C   LIG     1      16.558  37.295  23.057  1.00  0.00     0.001 A 
HETATM    6  C   LIG     1      17.318  38.340  22.532  1.00  0.00     0.017 A 
ENDROOT
BRANCH   1   7
HETATM    7  C   LIG     1      18.832  39.350  20.776  1.00  0.00     0.418 C 
HETATM    8  F   LIG     1      20.177  39.034  20.707  1.00  0.00    -0.166 F 
HETATM    9  F   LIG     1      18.412  39.685  19.500  1.00  0.00    -0.166 F 
HETATM   10  F   LIG     1      18.658  40.456  21.588  1.00  0.00    -0.166 F 
ENDBRANCH   1   7
BRANCH   2  11
HETATM   11  C   LIG     1      18.747  36.637  19.419  1.00  0.00     0.176 C 
HETATM   12  O   LIG     1      18.190  36.785  18.302  1.00  0.00    -0.646 OA
BRANCH  11  13
HETATM   13  O   LIG     1      20.083  36.240  19.455  1.00  0.00    -0.773 OA
HETATM   14  H   LIG     1      20.491  35.674  18.721  1.00  0.00     0.167 HD
ENDBRANCH  11  13
ENDBRANCH   2  11
TORSDOF 3
ENDMDL
MODEL 7
REMARK VINA RESULT:      -6.7      2.861      3.738
REMARK  3 active torsions:
REMARK  status: ('A' for Active; 'I' for Inactive)
REMARK    1  A    between atoms: C_2  and  C_5 
REMARK    2  A    between atoms: C_6  and  C_7 
REMARK    3  A    between atoms: C_7  and  O_8 
ROOT
HETATM    1  C   LIG     1      18.471  37.819  20.656  1.00  0.00     0.064 A 
HETATM    2  C   LIG     1      17.443  37.078  21.311  1.00  0.00     0.052 A 
HETATM    3  C   LIG     1      16.748  37.665  22.383  1.00  0.00     0.019 A 
HETATM    4  C   LIG     1      17.059  38.952  22.818  1.00  0.00     0.001 A 
HETATM    5  C   LIG     1      18.068  39.676  22.189  1.00  0.00     0.001 A 
HETATM    6  C   LIG     1      18.769  39.119  21.120  1.00  0.00     0.017 A 
ENDROOT
BRANCH   1   7
HETATM    7  C   LIG     1      19.229  37.263  19.465  1.00  0.00     0.418 C 
HETATM    8  F   LIG     1      19.783  36.036  19.784  1.00  0.00    -0.166 F 
HETATM    9  F   LIG     1      18.401  37.080  18.370  1.00  0.00    -0.166 F 
HETATM   10  F   LIG     1      20.233  38.141  19.099  1.00  0.00    -0.166 F 
ENDBRANCH   1   7
BRANCH   2  11
HETATM   11  C   LIG     1      17.063  35.702  20.907  1.00  0.00     0.176 C 
HETATM   12  O   LIG     1      17.325  34.722  21.650  1.00  0.00    -0.646 OA
BRANCH  11  13
HETATM   13  O   LIG     1      16.380  35.474  19.714  1.00  0.00    -0.773 OA
HETATM   14  H   LIG     1      16.338  34.554  19.290  1.00  0.00     0.167 HD
ENDBRANCH  11  13
ENDBRANCH   2  11
TORSDOF 3
ENDMDL
MODEL 8
REMARK VINA RESULT:      -6.5      7.350      8.437
REMARK  3 active torsions:
REMARK  status: ('A' for Active; 'I' for Inactive)
REMARK    1  A    between atoms: C_2  and  C_5 
REMARK    2  A    between atoms: C_6  and  C_7 
REMARK    3  A    between atoms: C_7  and  O_8 
ROOT
HETATM    1  C   LIG     1      14.403  31.351  15.665  1.00  0.00     0.064 A 
HETATM    2  C   LIG     1      15.261  32.481  15.809  1.00  0.00     0.052 A 
HETATM    3  C   LIG     1      16.219  32.749  14.814  1.00  0.00     0.019 A 
HETATM    4  C   LIG     1      16.346  31.919  13.701  1.00  0.00     0.001 A 
HETATM    5  C   LIG     1      15.517  30.809  13.561  1.00  0.00     0.001 A 
HETATM    6  C   LIG     1      14.555  30.525  14.530  1.00  0.00     0.017 A 
ENDROOT
BRANCH   1   7
HETATM    7  C   LIG     1      13.318  31.030  16.677  1.00  0.00     0.418 C 
HETATM    8  F   LIG     1      13.888  30.651  17.879  1.00  0.00    -0.166 F 
HETATM    9  F   LIG     1      12.506  32.125  16.922  1.00  0.00    -0.166 F 
HETATM   10  F   LIG     1      12.523  30.005  16.199  1.00  0.00    -0.166 F 
ENDBRANCH   1   7
BRANCH   2  11
HETATM   11  C   LIG     1      15.188  33.403  16.969  1.00  0.00     0.176 C 
HETATM   12  O   LIG     1      15.700  33.085  18.072  1.00  0.00    -0.646 OA
BRANCH  11  13
HETATM   13  O   LIG     1      14.580  34.652  16.848  1.00  0.00    -0.773 OA
HETATM   14  H   LIG     1      14.360  35.219  17.658  1.00  0.00     0.167 HD
ENDBRANCH  11  13
ENDBRANCH   2  11
TORSDOF 3
ENDMDL
MODEL 9
REMARK VINA RESULT:      -6.4      7.459      8.813
REMARK  3 active torsions:
REMARK  status: ('A' for Active; 'I' for Inactive)
REMARK    1  A    between atoms: C_2  and  C_5 
REMARK    2  A    between atoms: C_6  and  C_7 
REMARK    3  A    between atoms: C_7  and  O_8 
ROOT
HETATM    1  C   LIG     1      15.591  31.775  15.016  1.00  0.00     0.064 A 
HETATM    2  C   LIG     1      14.712  31.935  16.128  1.00  0.00     0.052 A 
HETATM    3  C   LIG     1      13.603  31.081  16.257  1.00  0.00     0.019 A 
HETATM    4  C   LIG     1      13.348  30.091  15.309  1.00  0.00     0.001 A 
HETATM    5  C   LIG     1      14.196  29.937  14.216  1.00  0.00     0.001 A 
HETATM    6  C   LIG     1      15.307  30.768  14.068  1.00  0.00     0.017 A 
ENDROOT
BRANCH   1   7
HETATM    7  C   LIG     1      16.831  32.632  14.839  1.00  0.00     0.418 C 
HETATM    8  F   LIG     1      17.193  32.674  13.505  1.00  0.00    -0.166 F 
HETATM    9  F   LIG     1      16.616  33.935  15.258  1.00  0.00    -0.166 F 
HETATM   10  F   LIG     1      17.870  32.109  15.585  1.00  0.00    -0.166 F 
ENDBRANCH   1   7
BRANCH   2  11
HETATM   11  C   LIG     1      14.917  32.970  17.171  1.00  0.00     0.176 C 
HETATM   12  O   LIG     1      15.670  32.748  18.154  1.00  0.00    -0.646 OA
BRANCH  11  13
HETATM   13  O   LIG     1      14.306  34.218  17.065  1.00  0.00    -0.773 OA
HETATM   14  H   LIG     1      13.621  34.417  16.345  1.00  0.00     0.167 HD
ENDBRANCH  11  13
ENDBRANCH   2  11
TORSDOF 3
ENDMDL
MODEL 10
REMARK VINA RESULT:      -6.4      8.628      9.734
REMARK  3 active torsions:
REMARK  status: ('A' for Active; 'I' for Inactive)
REMARK    1  A    between atoms: C_2  and  C_5 
REMARK    2  A    between atoms: C_6  and  C_7 
REMARK    3  A    between atoms: C_7  and  O_8 
ROOT
HETATM    1  C   LIG     1      14.477  30.780  15.142  1.00  0.00     0.064 A 
HETATM    2  C   LIG     1      15.242  31.939  15.468  1.00  0.00     0.052 A 
HETATM    3  C   LIG     1      14.783  32.804  16.478  1.00  0.00     0.019 A 
HETATM    4  C   LIG     1      13.590  32.549  17.151  1.00  0.00     0.001 A 
HETATM    5  C   LIG     1      12.834  31.424  16.829  1.00  0.00     0.001 A 
HETATM    6  C   LIG     1      13.270  30.548  15.836  1.00  0.00     0.017 A 
ENDROOT
BRANCH   1   7
HETATM    7  C   LIG     1      14.936  29.782  14.095  1.00  0.00     0.418 C 
HETATM    8  F   LIG     1      15.238  30.437  12.914  1.00  0.00    -0.166 F 
HETATM    9  F   LIG     1      16.070  29.099  14.501  1.00  0.00    -0.166 F 
HETATM   10  F   LIG     1      13.937  28.854  13.866  1.00  0.00    -0.166 F 
ENDBRANCH   1   7
BRANCH   2  11
HETATM   11  C   LIG     1      16.517  32.278  14.789  1.00  0.00     0.176 C 
HETATM   12  O   LIG     1      17.611  31.844  15.231  1.00  0.00    -0.646 OA
BRANCH  11  13
HETATM   13  O   LIG     1      16.522  33.054  13.632  1.00  0.00    -0.773 OA
HETATM   14  H   LIG     1      15.691  33.536  13.310  1.00  0.00     0.167 HD
ENDBRANCH  11  13
ENDBRANCH   2  11
TORSDOF 3
ENDMDL
MODEL 11
REMARK VINA RESULT:      -6.3      7.940      9.214
REMARK  3 active torsions:
REMARK  status: ('A' for Active; 'I' for Inactive)
REMARK    1  A    between atoms: C_2  and  C_5 
REMARK    2  A    between atoms: C_6  and  C_7 
REMARK    3  A    between atoms: C_7  and  O_8 
ROOT
HETATM    1  C   LIG     1      14.629  31.496  15.822  1.00  0.00     0.064 A 
HETATM    2  C   LIG     1      15.640  31.537  14.816  1.00  0.00     0.052 A 
HETATM    3  C   LIG     1      15.583  30.625  13.747  1.00  0.00     0.019 A 
HETATM    4  C   LIG     1      14.562  29.680  13.666  1.00  0.00     0.001 A 
HETATM    5  C   LIG     1      13.579  29.629  14.650  1.00  0.00     0.001 A 
HETATM    6  C   LIG     1      13.609  30.526  15.718  1.00  0.00     0.017 A 
ENDROOT
BRANCH   1   7
HETATM    7  C   LIG     1      14.604  32.478  16.979  1.00  0.00     0.418 C 
HETATM    8  F   LIG     1      14.526  33.774  16.499  1.00  0.00    -0.166 F 
HETATM    9  F   LIG     1      13.514  32.268  17.806  1.00  0.00    -0.166 F 
HETATM   10  F   LIG     1      15.751  32.335  17.738  1.00  0.00    -0.166 F 
ENDBRANCH   1   7
BRANCH   2  11
HETATM   11  C   LIG     1      16.759  32.510  14.841  1.00  0.00     0.176 C 
HETATM   12  O   LIG     1      17.826  32.243  15.451  1.00  0.00    -0.646 OA
BRANCH  11  13
HETATM   13  O   LIG     1      16.662  33.723  14.162  1.00  0.00    -0.773 OA
HETATM   14  H   LIG     1      16.557  33.764  13.155  1.00  0.00     0.167 HD
ENDBRANCH  11  13
ENDBRANCH   2  11
TORSDOF 3
ENDMDL
MODEL 12
REMARK VINA RESULT:      -6.2      2.855      3.899
REMARK  3 active torsions:
REMARK  status: ('A' for Active; 'I' for Inactive)
REMARK    1  A    between atoms: C_2  and  C_5 
REMARK    2  A    between atoms: C_6  and  C_7 
REMARK    3  A    between atoms: C_7  and  O_8 
ROOT
HETATM    1  C   LIG     1      17.290  37.462  22.483  1.00  0.00     0.064 A 
HETATM    2  C   LIG     1      18.027  37.771  21.302  1.00  0.00     0.052 A 
HETATM    3  C   LIG     1      17.978  36.888  20.208  1.00  0.00     0.019 A 
HETATM    4  C   LIG     1      17.229  35.714  20.270  1.00  0.00     0.001 A 
HETATM    5  C   LIG     1      16.515  35.402  21.425  1.00  0.00     0.001 A 
HETATM    6  C   LIG     1      16.543  36.264  22.520  1.00  0.00     0.017 A 
ENDROOT
BRANCH   1   7
HETATM    7  C   LIG     1      17.263  38.392  23.682  1.00  0.00     0.418 C 
HETATM    8  F   LIG     1      18.497  38.395  24.308  1.00  0.00    -0.166 F 
HETATM    9  F   LIG     1      16.974  39.695  23.312  1.00  0.00    -0.166 F 
HETATM   10  F   LIG     1      16.293  37.975  24.574  1.00  0.00    -0.166 F 
ENDBRANCH   1   7
BRANCH   2  11
HETATM   11  C   LIG     1      18.851  38.998  21.167  1.00  0.00     0.176 C 
HETATM   12  O   LIG     1      18.629  39.819  20.241  1.00  0.00    -0.646 OA
BRANCH  11  13
HETATM   13  O   LIG     1      19.863  39.280  22.084  1.00  0.00    -0.773 OA
HETATM   14  H   LIG     1      20.595  39.949  21.880  1.00  0.00     0.167 HD
ENDBRANCH  11  13
ENDBRANCH   2  11
TORSDOF 3
ENDMDL
MODEL 13
REMARK VINA RESULT:      -6.2      7.682      8.961
REMARK  3 active torsions:
REMARK  status: ('A' for Active; 'I' for Inactive)
REMARK    1  A    between atoms: C_2  and  C_5 
REMARK    2  A    between atoms: C_6  and  C_7 
REMARK    3  A    between atoms: C_7  and  O_8 
ROOT
HETATM    1  C   LIG     1      15.192  31.826  15.393  1.00  0.00     0.064 A 
HETATM    2  C   LIG     1      14.092  31.068  15.893  1.00  0.00     0.052 A 
HETATM    3  C   LIG     1      13.639  29.953  15.166  1.00  0.00     0.019 A 
HETATM    4  C   LIG     1      14.241  29.589  13.963  1.00  0.00     0.001 A 
HETATM    5  C   LIG     1      15.309  30.332  13.465  1.00  0.00     0.001 A 
HETATM    6  C   LIG     1      15.781  31.439  14.170  1.00  0.00     0.017 A 
ENDROOT
BRANCH   1   7
HETATM    7  C   LIG     1      15.761  33.013  16.148  1.00  0.00     0.418 C 
HETATM    8  F   LIG     1      14.776  33.964  16.350  1.00  0.00    -0.166 F 
HETATM    9  F   LIG     1      16.250  32.643  17.390  1.00  0.00    -0.166 F 
HETATM   10  F   LIG     1      16.801  33.570  15.428  1.00  0.00    -0.166 F 
ENDBRANCH   1   7
BRANCH   2  11
HETATM   11  C   LIG     1      13.398  31.400  17.161  1.00  0.00     0.176 C 
HETATM   12  O   LIG     1      13.876  31.036  18.266  1.00  0.00    -0.646 OA
BRANCH  11  13
HETATM   13  O   LIG     1      12.222  32.148  17.153  1.00  0.00    -0.773 OA
HETATM   14  H   LIG     1      11.402  31.847  16.641  1.00  0.00     0.167 HD
ENDBRANCH  11  13
ENDBRANCH   2  11
TORSDOF 3
ENDMDL
MODEL 14
REMARK VINA RESULT:      -6.0      2.919      3.727
REMARK  3 active torsions:
REMARK  status: ('A' for Active; 'I' for Inactive)
REMARK    1  A    between atoms: C_2  and  C_5 
REMARK    2  A    between atoms: C_6  and  C_7 
REMARK    3  A    between atoms: C_7  and  O_8 
ROOT
HETATM    1  C   LIG     1      17.882  37.450  20.996  1.00  0.00     0.064 A 
HETATM    2  C   LIG     1      18.470  38.749  20.972  1.00  0.00     0.052 A 
HETATM    3  C   LIG     1      18.218  39.637  22.033  1.00  0.00     0.019 A 
HETATM    4  C   LIG     1      17.395  39.268  23.096  1.00  0.00     0.001 A 
HETATM    5  C   LIG     1      16.810  38.005  23.118  1.00  0.00     0.001 A 
HETATM    6  C   LIG     1      17.049  37.103  22.081  1.00  0.00     0.017 A 
ENDROOT
BRANCH   1   7
HETATM    7  C   LIG     1      18.147  36.426  19.907  1.00  0.00     0.418 C 
HETATM    8  F   LIG     1      17.297  35.345  20.054  1.00  0.00    -0.166 F 
HETATM    9  F   LIG     1      17.940  36.956  18.644  1.00  0.00    -0.166 F 
HETATM   10  F   LIG     1      19.459  35.996  19.981  1.00  0.00    -0.166 F 
ENDBRANCH   1   7
BRANCH   2  11
HETATM   11  C   LIG     1      19.350  39.213  19.871  1.00  0.00     0.176 C 
HETATM   12  O   LIG     1      20.588  38.995  19.907  1.00  0.00    -0.646 OA
BRANCH  11  13
HETATM   13  O   LIG     1      18.816  39.869  18.763  1.00  0.00    -0.773 OA
HETATM   14  H   LIG     1      18.765  40.880  18.715  1.00  0.00     0.167 HD
ENDBRANCH  11  13
ENDBRANCH   2  11
TORSDOF 3
ENDMDL
MODEL 15
REMARK VINA RESULT:      -5.6      8.479      9.755
REMARK  3 active torsions:
REMARK  status: ('A' for Active; 'I' for Inactive)
REMARK    1  A    between atoms: C_2  and  C_5 
REMARK    2  A    between atoms: C_6  and  C_7 
REMARK    3  A    between atoms: C_7  and  O_8 
ROOT
HETATM    1  C   LIG     1      15.283  32.097  15.622  1.00  0.00     0.064 A 
HETATM    2  C   LIG     1      14.716  30.888  15.120  1.00  0.00     0.052 A 
HETATM    3  C   LIG     1      13.479  30.447  15.625  1.00  0.00     0.019 A 
HETATM    4  C   LIG     1      12.811  31.169  16.613  1.00  0.00     0.001 A 
HETATM    5  C   LIG     1      13.366  32.344  17.113  1.00  0.00     0.001 A 
HETATM    6  C   LIG     1      14.588  32.806  16.625  1.00  0.00     0.017 A 
ENDROOT
BRANCH   1   7
HETATM    7  C   LIG     1      16.591  32.653  15.090  1.00  0.00     0.418 C 
HETATM    8  F   LIG     1      16.559  32.702  13.707  1.00  0.00    -0.166 F 
HETATM    9  F   LIG     1      16.827  33.937  15.552  1.00  0.00    -0.166 F 
HETATM   10  F   LIG     1      17.640  31.852  15.500  1.00  0.00    -0.166 F 
ENDBRANCH   1   7
BRANCH   2  11
HETATM   11  C   LIG     1      15.372  30.065  14.075  1.00  0.00     0.176 C 
HETATM   12  O   LIG     1      16.024  29.036  14.387  1.00  0.00    -0.646 OA
BRANCH  11  13
HETATM   13  O   LIG     1      15.251  30.399  12.727  1.00  0.00    -0.773 OA
HETATM   14  H   LIG     1      14.354  30.404  12.257  1.00  0.00     0.167 HD
ENDBRANCH  11  13
ENDBRANCH   2  11
TORSDOF 3
ENDMDL
MODEL 16
REMARK VINA RESULT:      -5.5      7.748      8.695
REMARK  3 active torsions:
REMARK  status: ('A' for Active; 'I' for Inactive)
REMARK    1  A    between atoms: C_2  and  C_5 
REMARK    2  A    between atoms: C_6  and  C_7 
REMARK    3  A    between atoms: C_7  and  O_8 
ROOT
HETATM    1  C   LIG     1      15.224  31.681  15.089  1.00  0.00     0.064 A 
HETATM    2  C   LIG     1      14.731  32.264  16.293  1.00  0.00     0.052 A 
HETATM    3  C   LIG     1      15.319  33.447  16.777  1.00  0.00     0.019 A 
HETATM    4  C   LIG     1      16.381  34.045  16.101  1.00  0.00     0.001 A 
HETATM    5  C   LIG     1      16.873  33.475  14.930  1.00  0.00     0.001 A 
HETATM    6  C   LIG     1      16.303  32.305  14.427  1.00  0.00     0.017 A 
ENDROOT
BRANCH   1   7
HETATM    7  C   LIG     1      14.607  30.431  14.488  1.00  0.00     0.418 C 
HETATM    8  F   LIG     1      15.193  29.303  15.033  1.00  0.00    -0.166 F 
HETATM    9  F   LIG     1      13.246  30.362  14.737  1.00  0.00    -0.166 F 
HETATM   10  F   LIG     1      14.792  30.432  13.118  1.00  0.00    -0.166 F 
ENDBRANCH   1   7
BRANCH   2  11
HETATM   11  C   LIG     1      13.609  31.679  17.069  1.00  0.00     0.176 C 
HETATM   12  O   LIG     1      13.795  30.676  17.805  1.00  0.00    -0.646 OA
BRANCH  11  13
HETATM   13  O   LIG     1      12.338  32.249  17.021  1.00  0.00    -0.773 OA
HETATM   14  H   LIG     1      11.609  31.877  16.425  1.00  0.00     0.167 HD
ENDBRANCH  11  13
ENDBRANCH   2  11
TORSDOF 3
ENDMDL
MODEL 17
REMARK VINA RESULT:      -5.4      8.165      9.299
REMARK  3 active torsions:
REMARK  status: ('A' for Active; 'I' for Inactive)
REMARK    1  A    between atoms: C_2  and  C_5 
REMARK    2  A    between atoms: C_6  and  C_7 
REMARK    3  A    between atoms: C_7  and  O_8 
ROOT
HETATM    1  C   LIG     1      14.784  31.885  16.002  1.00  0.00     0.064 A 
HETATM    2  C   LIG     1      14.792  31.075  14.828  1.00  0.00     0.052 A 
HETATM    3  C   LIG     1      15.715  31.356  13.804  1.00  0.00     0.019 A 
HETATM    4  C   LIG     1      16.609  32.419  13.919  1.00  0.00     0.001 A 
HETATM    5  C   LIG     1      16.598  33.220  15.059  1.00  0.00     0.001 A 
HETATM    6  C   LIG     1      15.697  32.958  16.090  1.00  0.00     0.017 A 
ENDROOT
BRANCH   1   7
HETATM    7  C   LIG     1      13.847  31.609  17.163  1.00  0.00     0.418 C 
HETATM    8  F   LIG     1      13.782  30.249  17.409  1.00  0.00    -0.166 F 
HETATM    9  F   LIG     1      14.275  32.228  18.325  1.00  0.00    -0.166 F 
HETATM   10  F   LIG     1      12.583  32.086  16.866  1.00  0.00    -0.166 F 
ENDBRANCH   1   7
BRANCH   2  11
HETATM   11  C   LIG     1      13.866  29.932  14.633  1.00  0.00     0.176 C 
HETATM   12  O   LIG     1      14.309  28.793  14.338  1.00  0.00    -0.646 OA
BRANCH  11  13
HETATM   13  O   LIG     1      12.493  30.092  14.807  1.00  0.00    -0.773 OA
HETATM   14  H   LIG     1      11.842  29.990  14.037  1.00  0.00     0.167 HD
ENDBRANCH  11  13
ENDBRANCH   2  11
TORSDOF 3
ENDMDL
