MODEL 1
REMARK VINA RESULT:      -6.1      0.000      0.000
REMARK  1 active torsions:
REMARK  status: ('A' for Active; 'I' for Inactive)
REMARK    1  A    between atoms: C_19  and  O_22 
ROOT
HETATM    1  O   LIG     1      27.139  32.561  37.744  1.00  0.00    -0.293 OA
HETATM    2  C   LIG     1      27.198  31.561  36.981  1.00  0.00     0.149 C 
HETATM    3  C   LIG     1      25.928  30.924  36.500  1.00  0.00     0.084 C 
HETATM    4  C   LIG     1      26.168  30.059  35.254  1.00  0.00     0.022 C 
HETATM    5  C   LIG     1      27.396  29.110  35.406  1.00  0.00    -0.016 C 
HETATM    6  C   LIG     1      27.105  28.053  36.499  1.00  0.00     0.020 C 
HETATM    7  C   LIG     1      28.629  29.918  35.840  1.00  0.00    -0.068 C 
HETATM    8  C   LIG     1      29.995  29.497  35.323  1.00  0.00     0.035 C 
HETATM    9  C   LIG     1      30.036  29.434  33.774  1.00  0.00     0.010 C 
HETATM   10  C   LIG     1      28.626  29.296  33.153  1.00  0.00    -0.004 C 
HETATM   11  C   LIG     1      27.733  28.384  34.050  1.00  0.00     0.002 C 
HETATM   12  C   LIG     1      26.529  27.816  33.255  1.00  0.00     0.007 C 
HETATM   13  C   LIG     1      26.983  26.922  32.063  1.00  0.00     0.014 C 
HETATM   14  C   LIG     1      28.327  27.382  31.390  1.00  0.00     0.003 C 
HETATM   15  C   LIG     1      29.510  26.499  31.915  1.00  0.00     0.020 C 
HETATM   16  C   LIG     1      28.557  28.879  31.660  1.00  0.00     0.002 C 
HETATM   17  C   LIG     1      29.649  29.315  30.688  1.00  0.00     0.010 C 
HETATM   18  C   LIG     1      29.451  28.402  29.463  1.00  0.00     0.052 C 
HETATM   19  C   LIG     1      28.325  27.391  29.826  1.00  0.00     0.128 C 
HETATM   20  C   LIG     1      28.574  26.057  29.231  1.00  0.00    -0.078 C 
HETATM   21  C   LIG     1      28.775  24.972  28.743  1.00  0.00     0.015 C 
HETATM   22  C   LIG     1      28.512  31.023  36.596  1.00  0.00     0.053 C 
ENDROOT
BRANCH  19  23
HETATM   23  O   LIG     1      27.090  27.879  29.348  1.00  0.00    -0.377 OA
HETATM   24  H   LIG     1      26.687  27.185  28.760  1.00  0.00     0.211 HD
ENDBRANCH  19  23
TORSDOF 1
ENDMDL
MODEL 2
REMARK VINA RESULT:      -6.1     13.757     15.860
REMARK  1 active torsions:
REMARK  status: ('A' for Active; 'I' for Inactive)
REMARK    1  A    between atoms: C_19  and  O_22 
ROOT
HETATM    1  O   LIG     1      22.461  17.933  21.449  1.00  0.00    -0.293 OA
HETATM    2  C   LIG     1      22.948  19.084  21.293  1.00  0.00     0.149 C 
HETATM    3  C   LIG     1      23.631  19.758  22.446  1.00  0.00     0.084 C 
HETATM    4  C   LIG     1      24.545  20.897  21.970  1.00  0.00     0.022 C 
HETATM    5  C   LIG     1      23.850  21.838  20.940  1.00  0.00    -0.016 C 
HETATM    6  C   LIG     1      22.691  22.600  21.629  1.00  0.00     0.020 C 
HETATM    7  C   LIG     1      23.256  21.007  19.792  1.00  0.00    -0.068 C 
HETATM    8  C   LIG     1      23.256  21.595  18.390  1.00  0.00     0.035 C 
HETATM    9  C   LIG     1      24.677  22.016  17.936  1.00  0.00     0.010 C 
HETATM   10  C   LIG     1      25.636  22.232  19.131  1.00  0.00    -0.004 C 
HETATM   11  C   LIG     1      24.867  22.872  20.327  1.00  0.00     0.002 C 
HETATM   12  C   LIG     1      25.838  23.555  21.323  1.00  0.00     0.007 C 
HETATM   13  C   LIG     1      26.633  24.720  20.662  1.00  0.00     0.014 C 
HETATM   14  C   LIG     1      26.970  24.486  19.143  1.00  0.00     0.003 C 
HETATM   15  C   LIG     1      25.953  25.275  18.250  1.00  0.00     0.020 C 
HETATM   16  C   LIG     1      26.965  22.979  18.836  1.00  0.00     0.002 C 
HETATM   17  C   LIG     1      27.648  22.828  17.480  1.00  0.00     0.010 C 
HETATM   18  C   LIG     1      28.659  23.990  17.435  1.00  0.00     0.052 C 
HETATM   19  C   LIG     1      28.434  24.839  18.719  1.00  0.00     0.128 C 
HETATM   20  C   LIG     1      28.639  26.285  18.463  1.00  0.00    -0.078 C 
HETATM   21  C   LIG     1      28.810  27.460  18.255  1.00  0.00     0.015 C 
HETATM   22  C   LIG     1      22.815  19.752  19.990  1.00  0.00     0.053 C 
ENDROOT
BRANCH  19  23
HETATM   23  O   LIG     1      29.339  24.421  19.718  1.00  0.00    -0.377 OA
HETATM   24  H   LIG     1      28.863  23.796  20.328  1.00  0.00     0.211 HD
ENDBRANCH  19  23
TORSDOF 1
ENDMDL
MODEL 3
REMARK VINA RESULT:      -5.9     13.860     16.063
REMARK  1 active torsions:
REMARK  status: ('A' for Active; 'I' for Inactive)
REMARK    1  A    between atoms: C_19  and  O_22 
ROOT
HETATM    1  O   LIG     1      29.697  26.922  15.999  1.00  0.00    -0.293 OA
HETATM    2  C   LIG     1      29.185  26.209  16.902  1.00  0.00     0.149 C 
HETATM    3  C   LIG     1      28.702  26.854  18.167  1.00  0.00     0.084 C 
HETATM    4  C   LIG     1      27.715  25.949  18.919  1.00  0.00     0.022 C 
HETATM    5  C   LIG     1      28.222  24.480  19.049  1.00  0.00    -0.016 C 
HETATM    6  C   LIG     1      29.476  24.440  19.957  1.00  0.00     0.020 C 
HETATM    7  C   LIG     1      28.618  23.941  17.665  1.00  0.00    -0.068 C 
HETATM    8  C   LIG     1      28.379  22.471  17.361  1.00  0.00     0.035 C 
HETATM    9  C   LIG     1      26.899  22.065  17.581  1.00  0.00     0.010 C 
HETATM   10  C   LIG     1      26.154  23.044  18.519  1.00  0.00    -0.004 C 
HETATM   11  C   LIG     1      27.111  23.539  19.648  1.00  0.00     0.002 C 
HETATM   12  C   LIG     1      26.317  24.093  20.858  1.00  0.00     0.007 C 
HETATM   13  C   LIG     1      25.416  23.006  21.516  1.00  0.00     0.014 C 
HETATM   14  C   LIG     1      24.830  21.958  20.501  1.00  0.00     0.003 C 
HETATM   15  C   LIG     1      25.678  20.642  20.553  1.00  0.00     0.020 C 
HETATM   16  C   LIG     1      24.791  22.567  19.089  1.00  0.00     0.002 C 
HETATM   17  C   LIG     1      23.890  21.652  18.265  1.00  0.00     0.010 C 
HETATM   18  C   LIG     1      22.880  21.096  19.288  1.00  0.00     0.052 C 
HETATM   19  C   LIG     1      23.314  21.620  20.687  1.00  0.00     0.128 C 
HETATM   20  C   LIG     1      23.061  20.618  21.749  1.00  0.00    -0.078 C 
HETATM   21  C   LIG     1      22.852  19.804  22.614  1.00  0.00     0.015 C 
HETATM   22  C   LIG     1      29.093  24.753  16.706  1.00  0.00     0.053 C 
ENDROOT
BRANCH  19  23
HETATM   23  O   LIG     1      22.592  22.795  20.988  1.00  0.00    -0.377 OA
HETATM   24  H   LIG     1      22.633  23.397  20.198  1.00  0.00     0.211 HD
ENDBRANCH  19  23
TORSDOF 1
ENDMDL
MODEL 4
REMARK VINA RESULT:      -5.7      9.166     13.344
REMARK  1 active torsions:
REMARK  status: ('A' for Active; 'I' for Inactive)
REMARK    1  A    between atoms: C_19  and  O_22 
ROOT
HETATM    1  O   LIG     1      27.824  25.063  26.737  1.00  0.00    -0.293 OA
HETATM    2  C   LIG     1      27.197  24.268  25.988  1.00  0.00     0.149 C 
HETATM    3  C   LIG     1      25.740  24.011  26.240  1.00  0.00     0.084 C 
HETATM    4  C   LIG     1      25.052  23.418  25.002  1.00  0.00     0.022 C 
HETATM    5  C   LIG     1      25.855  22.241  24.369  1.00  0.00    -0.016 C 
HETATM    6  C   LIG     1      25.881  21.042  25.348  1.00  0.00     0.020 C 
HETATM    7  C   LIG     1      27.307  22.679  24.114  1.00  0.00    -0.068 C 
HETATM    8  C   LIG     1      28.029  22.131  22.894  1.00  0.00     0.035 C 
HETATM    9  C   LIG     1      27.251  22.411  21.583  1.00  0.00     0.010 C 
HETATM   10  C   LIG     1      25.750  22.688  21.837  1.00  0.00    -0.004 C 
HETATM   11  C   LIG     1      25.228  21.787  22.998  1.00  0.00     0.002 C 
HETATM   12  C   LIG     1      23.684  21.654  22.959  1.00  0.00     0.007 C 
HETATM   13  C   LIG     1      23.187  20.980  21.645  1.00  0.00     0.014 C 
HETATM   14  C   LIG     1      24.062  21.313  20.382  1.00  0.00     0.003 C 
HETATM   15  C   LIG     1      25.040  20.124  20.089  1.00  0.00     0.020 C 
HETATM   16  C   LIG     1      24.810  22.638  20.603  1.00  0.00     0.002 C 
HETATM   17  C   LIG     1      25.321  23.063  19.230  1.00  0.00     0.010 C 
HETATM   18  C   LIG     1      24.273  22.503  18.248  1.00  0.00     0.052 C 
HETATM   19  C   LIG     1      23.261  21.673  19.087  1.00  0.00     0.128 C 
HETATM   20  C   LIG     1      22.779  20.483  18.345  1.00  0.00    -0.078 C 
HETATM   21  C   LIG     1      22.385  19.518  17.740  1.00  0.00     0.015 C 
HETATM   22  C   LIG     1      27.913  23.588  24.897  1.00  0.00     0.053 C 
ENDROOT
BRANCH  19  23
HETATM   23  O   LIG     1      22.153  22.483  19.416  1.00  0.00    -0.377 OA
HETATM   24  H   LIG     1      21.377  21.889  19.601  1.00  0.00     0.211 HD
ENDBRANCH  19  23
TORSDOF 1
ENDMDL
MODEL 5
REMARK VINA RESULT:      -5.4     14.350     15.988
REMARK  1 active torsions:
REMARK  status: ('A' for Active; 'I' for Inactive)
REMARK    1  A    between atoms: C_19  and  O_22 
ROOT
HETATM    1  O   LIG     1      30.684  27.236  19.568  1.00  0.00    -0.293 OA
HETATM    2  C   LIG     1      29.906  26.310  19.220  1.00  0.00     0.149 C 
HETATM    3  C   LIG     1      30.464  24.951  18.916  1.00  0.00     0.084 C 
HETATM    4  C   LIG     1      29.375  23.869  18.973  1.00  0.00     0.022 C 
HETATM    5  C   LIG     1      28.085  24.270  18.194  1.00  0.00    -0.016 C 
HETATM    6  C   LIG     1      28.397  24.355  16.680  1.00  0.00     0.020 C 
HETATM    7  C   LIG     1      27.603  25.653  18.660  1.00  0.00    -0.068 C 
HETATM    8  C   LIG     1      26.108  25.924  18.710  1.00  0.00     0.035 C 
HETATM    9  C   LIG     1      25.356  24.883  19.578  1.00  0.00     0.010 C 
HETATM   10  C   LIG     1      26.159  23.571  19.750  1.00  0.00    -0.004 C 
HETATM   11  C   LIG     1      26.924  23.234  18.433  1.00  0.00     0.002 C 
HETATM   12  C   LIG     1      27.315  21.735  18.375  1.00  0.00     0.007 C 
HETATM   13  C   LIG     1      26.067  20.803  18.389  1.00  0.00     0.014 C 
HETATM   14  C   LIG     1      24.863  21.353  19.238  1.00  0.00     0.003 C 
HETATM   15  C   LIG     1      23.803  22.007  18.288  1.00  0.00     0.020 C 
HETATM   16  C   LIG     1      25.383  22.342  20.295  1.00  0.00     0.002 C 
HETATM   17  C   LIG     1      24.239  22.532  21.286  1.00  0.00     0.010 C 
HETATM   18  C   LIG     1      23.493  21.184  21.265  1.00  0.00     0.052 C 
HETATM   19  C   LIG     1      24.167  20.308  20.171  1.00  0.00     0.128 C 
HETATM   20  C   LIG     1      23.181  19.456  19.466  1.00  0.00    -0.078 C 
HETATM   21  C   LIG     1      22.378  18.761  18.895  1.00  0.00     0.015 C 
HETATM   22  C   LIG     1      28.466  26.587  19.094  1.00  0.00     0.053 C 
ENDROOT
BRANCH  19  23
HETATM   23  O   LIG     1      25.138  19.477  20.772  1.00  0.00    -0.377 OA
HETATM   24  H   LIG     1      25.016  18.554  20.423  1.00  0.00     0.211 HD
ENDBRANCH  19  23
TORSDOF 1
ENDMDL
MODEL 6
REMARK VINA RESULT:      -5.3     13.308     18.505
REMARK  1 active torsions:
REMARK  status: ('A' for Active; 'I' for Inactive)
REMARK    1  A    between atoms: C_19  and  O_22 
ROOT
HETATM    1  O   LIG     1      26.961  19.890  12.805  1.00  0.00    -0.293 OA
HETATM    2  C   LIG     1      26.797  19.800  14.051  1.00  0.00     0.149 C 
HETATM    3  C   LIG     1      27.908  20.205  14.973  1.00  0.00     0.084 C 
HETATM    4  C   LIG     1      27.390  20.474  16.394  1.00  0.00     0.022 C 
HETATM    5  C   LIG     1      26.443  19.350  16.914  1.00  0.00    -0.016 C 
HETATM    6  C   LIG     1      27.242  18.035  17.090  1.00  0.00     0.020 C 
HETATM    7  C   LIG     1      25.325  19.095  15.891  1.00  0.00    -0.068 C 
HETATM    8  C   LIG     1      23.944  18.718  16.400  1.00  0.00     0.035 C 
HETATM    9  C   LIG     1      23.389  19.761  17.404  1.00  0.00     0.010 C 
HETATM   10  C   LIG     1      24.508  20.619  18.039  1.00  0.00    -0.004 C 
HETATM   11  C   LIG     1      25.778  19.747  18.285  1.00  0.00     0.002 C 
HETATM   12  C   LIG     1      26.711  20.393  19.341  1.00  0.00     0.007 C 
HETATM   13  C   LIG     1      26.018  20.529  20.730  1.00  0.00     0.014 C 
HETATM   14  C   LIG     1      24.472  20.807  20.651  1.00  0.00     0.003 C 
HETATM   15  C   LIG     1      23.684  19.476  20.893  1.00  0.00     0.020 C 
HETATM   16  C   LIG     1      24.127  21.447  19.296  1.00  0.00     0.002 C 
HETATM   17  C   LIG     1      22.719  22.011  19.448  1.00  0.00     0.010 C 
HETATM   18  C   LIG     1      22.622  22.393  20.937  1.00  0.00     0.052 C 
HETATM   19  C   LIG     1      23.942  21.921  21.613  1.00  0.00     0.128 C 
HETATM   20  C   LIG     1      23.708  21.440  22.996  1.00  0.00    -0.078 C 
HETATM   21  C   LIG     1      23.517  21.053  24.122  1.00  0.00     0.015 C 
HETATM   22  C   LIG     1      25.525  19.276  14.574  1.00  0.00     0.053 C 
ENDROOT
BRANCH  19  23
HETATM   23  O   LIG     1      24.854  22.997  21.655  1.00  0.00    -0.377 OA
HETATM   24  H   LIG     1      24.478  23.702  22.248  1.00  0.00     0.211 HD
ENDBRANCH  19  23
TORSDOF 1
ENDMDL
MODEL 7
REMARK VINA RESULT:      -5.3      8.968     12.406
REMARK  1 active torsions:
REMARK  status: ('A' for Active; 'I' for Inactive)
REMARK    1  A    between atoms: C_19  and  O_22 
ROOT
HETATM    1  O   LIG     1      27.711  21.833  29.422  1.00  0.00    -0.293 OA
HETATM    2  C   LIG     1      27.245  22.116  28.287  1.00  0.00     0.149 C 
HETATM    3  C   LIG     1      28.170  22.597  27.209  1.00  0.00     0.084 C 
HETATM    4  C   LIG     1      27.540  22.443  25.817  1.00  0.00     0.022 C 
HETATM    5  C   LIG     1      26.077  22.978  25.753  1.00  0.00    -0.016 C 
HETATM    6  C   LIG     1      26.074  24.512  25.956  1.00  0.00     0.020 C 
HETATM    7  C   LIG     1      25.242  22.346  26.878  1.00  0.00    -0.068 C 
HETATM    8  C   LIG     1      23.777  22.041  26.614  1.00  0.00     0.035 C 
HETATM    9  C   LIG     1      23.586  21.138  25.369  1.00  0.00     0.010 C 
HETATM   10  C   LIG     1      24.803  21.187  24.415  1.00  0.00    -0.004 C 
HETATM   11  C   LIG     1      25.396  22.629  24.377  1.00  0.00     0.002 C 
HETATM   12  C   LIG     1      26.257  22.852  23.107  1.00  0.00     0.007 C 
HETATM   13  C   LIG     1      25.422  22.704  21.800  1.00  0.00     0.014 C 
HETATM   14  C   LIG     1      24.270  21.638  21.891  1.00  0.00     0.003 C 
HETATM   15  C   LIG     1      22.903  22.360  22.146  1.00  0.00     0.020 C 
HETATM   16  C   LIG     1      24.597  20.611  22.988  1.00  0.00     0.002 C 
HETATM   17  C   LIG     1      23.647  19.441  22.760  1.00  0.00     0.010 C 
HETATM   18  C   LIG     1      23.412  19.435  21.237  1.00  0.00     0.052 C 
HETATM   19  C   LIG     1      24.143  20.681  20.660  1.00  0.00     0.128 C 
HETATM   20  C   LIG     1      23.398  21.278  19.526  1.00  0.00    -0.078 C 
HETATM   21  C   LIG     1      22.793  21.760  18.601  1.00  0.00     0.015 C 
HETATM   22  C   LIG     1      25.798  21.991  28.049  1.00  0.00     0.053 C 
ENDROOT
BRANCH  19  23
HETATM   23  O   LIG     1      25.426  20.301  20.211  1.00  0.00    -0.377 OA
HETATM   24  H   LIG     1      26.043  20.303  20.992  1.00  0.00     0.211 HD
ENDBRANCH  19  23
TORSDOF 1
ENDMDL
MODEL 8
REMARK VINA RESULT:      -5.2      8.451     14.012
REMARK  1 active torsions:
REMARK  status: ('A' for Active; 'I' for Inactive)
REMARK    1  A    between atoms: C_19  and  O_22 
ROOT
HETATM    1  O   LIG     1      23.891  20.559  17.489  1.00  0.00    -0.293 OA
HETATM    2  C   LIG     1      23.894  20.941  18.689  1.00  0.00     0.149 C 
HETATM    3  C   LIG     1      23.028  20.236  19.690  1.00  0.00     0.084 C 
HETATM    4  C   LIG     1      23.496  20.506  21.128  1.00  0.00     0.022 C 
HETATM    5  C   LIG     1      23.767  22.017  21.401  1.00  0.00    -0.016 C 
HETATM    6  C   LIG     1      22.438  22.807  21.324  1.00  0.00     0.020 C 
HETATM    7  C   LIG     1      24.717  22.577  20.330  1.00  0.00    -0.068 C 
HETATM    8  C   LIG     1      25.720  23.646  20.734  1.00  0.00     0.035 C 
HETATM    9  C   LIG     1      26.613  23.190  21.915  1.00  0.00     0.010 C 
HETATM   10  C   LIG     1      25.973  22.038  22.725  1.00  0.00    -0.004 C 
HETATM   11  C   LIG     1      24.428  22.237  22.813  1.00  0.00     0.002 C 
HETATM   12  C   LIG     1      23.820  21.432  23.990  1.00  0.00     0.007 C 
HETATM   13  C   LIG     1      24.383  21.894  25.367  1.00  0.00     0.014 C 
HETATM   14  C   LIG     1      25.882  22.367  25.322  1.00  0.00     0.003 C 
HETATM   15  C   LIG     1      25.940  23.932  25.283  1.00  0.00     0.020 C 
HETATM   16  C   LIG     1      26.592  21.731  24.115  1.00  0.00     0.002 C 
HETATM   17  C   LIG     1      28.085  21.935  24.355  1.00  0.00     0.010 C 
HETATM   18  C   LIG     1      28.227  21.922  25.889  1.00  0.00     0.052 C 
HETATM   19  C   LIG     1      26.790  21.831  26.478  1.00  0.00     0.128 C 
HETATM   20  C   LIG     1      26.662  22.608  27.734  1.00  0.00    -0.078 C 
HETATM   21  C   LIG     1      26.560  23.237  28.758  1.00  0.00     0.015 C 
HETATM   22  C   LIG     1      24.730  22.088  19.078  1.00  0.00     0.053 C 
ENDROOT
BRANCH  19  23
HETATM   23  O   LIG     1      26.482  20.480  26.746  1.00  0.00    -0.377 OA
HETATM   24  H   LIG     1      26.968  20.207  27.569  1.00  0.00     0.211 HD
ENDBRANCH  19  23
TORSDOF 1
ENDMDL
MODEL 9
REMARK VINA RESULT:      -5.2      9.249     14.876
REMARK  1 active torsions:
REMARK  status: ('A' for Active; 'I' for Inactive)
REMARK    1  A    between atoms: C_19  and  O_22 
ROOT
HETATM    1  O   LIG     1      22.183  20.284  17.582  1.00  0.00    -0.293 OA
HETATM    2  C   LIG     1      22.810  20.587  18.632  1.00  0.00     0.149 C 
HETATM    3  C   LIG     1      23.008  22.032  18.982  1.00  0.00     0.084 C 
HETATM    4  C   LIG     1      23.354  22.208  20.468  1.00  0.00     0.022 C 
HETATM    5  C   LIG     1      24.467  21.228  20.949  1.00  0.00    -0.016 C 
HETATM    6  C   LIG     1      25.803  21.573  20.248  1.00  0.00     0.020 C 
HETATM    7  C   LIG     1      24.090  19.786  20.573  1.00  0.00    -0.068 C 
HETATM    8  C   LIG     1      24.486  18.661  21.514  1.00  0.00     0.035 C 
HETATM    9  C   LIG     1      23.955  18.891  22.952  1.00  0.00     0.010 C 
HETATM   10  C   LIG     1      23.624  20.377  23.226  1.00  0.00    -0.004 C 
HETATM   11  C   LIG     1      24.660  21.298  22.510  1.00  0.00     0.002 C 
HETATM   12  C   LIG     1      24.685  22.715  23.138  1.00  0.00     0.007 C 
HETATM   13  C   LIG     1      25.112  22.685  24.635  1.00  0.00     0.014 C 
HETATM   14  C   LIG     1      24.643  21.400  25.411  1.00  0.00     0.003 C 
HETATM   15  C   LIG     1      25.832  20.386  25.520  1.00  0.00     0.020 C 
HETATM   16  C   LIG     1      23.420  20.787  24.709  1.00  0.00     0.002 C 
HETATM   17  C   LIG     1      22.820  19.799  25.705  1.00  0.00     0.010 C 
HETATM   18  C   LIG     1      23.150  20.404  27.083  1.00  0.00     0.052 C 
HETATM   19  C   LIG     1      24.034  21.658  26.829  1.00  0.00     0.128 C 
HETATM   20  C   LIG     1      25.059  21.829  27.886  1.00  0.00    -0.078 C 
HETATM   21  C   LIG     1      25.891  21.970  28.748  1.00  0.00     0.015 C 
HETATM   22  C   LIG     1      23.355  19.516  19.480  1.00  0.00     0.053 C 
ENDROOT
BRANCH  19  23
HETATM   23  O   LIG     1      23.215  22.807  26.800  1.00  0.00    -0.377 OA
HETATM   24  H   LIG     1      22.337  22.554  26.407  1.00  0.00     0.211 HD
ENDBRANCH  19  23
TORSDOF 1
ENDMDL
MODEL 10
REMARK VINA RESULT:      -5.0      7.634     12.773
REMARK  1 active torsions:
REMARK  status: ('A' for Active; 'I' for Inactive)
REMARK    1  A    between atoms: C_19  and  O_22 
ROOT
HETATM    1  O   LIG     1      27.299  24.682  17.528  1.00  0.00    -0.293 OA
HETATM    2  C   LIG     1      27.587  24.628  18.753  1.00  0.00     0.149 C 
HETATM    3  C   LIG     1      27.886  25.895  19.498  1.00  0.00     0.084 C 
HETATM    4  C   LIG     1      27.750  25.702  21.015  1.00  0.00     0.022 C 
HETATM    5  C   LIG     1      28.473  24.419  21.528  1.00  0.00    -0.016 C 
HETATM    6  C   LIG     1      30.002  24.574  21.343  1.00  0.00     0.020 C 
HETATM    7  C   LIG     1      28.015  23.201  20.710  1.00  0.00    -0.068 C 
HETATM    8  C   LIG     1      27.897  21.856  21.409  1.00  0.00     0.035 C 
HETATM    9  C   LIG     1      26.968  21.925  22.648  1.00  0.00     0.010 C 
HETATM   10  C   LIG     1      26.806  23.368  23.183  1.00  0.00    -0.004 C 
HETATM   11  C   LIG     1      28.152  24.145  23.045  1.00  0.00     0.002 C 
HETATM   12  C   LIG     1      28.195  25.373  23.990  1.00  0.00     0.007 C 
HETATM   13  C   LIG     1      28.097  24.961  25.489  1.00  0.00     0.014 C 
HETATM   14  C   LIG     1      27.202  23.696  25.751  1.00  0.00     0.003 C 
HETATM   15  C   LIG     1      28.112  22.433  25.931  1.00  0.00     0.020 C 
HETATM   16  C   LIG     1      26.195  23.525  24.601  1.00  0.00     0.002 C 
HETATM   17  C   LIG     1      25.153  22.531  25.104  1.00  0.00     0.010 C 
HETATM   18  C   LIG     1      25.105  22.770  26.625  1.00  0.00     0.052 C 
HETATM   19  C   LIG     1      26.211  23.813  26.956  1.00  0.00     0.128 C 
HETATM   20  C   LIG     1      26.847  23.539  28.267  1.00  0.00    -0.078 C 
HETATM   21  C   LIG     1      27.361  23.319  29.336  1.00  0.00     0.015 C 
HETATM   22  C   LIG     1      27.646  23.319  19.423  1.00  0.00     0.053 C 
ENDROOT
BRANCH  19  23
HETATM   23  O   LIG     1      25.641  25.103  26.988  1.00  0.00    -0.377 OA
HETATM   24  H   LIG     1      25.747  25.513  26.088  1.00  0.00     0.211 HD
ENDBRANCH  19  23
TORSDOF 1
ENDMDL
MODEL 11
REMARK VINA RESULT:      -5.0      2.687      8.178
REMARK  1 active torsions:
REMARK  status: ('A' for Active; 'I' for Inactive)
REMARK    1  A    between atoms: C_19  and  O_22 
ROOT
HETATM    1  O   LIG     1      27.144  20.593  26.431  1.00  0.00    -0.293 OA
HETATM    2  C   LIG     1      27.339  21.716  26.966  1.00  0.00     0.149 C 
HETATM    3  C   LIG     1      26.455  22.872  26.598  1.00  0.00     0.084 C 
HETATM    4  C   LIG     1      26.522  23.988  27.651  1.00  0.00     0.022 C 
HETATM    5  C   LIG     1      27.983  24.346  28.059  1.00  0.00    -0.016 C 
HETATM    6  C   LIG     1      28.722  24.975  26.853  1.00  0.00     0.020 C 
HETATM    7  C   LIG     1      28.737  23.071  28.468  1.00  0.00    -0.068 C 
HETATM    8  C   LIG     1      29.772  23.161  29.579  1.00  0.00     0.035 C 
HETATM    9  C   LIG     1      29.176  23.753  30.881  1.00  0.00     0.010 C 
HETATM   10  C   LIG     1      27.890  24.572  30.621  1.00  0.00    -0.004 C 
HETATM   11  C   LIG     1      28.012  25.348  29.273  1.00  0.00     0.002 C 
HETATM   12  C   LIG     1      27.014  26.533  29.211  1.00  0.00     0.007 C 
HETATM   13  C   LIG     1      27.282  27.584  30.329  1.00  0.00     0.014 C 
HETATM   14  C   LIG     1      27.816  26.969  31.674  1.00  0.00     0.003 C 
HETATM   15  C   LIG     1      29.370  27.151  31.757  1.00  0.00     0.020 C 
HETATM   16  C   LIG     1      27.400  25.491  31.772  1.00  0.00     0.002 C 
HETATM   17  C   LIG     1      27.625  25.090  33.226  1.00  0.00     0.010 C 
HETATM   18  C   LIG     1      27.384  26.389  34.018  1.00  0.00     0.052 C 
HETATM   19  C   LIG     1      27.147  27.520  32.977  1.00  0.00     0.128 C 
HETATM   20  C   LIG     1      27.718  28.811  33.429  1.00  0.00    -0.078 C 
HETATM   21  C   LIG     1      28.179  29.862  33.800  1.00  0.00     0.015 C 
HETATM   22  C   LIG     1      28.445  21.878  27.923  1.00  0.00     0.053 C 
ENDROOT
BRANCH  19  23
HETATM   23  O   LIG     1      25.760  27.683  32.774  1.00  0.00    -0.377 OA
HETATM   24  H   LIG     1      25.570  27.561  31.805  1.00  0.00     0.211 HD
ENDBRANCH  19  23
TORSDOF 1
ENDMDL
MODEL 12
REMARK VINA RESULT:      -4.9      1.686      6.807
REMARK  1 active torsions:
REMARK  status: ('A' for Active; 'I' for Inactive)
REMARK    1  A    between atoms: C_19  and  O_22 
ROOT
HETATM    1  O   LIG     1      26.489  23.850  28.524  1.00  0.00    -0.293 OA
HETATM    2  C   LIG     1      27.043  24.744  29.216  1.00  0.00     0.149 C 
HETATM    3  C   LIG     1      27.059  26.160  28.719  1.00  0.00     0.084 C 
HETATM    4  C   LIG     1      27.336  27.153  29.857  1.00  0.00     0.022 C 
HETATM    5  C   LIG     1      28.541  26.727  30.750  1.00  0.00    -0.016 C 
HETATM    6  C   LIG     1      29.849  26.788  29.923  1.00  0.00     0.020 C 
HETATM    7  C   LIG     1      28.348  25.280  31.231  1.00  0.00    -0.068 C 
HETATM    8  C   LIG     1      28.845  24.901  32.617  1.00  0.00     0.035 C 
HETATM    9  C   LIG     1      28.247  25.812  33.719  1.00  0.00     0.010 C 
HETATM   10  C   LIG     1      27.735  27.159  33.155  1.00  0.00    -0.004 C 
HETATM   11  C   LIG     1      28.676  27.655  32.015  1.00  0.00     0.002 C 
HETATM   12  C   LIG     1      28.515  29.177  31.772  1.00  0.00     0.007 C 
HETATM   13  C   LIG     1      28.897  30.015  33.029  1.00  0.00     0.014 C 
HETATM   14  C   LIG     1      28.558  29.314  34.395  1.00  0.00     0.003 C 
HETATM   15  C   LIG     1      29.854  28.666  34.990  1.00  0.00     0.020 C 
HETATM   16  C   LIG     1      27.438  28.281  34.185  1.00  0.00     0.002 C 
HETATM   17  C   LIG     1      26.928  27.931  35.579  1.00  0.00     0.010 C 
HETATM   18  C   LIG     1      27.142  29.220  36.395  1.00  0.00     0.052 C 
HETATM   19  C   LIG     1      27.880  30.228  35.468  1.00  0.00     0.128 C 
HETATM   20  C   LIG     1      28.845  31.062  36.223  1.00  0.00    -0.078 C 
HETATM   21  C   LIG     1      29.627  31.743  36.839  1.00  0.00     0.015 C 
HETATM   22  C   LIG     1      27.684  24.377  30.489  1.00  0.00     0.053 C 
ENDROOT
BRANCH  19  23
HETATM   23  O   LIG     1      26.933  31.074  34.851  1.00  0.00    -0.377 OA
HETATM   24  H   LIG     1      26.038  30.870  35.235  1.00  0.00     0.211 HD
ENDBRANCH  19  23
TORSDOF 1
ENDMDL
MODEL 13
REMARK VINA RESULT:      -4.8      2.605      4.705
REMARK  1 active torsions:
REMARK  status: ('A' for Active; 'I' for Inactive)
REMARK    1  A    between atoms: C_19  and  O_22 
ROOT
HETATM    1  O   LIG     1      26.521  29.136  35.050  1.00  0.00    -0.293 OA
HETATM    2  C   LIG     1      26.986  28.249  34.285  1.00  0.00     0.149 C 
HETATM    3  C   LIG     1      26.934  26.810  34.707  1.00  0.00     0.084 C 
HETATM    4  C   LIG     1      27.097  25.867  33.506  1.00  0.00     0.022 C 
HETATM    5  C   LIG     1      28.286  26.267  32.580  1.00  0.00    -0.016 C 
HETATM    6  C   LIG     1      29.623  26.081  33.339  1.00  0.00     0.020 C 
HETATM    7  C   LIG     1      28.163  27.747  32.185  1.00  0.00    -0.068 C 
HETATM    8  C   LIG     1      28.621  28.172  30.800  1.00  0.00     0.035 C 
HETATM    9  C   LIG     1      27.918  27.361  29.681  1.00  0.00     0.010 C 
HETATM   10  C   LIG     1      27.348  26.019  30.197  1.00  0.00    -0.004 C 
HETATM   11  C   LIG     1      28.306  25.404  31.264  1.00  0.00     0.002 C 
HETATM   12  C   LIG     1      28.059  23.883  31.434  1.00  0.00     0.007 C 
HETATM   13  C   LIG     1      28.331  23.095  30.118  1.00  0.00     0.014 C 
HETATM   14  C   LIG     1      27.977  23.890  28.808  1.00  0.00     0.003 C 
HETATM   15  C   LIG     1      29.284  24.489  28.186  1.00  0.00     0.020 C 
HETATM   16  C   LIG     1      26.934  24.975  29.125  1.00  0.00     0.002 C 
HETATM   17  C   LIG     1      26.386  25.432  27.777  1.00  0.00     0.010 C 
HETATM   18  C   LIG     1      26.482  24.180  26.886  1.00  0.00     0.052 C 
HETATM   19  C   LIG     1      27.195  23.079  27.722  1.00  0.00     0.128 C 
HETATM   20  C   LIG     1      28.071  22.231  26.879  1.00  0.00    -0.078 C 
HETATM   21  C   LIG     1      28.780  21.538  26.192  1.00  0.00     0.015 C 
HETATM   22  C   LIG     1      27.592  28.647  33.005  1.00  0.00     0.053 C 
ENDROOT
BRANCH  19  23
HETATM   23  O   LIG     1      26.224  22.260  28.338  1.00  0.00    -0.377 OA
HETATM   24  H   LIG     1      25.326  22.638  28.138  1.00  0.00     0.211 HD
ENDBRANCH  19  23
TORSDOF 1
ENDMDL
MODEL 14
REMARK VINA RESULT:      -4.8     12.018     15.917
REMARK  1 active torsions:
REMARK  status: ('A' for Active; 'I' for Inactive)
REMARK    1  A    between atoms: C_19  and  O_22 
ROOT
HETATM    1  O   LIG     1      29.101  23.406  24.018  1.00  0.00    -0.293 OA
HETATM    2  C   LIG     1      28.394  23.162  23.004  1.00  0.00     0.149 C 
HETATM    3  C   LIG     1      29.057  22.743  21.726  1.00  0.00     0.084 C 
HETATM    4  C   LIG     1      28.066  22.052  20.778  1.00  0.00     0.022 C 
HETATM    5  C   LIG     1      26.727  22.837  20.629  1.00  0.00    -0.016 C 
HETATM    6  C   LIG     1      26.990  24.187  19.918  1.00  0.00     0.020 C 
HETATM    7  C   LIG     1      26.141  23.137  22.019  1.00  0.00    -0.068 C 
HETATM    8  C   LIG     1      24.631  23.137  22.188  1.00  0.00     0.035 C 
HETATM    9  C   LIG     1      23.993  21.803  21.723  1.00  0.00     0.010 C 
HETATM   10  C   LIG     1      24.908  21.021  20.751  1.00  0.00    -0.004 C 
HETATM   11  C   LIG     1      25.663  22.012  19.812  1.00  0.00     0.002 C 
HETATM   12  C   LIG     1      26.178  21.299  18.536  1.00  0.00     0.007 C 
HETATM   13  C   LIG     1      25.015  20.714  17.681  1.00  0.00     0.014 C 
HETATM   14  C   LIG     1      23.792  20.202  18.527  1.00  0.00     0.003 C 
HETATM   15  C   LIG     1      22.655  21.280  18.516  1.00  0.00     0.020 C 
HETATM   16  C   LIG     1      24.253  19.861  19.954  1.00  0.00     0.002 C 
HETATM   17  C   LIG     1      23.124  19.044  20.573  1.00  0.00     0.010 C 
HETATM   18  C   LIG     1      22.495  18.302  19.378  1.00  0.00     0.052 C 
HETATM   19  C   LIG     1      23.212  18.815  18.096  1.00  0.00     0.128 C 
HETATM   20  C   LIG     1      22.282  18.899  16.945  1.00  0.00    -0.078 C 
HETATM   21  C   LIG     1      21.526  18.964  16.007  1.00  0.00     0.015 C 
HETATM   22  C   LIG     1      26.933  23.318  23.089  1.00  0.00     0.053 C 
ENDROOT
BRANCH  19  23
HETATM   23  O   LIG     1      24.264  17.933  17.767  1.00  0.00    -0.377 OA
HETATM   24  H   LIG     1      25.030  18.474  17.432  1.00  0.00     0.211 HD
ENDBRANCH  19  23
TORSDOF 1
ENDMDL
MODEL 15
REMARK VINA RESULT:      -4.8      8.620     13.679
REMARK  1 active torsions:
REMARK  status: ('A' for Active; 'I' for Inactive)
REMARK    1  A    between atoms: C_19  and  O_22 
ROOT
HETATM    1  O   LIG     1      23.963  22.467  17.886  1.00  0.00    -0.293 OA
HETATM    2  C   LIG     1      24.569  22.403  18.988  1.00  0.00     0.149 C 
HETATM    3  C   LIG     1      25.444  23.543  19.417  1.00  0.00     0.084 C 
HETATM    4  C   LIG     1      25.710  23.510  20.930  1.00  0.00     0.022 C 
HETATM    5  C   LIG     1      26.129  22.097  21.438  1.00  0.00    -0.016 C 
HETATM    6  C   LIG     1      27.507  21.717  20.844  1.00  0.00     0.020 C 
HETATM    7  C   LIG     1      25.104  21.051  20.972  1.00  0.00    -0.068 C 
HETATM    8  C   LIG     1      24.797  19.875  21.884  1.00  0.00     0.035 C 
HETATM    9  C   LIG     1      24.342  20.335  23.293  1.00  0.00     0.010 C 
HETATM   10  C   LIG     1      24.790  21.781  23.612  1.00  0.00    -0.004 C 
HETATM   11  C   LIG     1      26.203  22.050  23.010  1.00  0.00     0.002 C 
HETATM   12  C   LIG     1      26.893  23.253  23.703  1.00  0.00     0.007 C 
HETATM   13  C   LIG     1      27.123  23.001  25.223  1.00  0.00     0.014 C 
HETATM   14  C   LIG     1      26.006  22.130  25.906  1.00  0.00     0.003 C 
HETATM   15  C   LIG     1      26.503  20.650  26.046  1.00  0.00     0.020 C 
HETATM   16  C   LIG     1      24.702  22.229  25.096  1.00  0.00     0.002 C 
HETATM   17  C   LIG     1      23.606  21.679  26.002  1.00  0.00     0.010 C 
HETATM   18  C   LIG     1      24.084  22.023  27.426  1.00  0.00     0.052 C 
HETATM   19  C   LIG     1      25.500  22.653  27.290  1.00  0.00     0.128 C 
HETATM   20  C   LIG     1      26.381  22.272  28.420  1.00  0.00    -0.078 C 
HETATM   21  C   LIG     1      27.095  21.965  29.341  1.00  0.00     0.015 C 
HETATM   22  C   LIG     1      24.425  21.198  19.821  1.00  0.00     0.053 C 
ENDROOT
BRANCH  19  23
HETATM   23  O   LIG     1      25.382  24.060  27.260  1.00  0.00    -0.377 OA
HETATM   24  H   LIG     1      24.642  24.324  27.869  1.00  0.00     0.211 HD
ENDBRANCH  19  23
TORSDOF 1
ENDMDL
MODEL 16
REMARK VINA RESULT:      -4.8      9.717     12.317
REMARK  1 active torsions:
REMARK  status: ('A' for Active; 'I' for Inactive)
REMARK    1  A    between atoms: C_19  and  O_22 
ROOT
HETATM    1  O   LIG     1      25.768  22.511  28.230  1.00  0.00    -0.293 OA
HETATM    2  C   LIG     1      25.869  22.484  26.975  1.00  0.00     0.149 C 
HETATM    3  C   LIG     1      24.634  22.604  26.132  1.00  0.00     0.084 C 
HETATM    4  C   LIG     1      24.973  23.018  24.693  1.00  0.00     0.022 C 
HETATM    5  C   LIG     1      26.140  22.182  24.083  1.00  0.00    -0.016 C 
HETATM    6  C   LIG     1      25.693  20.709  23.915  1.00  0.00     0.020 C 
HETATM    7  C   LIG     1      27.350  22.208  25.031  1.00  0.00    -0.068 C 
HETATM    8  C   LIG     1      28.746  22.205  24.430  1.00  0.00     0.035 C 
HETATM    9  C   LIG     1      28.950  23.370  23.428  1.00  0.00     0.010 C 
HETATM   10  C   LIG     1      27.610  23.921  22.886  1.00  0.00    -0.004 C 
HETATM   11  C   LIG     1      26.592  22.756  22.689  1.00  0.00     0.002 C 
HETATM   12  C   LIG     1      25.459  23.156  21.709  1.00  0.00     0.007 C 
HETATM   13  C   LIG     1      26.003  23.486  20.287  1.00  0.00     0.014 C 
HETATM   14  C   LIG     1      27.428  24.150  20.283  1.00  0.00     0.003 C 
HETATM   15  C   LIG     1      28.513  23.068  19.954  1.00  0.00     0.020 C 
HETATM   16  C   LIG     1      27.685  24.837  21.635  1.00  0.00     0.002 C 
HETATM   17  C   LIG     1      28.891  25.746  21.418  1.00  0.00     0.010 C 
HETATM   18  C   LIG     1      28.790  26.160  19.937  1.00  0.00     0.052 C 
HETATM   19  C   LIG     1      27.594  25.376  19.326  1.00  0.00     0.128 C 
HETATM   20  C   LIG     1      27.853  24.991  17.918  1.00  0.00    -0.078 C 
HETATM   21  C   LIG     1      28.062  24.682  16.771  1.00  0.00     0.015 C 
HETATM   22  C   LIG     1      27.196  22.312  26.362  1.00  0.00     0.053 C 
ENDROOT
BRANCH  19  23
HETATM   23  O   LIG     1      26.436  26.183  19.371  1.00  0.00    -0.377 OA
HETATM   24  H   LIG     1      25.912  26.022  18.541  1.00  0.00     0.211 HD
ENDBRANCH  19  23
TORSDOF 1
ENDMDL
MODEL 17
REMARK VINA RESULT:      -4.8      8.775     12.439
REMARK  1 active torsions:
REMARK  status: ('A' for Active; 'I' for Inactive)
REMARK    1  A    between atoms: C_19  and  O_22 
ROOT
HETATM    1  O   LIG     1      26.185  25.002  27.514  1.00  0.00    -0.293 OA
HETATM    2  C   LIG     1      26.540  24.569  26.387  1.00  0.00     0.149 C 
HETATM    3  C   LIG     1      25.692  23.549  25.687  1.00  0.00     0.084 C 
HETATM    4  C   LIG     1      26.003  23.493  24.184  1.00  0.00     0.022 C 
HETATM    5  C   LIG     1      27.532  23.432  23.887  1.00  0.00    -0.016 C 
HETATM    6  C   LIG     1      28.110  22.091  24.402  1.00  0.00     0.020 C 
HETATM    7  C   LIG     1      28.252  24.574  24.621  1.00  0.00    -0.068 C 
HETATM    8  C   LIG     1      29.455  25.224  23.956  1.00  0.00     0.035 C 
HETATM    9  C   LIG     1      29.119  25.757  22.540  1.00  0.00     0.010 C 
HETATM   10  C   LIG     1      27.867  25.077  21.937  1.00  0.00    -0.004 C 
HETATM   11  C   LIG     1      27.825  23.572  22.346  1.00  0.00     0.002 C 
HETATM   12  C   LIG     1      26.914  22.754  21.395  1.00  0.00     0.007 C 
HETATM   13  C   LIG     1      27.431  22.777  19.926  1.00  0.00     0.014 C 
HETATM   14  C   LIG     1      28.130  24.123  19.512  1.00  0.00     0.003 C 
HETATM   15  C   LIG     1      29.686  23.952  19.579  1.00  0.00     0.020 C 
HETATM   16  C   LIG     1      27.633  25.265  20.414  1.00  0.00     0.002 C 
HETATM   17  C   LIG     1      28.059  26.557  19.724  1.00  0.00     0.010 C 
HETATM   18  C   LIG     1      28.040  26.208  18.223  1.00  0.00     0.052 C 
HETATM   19  C   LIG     1      27.718  24.690  18.113  1.00  0.00     0.128 C 
HETATM   20  C   LIG     1      28.442  24.057  16.986  1.00  0.00    -0.078 C 
HETATM   21  C   LIG     1      29.029  23.542  16.066  1.00  0.00     0.015 C 
HETATM   22  C   LIG     1      27.794  25.056  25.789  1.00  0.00     0.053 C 
ENDROOT
BRANCH  19  23
HETATM   23  O   LIG     1      26.330  24.522  17.914  1.00  0.00    -0.377 OA
HETATM   24  H   LIG     1      25.935  24.173  18.758  1.00  0.00     0.211 HD
ENDBRANCH  19  23
TORSDOF 1
ENDMDL
MODEL 18
REMARK VINA RESULT:      -4.7      7.744     11.762
REMARK  1 active torsions:
REMARK  status: ('A' for Active; 'I' for Inactive)
REMARK    1  A    between atoms: C_19  and  O_22 
ROOT
HETATM    1  O   LIG     1      28.569  25.583  28.142  1.00  0.00    -0.293 OA
HETATM    2  C   LIG     1      27.941  24.756  27.429  1.00  0.00     0.149 C 
HETATM    3  C   LIG     1      26.503  24.460  27.735  1.00  0.00     0.084 C 
HETATM    4  C   LIG     1      25.790  23.826  26.532  1.00  0.00     0.022 C 
HETATM    5  C   LIG     1      26.607  22.663  25.891  1.00  0.00    -0.016 C 
HETATM    6  C   LIG     1      26.703  21.482  26.887  1.00  0.00     0.020 C 
HETATM    7  C   LIG     1      28.035  23.139  25.578  1.00  0.00    -0.068 C 
HETATM    8  C   LIG     1      28.731  22.592  24.343  1.00  0.00     0.035 C 
HETATM    9  C   LIG     1      27.901  22.825  23.055  1.00  0.00     0.010 C 
HETATM   10  C   LIG     1      26.402  23.062  23.357  1.00  0.00    -0.004 C 
HETATM   11  C   LIG     1      25.947  22.166  24.550  1.00  0.00     0.002 C 
HETATM   12  C   LIG     1      24.408  21.987  24.567  1.00  0.00     0.007 C 
HETATM   13  C   LIG     1      23.887  21.275  23.282  1.00  0.00     0.014 C 
HETATM   14  C   LIG     1      24.707  21.612  21.984  1.00  0.00     0.003 C 
HETATM   15  C   LIG     1      25.710  20.449  21.677  1.00  0.00     0.020 C 
HETATM   16  C   LIG     1      25.422  22.963  22.157  1.00  0.00     0.002 C 
HETATM   17  C   LIG     1      25.871  23.379  20.760  1.00  0.00     0.010 C 
HETATM   18  C   LIG     1      24.808  22.771  19.825  1.00  0.00     0.052 C 
HETATM   19  C   LIG     1      23.851  21.926  20.712  1.00  0.00     0.128 C 
HETATM   20  C   LIG     1      23.381  20.710  20.007  1.00  0.00    -0.078 C 
HETATM   21  C   LIG     1      22.996  19.723  19.431  1.00  0.00     0.015 C 
HETATM   22  C   LIG     1      28.639  24.080  26.324  1.00  0.00     0.053 C 
ENDROOT
BRANCH  19  23
HETATM   23  O   LIG     1      22.731  22.708  21.066  1.00  0.00    -0.377 OA
HETATM   24  H   LIG     1      23.009  23.347  21.776  1.00  0.00     0.211 HD
ENDBRANCH  19  23
TORSDOF 1
ENDMDL
MODEL 19
REMARK VINA RESULT:      -4.6      8.284     13.138
REMARK  1 active torsions:
REMARK  status: ('A' for Active; 'I' for Inactive)
REMARK    1  A    between atoms: C_19  and  O_22 
ROOT
HETATM    1  O   LIG     1      22.447  22.095  19.072  1.00  0.00    -0.293 OA
HETATM    2  C   LIG     1      23.412  22.021  19.877  1.00  0.00     0.149 C 
HETATM    3  C   LIG     1      24.780  22.444  19.430  1.00  0.00     0.084 C 
HETATM    4  C   LIG     1      25.700  22.730  20.626  1.00  0.00     0.022 C 
HETATM    5  C   LIG     1      25.649  21.608  21.708  1.00  0.00    -0.016 C 
HETATM    6  C   LIG     1      26.243  20.300  21.130  1.00  0.00     0.020 C 
HETATM    7  C   LIG     1      24.190  21.334  22.106  1.00  0.00    -0.068 C 
HETATM    8  C   LIG     1      23.887  20.956  23.547  1.00  0.00     0.035 C 
HETATM    9  C   LIG     1      24.424  22.010  24.550  1.00  0.00     0.010 C 
HETATM   10  C   LIG     1      25.547  22.882  23.941  1.00  0.00    -0.004 C 
HETATM   11  C   LIG     1      26.446  22.020  23.002  1.00  0.00     0.002 C 
HETATM   12  C   LIG     1      27.828  22.685  22.776  1.00  0.00     0.007 C 
HETATM   13  C   LIG     1      28.629  22.836  24.104  1.00  0.00     0.014 C 
HETATM   14  C   LIG     1      27.732  23.105  25.367  1.00  0.00     0.003 C 
HETATM   15  C   LIG     1      27.534  21.773  26.167  1.00  0.00     0.020 C 
HETATM   16  C   LIG     1      26.394  23.725  24.932  1.00  0.00     0.002 C 
HETATM   17  C   LIG     1      25.761  24.284  26.202  1.00  0.00     0.010 C 
HETATM   18  C   LIG     1      26.963  24.685  27.079  1.00  0.00     0.052 C 
HETATM   19  C   LIG     1      28.246  24.229  26.327  1.00  0.00     0.128 C 
HETATM   20  C   LIG     1      29.296  23.766  27.265  1.00  0.00    -0.078 C 
HETATM   21  C   LIG     1      30.151  23.392  28.029  1.00  0.00     0.015 C 
HETATM   22  C   LIG     1      23.182  21.497  21.233  1.00  0.00     0.053 C 
ENDROOT
BRANCH  19  23
HETATM   23  O   LIG     1      28.754  25.311  25.575  1.00  0.00    -0.377 OA
HETATM   24  H   LIG     1      28.413  25.229  24.644  1.00  0.00     0.211 HD
ENDBRANCH  19  23
TORSDOF 1
ENDMDL
MODEL 20
REMARK VINA RESULT:      -4.4      6.975     10.899
REMARK  1 active torsions:
REMARK  status: ('A' for Active; 'I' for Inactive)
REMARK    1  A    between atoms: C_19  and  O_22 
ROOT
HETATM    1  O   LIG     1      28.036  26.288  29.034  1.00  0.00    -0.293 OA
HETATM    2  C   LIG     1      27.894  25.600  27.989  1.00  0.00     0.149 C 
HETATM    3  C   LIG     1      26.558  24.991  27.682  1.00  0.00     0.084 C 
HETATM    4  C   LIG     1      26.442  24.607  26.200  1.00  0.00     0.022 C 
HETATM    5  C   LIG     1      27.686  23.824  25.680  1.00  0.00    -0.016 C 
HETATM    6  C   LIG     1      27.765  22.446  26.381  1.00  0.00     0.020 C 
HETATM    7  C   LIG     1      28.968  24.603  26.014  1.00  0.00    -0.068 C 
HETATM    8  C   LIG     1      30.130  24.548  25.035  1.00  0.00     0.035 C 
HETATM    9  C   LIG     1      29.710  24.987  23.609  1.00  0.00     0.010 C 
HETATM   10  C   LIG     1      28.183  24.874  23.384  1.00  0.00    -0.004 C 
HETATM   11  C   LIG     1      27.625  23.617  24.120  1.00  0.00     0.002 C 
HETATM   12  C   LIG     1      26.256  23.182  23.537  1.00  0.00     0.007 C 
HETATM   13  C   LIG     1      26.361  22.780  22.036  1.00  0.00     0.014 C 
HETATM   14  C   LIG     1      27.429  23.599  21.224  1.00  0.00     0.003 C 
HETATM   15  C   LIG     1      28.740  22.755  21.075  1.00  0.00     0.020 C 
HETATM   16  C   LIG     1      27.685  24.949  21.916  1.00  0.00     0.002 C 
HETATM   17  C   LIG     1      28.424  25.807  20.895  1.00  0.00     0.010 C 
HETATM   18  C   LIG     1      27.897  25.314  19.534  1.00  0.00     0.052 C 
HETATM   19  C   LIG     1      26.961  24.105  19.819  1.00  0.00     0.128 C 
HETATM   20  C   LIG     1      27.060  23.073  18.760  1.00  0.00    -0.078 C 
HETATM   21  C   LIG     1      27.138  22.235  17.896  1.00  0.00     0.015 C 
HETATM   22  C   LIG     1      29.050  25.386  27.103  1.00  0.00     0.053 C 
ENDROOT
BRANCH  19  23
HETATM   23  O   LIG     1      25.625  24.557  19.890  1.00  0.00    -0.377 OA
HETATM   24  H   LIG     1      25.618  25.536  19.713  1.00  0.00     0.211 HD
ENDBRANCH  19  23
TORSDOF 1
ENDMDL
