REMARK  1 active torsions:
REMARK  status: ('A' for Active; 'I' for Inactive)
REMARK    1  A    between atoms: C_19  and  O_22 
ROOT
HETATM    1  O   LIG     1      -5.730   1.947   0.703  1.00  0.00    -0.293 OA
HETATM    2  C   LIG     1      -4.667   1.342   0.403  1.00  0.00     0.149 C 
HETATM    3  C   LIG     1      -4.276   1.208  -1.039  1.00  0.00     0.084 C 
HETATM    4  C   LIG     1      -2.783   0.881  -1.189  1.00  0.00     0.022 C 
HETATM    5  C   LIG     1      -2.319  -0.269  -0.244  1.00  0.00    -0.016 C 
HETATM    6  C   LIG     1      -2.999  -1.595  -0.664  1.00  0.00     0.020 C 
HETATM    7  C   LIG     1      -2.737   0.044   1.202  1.00  0.00    -0.068 C 
HETATM    8  C   LIG     1      -1.823  -0.393   2.335  1.00  0.00     0.035 C 
HETATM    9  C   LIG     1      -0.384   0.158   2.167  1.00  0.00     0.010 C 
HETATM   10  C   LIG     1      -0.073   0.554   0.704  1.00  0.00    -0.004 C 
HETATM   11  C   LIG     1      -0.755  -0.447  -0.279  1.00  0.00     0.002 C 
HETATM   12  C   LIG     1      -0.089  -0.407  -1.678  1.00  0.00     0.007 C 
HETATM   13  C   LIG     1       1.411  -0.824  -1.625  1.00  0.00     0.014 C 
HETATM   14  C   LIG     1       2.148  -0.404  -0.301  1.00  0.00     0.003 C 
HETATM   15  C   LIG     1       2.239  -1.634   0.665  1.00  0.00     0.020 C 
HETATM   16  C   LIG     1       1.419   0.787   0.344  1.00  0.00     0.002 C 
HETATM   17  C   LIG     1       2.382   1.352   1.383  1.00  0.00     0.010 C 
HETATM   18  C   LIG     1       3.779   1.058   0.803  1.00  0.00     0.052 C 
HETATM   19  C   LIG     1       3.567   0.226  -0.494  1.00  0.00     0.128 C 
HETATM   20  C   LIG     1       4.637  -0.783  -0.679  1.00  0.00    -0.078 C 
HETATM   21  C   LIG     1       5.510  -1.601  -0.831  1.00  0.00     0.015 C 
HETATM   22  C   LIG     1      -3.843   0.758   1.473  1.00  0.00     0.053 C 
ENDROOT
BRANCH  19  23
HETATM   23  O   LIG     1       3.562   1.093  -1.608  1.00  0.00    -0.377 OA
HETATM   24  H   LIG     1       4.460   1.515  -1.678  1.00  0.00     0.211 HD
ENDBRANCH  19  23
TORSDOF 1
