REMARK  3 active torsions:
REMARK  status: ('A' for Active; 'I' for Inactive)
REMARK    1  A    between atoms: C_4  and  O_5 
REMARK    2  A    between atoms: C_7  and  O_8 
REMARK    3  A    between atoms: C_18  and  O_19 
ROOT
HETATM    1  O   LIG     1      -1.061  -1.301  -2.223  1.00  0.00    -0.286 OA
HETATM    2  C   LIG     1      -0.926  -0.685  -1.130  1.00  0.00     0.200 A 
HETATM    3  C   LIG     1       0.358  -0.417  -0.605  1.00  0.00     0.082 A 
HETATM    4  C   LIG     1       1.553  -0.810  -1.252  1.00  0.00     0.085 A 
HETATM    5  C   LIG     1       2.794  -0.509  -0.671  1.00  0.00     0.074 A 
HETATM    6  C   LIG     1       2.866   0.181   0.552  1.00  0.00     0.073 A 
HETATM    7  C   LIG     1       1.685   0.569   1.189  1.00  0.00     0.075 A 
HETATM    8  C   LIG     1       0.440   0.278   0.626  1.00  0.00     0.095 A 
HETATM    9  O   LIG     1      -0.661   0.663   1.263  1.00  0.00    -0.309 OA
HETATM   10  C   LIG     1      -1.882   0.428   0.799  1.00  0.00     0.090 A 
HETATM   11  C   LIG     1      -2.993   0.865   1.528  1.00  0.00     0.041 A 
HETATM   12  C   LIG     1      -4.284   0.626   1.054  1.00  0.00     0.039 A 
HETATM   13  C   LIG     1      -2.064  -0.259  -0.422  1.00  0.00     0.051 A 
HETATM   14  C   LIG     1      -3.370  -0.496  -0.892  1.00  0.00     0.054 A 
HETATM   15  C   LIG     1      -4.476  -0.055  -0.156  1.00  0.00     0.066 A 
ENDROOT
BRANCH   4  16
HETATM   16  O   LIG     1       1.519  -1.497  -2.467  1.00  0.00    -0.360 OA
HETATM   17  H   LIG     1       2.366  -1.784  -2.942  1.00  0.00     0.217 HD
ENDBRANCH   4  16
BRANCH   6  18
HETATM   18  O   LIG     1       4.087   0.501   1.165  1.00  0.00    -0.356 OA
HETATM   19  C   LIG     1       5.366   0.171   0.632  1.00  0.00     0.210 C 
ENDBRANCH   6  18
BRANCH  15  20
HETATM   20  O   LIG     1      -5.761  -0.298  -0.636  1.00  0.00    -0.361 OA
HETATM   21  H   LIG     1      -6.583   0.008  -0.128  1.00  0.00     0.217 HD
ENDBRANCH  15  20
TORSDOF 3
