MODEL 1
REMARK VINA RESULT:      -6.1      0.000      0.000
REMARK  3 active torsions:
REMARK  status: ('A' for Active; 'I' for Inactive)
REMARK    1  A    between atoms: C_4  and  O_5 
REMARK    2  A    between atoms: C_7  and  O_8 
REMARK    3  A    between atoms: C_18  and  O_19 
ROOT
HETATM    1  O   LIG     1      14.014  30.715  18.345  1.00  0.00    -0.286 OA
HETATM    2  C   LIG     1      14.638  31.719  17.905  1.00  0.00     0.200 A 
HETATM    3  C   LIG     1      14.988  32.786  18.762  1.00  0.00     0.082 A 
HETATM    4  C   LIG     1      14.672  32.803  20.141  1.00  0.00     0.085 A 
HETATM    5  C   LIG     1      15.052  33.897  20.932  1.00  0.00     0.074 A 
HETATM    6  C   LIG     1      15.746  34.983  20.370  1.00  0.00     0.073 A 
HETATM    7  C   LIG     1      16.058  34.965  19.008  1.00  0.00     0.075 A 
HETATM    8  C   LIG     1      15.688  33.884  18.205  1.00  0.00     0.095 A 
HETATM    9  O   LIG     1      16.002  33.904  16.913  1.00  0.00    -0.309 OA
HETATM   10  C   LIG     1      15.689  32.919  16.080  1.00  0.00     0.090 A 
HETATM   11  C   LIG     1      16.054  33.014  14.733  1.00  0.00     0.041 A 
HETATM   12  C   LIG     1      15.733  31.987  13.843  1.00  0.00     0.039 A 
HETATM   13  C   LIG     1      14.991  31.782  16.545  1.00  0.00     0.051 A 
HETATM   14  C   LIG     1      14.671  30.752  15.640  1.00  0.00     0.054 A 
HETATM   15  C   LIG     1      15.040  30.855  14.294  1.00  0.00     0.066 A 
ENDROOT
BRANCH   4  16
HETATM   16  O   LIG     1      13.984  31.742  20.732  1.00  0.00    -0.360 OA
HETATM   17  H   LIG     1      13.197  31.296  20.277  1.00  0.00     0.217 HD
ENDBRANCH   4  16
BRANCH   6  18
HETATM   18  O   LIG     1      16.144  36.096  21.127  1.00  0.00    -0.356 OA
HETATM   19  C   LIG     1      17.446  36.672  21.088  1.00  0.00     0.210 C 
ENDBRANCH   6  18
BRANCH  15  20
HETATM   20  O   LIG     1      14.715  29.826  13.412  1.00  0.00    -0.361 OA
HETATM   21  H   LIG     1      13.939  29.908  12.765  1.00  0.00     0.217 HD
ENDBRANCH  15  20
TORSDOF 3
ENDMDL
MODEL 2
REMARK VINA RESULT:      -5.9      3.943      6.348
REMARK  3 active torsions:
REMARK  status: ('A' for Active; 'I' for Inactive)
REMARK    1  A    between atoms: C_4  and  O_5 
REMARK    2  A    between atoms: C_7  and  O_8 
REMARK    3  A    between atoms: C_18  and  O_19 
ROOT
HETATM    1  O   LIG     1      15.582  36.943  23.323  1.00  0.00    -0.286 OA
HETATM    2  C   LIG     1      16.143  36.602  22.245  1.00  0.00     0.200 A 
HETATM    3  C   LIG     1      17.163  37.398  21.678  1.00  0.00     0.082 A 
HETATM    4  C   LIG     1      17.616  38.603  22.263  1.00  0.00     0.085 A 
HETATM    5  C   LIG     1      18.634  39.342  21.642  1.00  0.00     0.074 A 
HETATM    6  C   LIG     1      19.212  38.899  20.440  1.00  0.00     0.073 A 
HETATM    7  C   LIG     1      18.764  37.708  19.863  1.00  0.00     0.075 A 
HETATM    8  C   LIG     1      17.751  36.959  20.467  1.00  0.00     0.095 A 
HETATM    9  O   LIG     1      17.351  35.832  19.887  1.00  0.00    -0.309 OA
HETATM   10  C   LIG     1      16.396  35.061  20.393  1.00  0.00     0.090 A 
HETATM   11  C   LIG     1      16.030  33.888  19.723  1.00  0.00     0.041 A 
HETATM   12  C   LIG     1      15.028  33.066  20.241  1.00  0.00     0.039 A 
HETATM   13  C   LIG     1      15.751  35.417  21.598  1.00  0.00     0.051 A 
HETATM   14  C   LIG     1      14.741  34.582  22.113  1.00  0.00     0.054 A 
HETATM   15  C   LIG     1      14.381  33.410  21.436  1.00  0.00     0.066 A 
ENDROOT
BRANCH   4  16
HETATM   16  O   LIG     1      17.065  39.074  23.456  1.00  0.00    -0.360 OA
HETATM   17  H   LIG     1      17.101  38.533  24.312  1.00  0.00     0.217 HD
ENDBRANCH   4  16
BRANCH   6  18
HETATM   18  O   LIG     1      20.232  39.609  19.788  1.00  0.00    -0.356 OA
HETATM   19  C   LIG     1      20.835  39.208  18.561  1.00  0.00     0.210 C 
ENDBRANCH   6  18
BRANCH  15  20
HETATM   20  O   LIG     1      13.380  32.595  21.960  1.00  0.00    -0.361 OA
HETATM   21  H   LIG     1      12.871  32.853  22.798  1.00  0.00     0.217 HD
ENDBRANCH  15  20
TORSDOF 3
ENDMDL
MODEL 3
REMARK VINA RESULT:      -5.8      2.794      5.507
REMARK  3 active torsions:
REMARK  status: ('A' for Active; 'I' for Inactive)
REMARK    1  A    between atoms: C_4  and  O_5 
REMARK    2  A    between atoms: C_7  and  O_8 
REMARK    3  A    between atoms: C_18  and  O_19 
ROOT
HETATM    1  O   LIG     1      17.384  36.232  18.972  1.00  0.00    -0.286 OA
HETATM    2  C   LIG     1      16.840  35.832  20.038  1.00  0.00     0.200 A 
HETATM    3  C   LIG     1      17.000  36.549  21.244  1.00  0.00     0.082 A 
HETATM    4  C   LIG     1      17.762  37.737  21.340  1.00  0.00     0.085 A 
HETATM    5  C   LIG     1      17.877  38.396  22.573  1.00  0.00     0.074 A 
HETATM    6  C   LIG     1      17.242  37.889  23.720  1.00  0.00     0.073 A 
HETATM    7  C   LIG     1      16.489  36.717  23.624  1.00  0.00     0.075 A 
HETATM    8  C   LIG     1      16.364  36.046  22.405  1.00  0.00     0.095 A 
HETATM    9  O   LIG     1      15.640  34.932  22.354  1.00  0.00    -0.309 OA
HETATM   10  C   LIG     1      15.469  34.234  21.238  1.00  0.00     0.090 A 
HETATM   11  C   LIG     1      14.692  33.071  21.264  1.00  0.00     0.041 A 
HETATM   12  C   LIG     1      14.502  32.325  20.100  1.00  0.00     0.039 A 
HETATM   13  C   LIG     1      16.065  34.658  20.029  1.00  0.00     0.051 A 
HETATM   14  C   LIG     1      15.869  33.899  18.860  1.00  0.00     0.054 A 
HETATM   15  C   LIG     1      15.090  32.737  18.895  1.00  0.00     0.066 A 
ENDROOT
BRANCH   4  16
HETATM   16  O   LIG     1      18.407  38.268  20.221  1.00  0.00    -0.360 OA
HETATM   17  H   LIG     1      19.195  37.803  19.788  1.00  0.00     0.217 HD
ENDBRANCH   4  16
BRANCH   6  18
HETATM   18  O   LIG     1      17.332  38.519  24.971  1.00  0.00    -0.356 OA
HETATM   19  C   LIG     1      17.554  37.837  26.202  1.00  0.00     0.210 C 
ENDBRANCH   6  18
BRANCH  15  20
HETATM   20  O   LIG     1      14.906  31.998  17.729  1.00  0.00    -0.361 OA
HETATM   21  H   LIG     1      14.669  31.013  17.757  1.00  0.00     0.217 HD
ENDBRANCH  15  20
TORSDOF 3
ENDMDL
MODEL 4
REMARK VINA RESULT:      -5.8      2.907      7.302
REMARK  3 active torsions:
REMARK  status: ('A' for Active; 'I' for Inactive)
REMARK    1  A    between atoms: C_4  and  O_5 
REMARK    2  A    between atoms: C_7  and  O_8 
REMARK    3  A    between atoms: C_18  and  O_19 
ROOT
HETATM    1  O   LIG     1      12.651  30.189  15.750  1.00  0.00    -0.286 OA
HETATM    2  C   LIG     1      13.785  30.308  15.208  1.00  0.00     0.200 A 
HETATM    3  C   LIG     1      14.264  29.327  14.311  1.00  0.00     0.082 A 
HETATM    4  C   LIG     1      13.524  28.173  13.964  1.00  0.00     0.085 A 
HETATM    5  C   LIG     1      14.064  27.241  13.064  1.00  0.00     0.074 A 
HETATM    6  C   LIG     1      15.337  27.441  12.501  1.00  0.00     0.073 A 
HETATM    7  C   LIG     1      16.065  28.582  12.844  1.00  0.00     0.075 A 
HETATM    8  C   LIG     1      15.544  29.521  13.738  1.00  0.00     0.095 A 
HETATM    9  O   LIG     1      16.268  30.594  14.040  1.00  0.00    -0.309 OA
HETATM   10  C   LIG     1      15.850  31.533  14.879  1.00  0.00     0.090 A 
HETATM   11  C   LIG     1      16.670  32.634  15.147  1.00  0.00     0.041 A 
HETATM   12  C   LIG     1      16.245  33.631  16.026  1.00  0.00     0.039 A 
HETATM   13  C   LIG     1      14.585  31.427  15.499  1.00  0.00     0.051 A 
HETATM   14  C   LIG     1      14.164  32.437  16.385  1.00  0.00     0.054 A 
HETATM   15  C   LIG     1      14.992  33.535  16.648  1.00  0.00     0.066 A 
ENDROOT
BRANCH   4  16
HETATM   16  O   LIG     1      12.258  27.942  14.504  1.00  0.00    -0.360 OA
HETATM   17  H   LIG     1      11.501  28.605  14.393  1.00  0.00     0.217 HD
ENDBRANCH   4  16
BRANCH   6  18
HETATM   18  O   LIG     1      15.911  26.533  11.598  1.00  0.00    -0.356 OA
HETATM   19  C   LIG     1      15.302  26.116  10.380  1.00  0.00     0.210 C 
ENDBRANCH   6  18
BRANCH  15  20
HETATM   20  O   LIG     1      14.560  34.526  17.527  1.00  0.00    -0.361 OA
HETATM   21  H   LIG     1      14.214  34.299  18.452  1.00  0.00     0.217 HD
ENDBRANCH  15  20
TORSDOF 3
ENDMDL
MODEL 5
REMARK VINA RESULT:      -5.7      1.259      6.574
REMARK  3 active torsions:
REMARK  status: ('A' for Active; 'I' for Inactive)
REMARK    1  A    between atoms: C_4  and  O_5 
REMARK    2  A    between atoms: C_7  and  O_8 
REMARK    3  A    between atoms: C_18  and  O_19 
ROOT
HETATM    1  O   LIG     1      16.411  34.581  15.948  1.00  0.00    -0.286 OA
HETATM    2  C   LIG     1      15.857  33.578  16.478  1.00  0.00     0.200 A 
HETATM    3  C   LIG     1      15.522  32.445  15.704  1.00  0.00     0.082 A 
HETATM    4  C   LIG     1      15.777  32.357  14.315  1.00  0.00     0.085 A 
HETATM    5  C   LIG     1      15.416  31.198  13.611  1.00  0.00     0.074 A 
HETATM    6  C   LIG     1      14.801  30.119  14.269  1.00  0.00     0.073 A 
HETATM    7  C   LIG     1      14.550  30.208  15.641  1.00  0.00     0.075 A 
HETATM    8  C   LIG     1      14.902  31.353  16.359  1.00  0.00     0.095 A 
HETATM    9  O   LIG     1      14.646  31.400  17.662  1.00  0.00    -0.309 OA
HETATM   10  C   LIG     1      14.948  32.448  18.419  1.00  0.00     0.090 A 
HETATM   11  C   LIG     1      14.646  32.422  19.785  1.00  0.00     0.041 A 
HETATM   12  C   LIG     1      14.957  33.516  20.595  1.00  0.00     0.039 A 
HETATM   13  C   LIG     1      15.568  33.584  17.854  1.00  0.00     0.051 A 
HETATM   14  C   LIG     1      15.877  34.683  18.679  1.00  0.00     0.054 A 
HETATM   15  C   LIG     1      15.572  34.648  20.045  1.00  0.00     0.066 A 
ENDROOT
BRANCH   4  16
HETATM   16  O   LIG     1      16.386  33.409  13.629  1.00  0.00    -0.360 OA
HETATM   17  H   LIG     1      17.131  33.956  14.042  1.00  0.00     0.217 HD
ENDBRANCH   4  16
BRANCH   6  18
HETATM   18  O   LIG     1      14.426  28.944  13.601  1.00  0.00    -0.356 OA
HETATM   19  C   LIG     1      15.225  27.767  13.532  1.00  0.00     0.210 C 
ENDBRANCH   6  18
BRANCH  15  20
HETATM   20  O   LIG     1      15.884  35.744  20.846  1.00  0.00    -0.361 OA
HETATM   21  H   LIG     1      16.117  35.635  21.826  1.00  0.00     0.217 HD
ENDBRANCH  15  20
TORSDOF 3
ENDMDL
MODEL 6
REMARK VINA RESULT:      -5.4      3.323      6.181
REMARK  3 active torsions:
REMARK  status: ('A' for Active; 'I' for Inactive)
REMARK    1  A    between atoms: C_4  and  O_5 
REMARK    2  A    between atoms: C_7  and  O_8 
REMARK    3  A    between atoms: C_18  and  O_19 
ROOT
HETATM    1  O   LIG     1      17.573  34.458  15.614  1.00  0.00    -0.286 OA
HETATM    2  C   LIG     1      17.355  33.579  14.735  1.00  0.00     0.200 A 
HETATM    3  C   LIG     1      16.294  32.658  14.880  1.00  0.00     0.082 A 
HETATM    4  C   LIG     1      15.422  32.657  15.994  1.00  0.00     0.085 A 
HETATM    5  C   LIG     1      14.389  31.711  16.072  1.00  0.00     0.074 A 
HETATM    6  C   LIG     1      14.208  30.760  15.052  1.00  0.00     0.073 A 
HETATM    7  C   LIG     1      15.069  30.764  13.952  1.00  0.00     0.075 A 
HETATM    8  C   LIG     1      16.104  31.697  13.858  1.00  0.00     0.095 A 
HETATM    9  O   LIG     1      16.903  31.668  12.797  1.00  0.00    -0.309 OA
HETATM   10  C   LIG     1      17.909  32.517  12.628  1.00  0.00     0.090 A 
HETATM   11  C   LIG     1      18.707  32.423  11.483  1.00  0.00     0.041 A 
HETATM   12  C   LIG     1      19.768  33.309  11.289  1.00  0.00     0.039 A 
HETATM   13  C   LIG     1      18.176  33.512  13.595  1.00  0.00     0.051 A 
HETATM   14  C   LIG     1      19.250  34.400  13.392  1.00  0.00     0.054 A 
HETATM   15  C   LIG     1      20.043  34.299  12.243  1.00  0.00     0.066 A 
ENDROOT
BRANCH   4  16
HETATM   16  O   LIG     1      15.573  33.586  17.025  1.00  0.00    -0.360 OA
HETATM   17  H   LIG     1      14.821  34.206  17.299  1.00  0.00     0.217 HD
ENDBRANCH   4  16
BRANCH   6  18
HETATM   18  O   LIG     1      13.186  29.798  15.092  1.00  0.00    -0.356 OA
HETATM   19  C   LIG     1      13.029  28.752  14.139  1.00  0.00     0.210 C 
ENDBRANCH   6  18
BRANCH  15  20
HETATM   20  O   LIG     1      21.101  35.186  12.058  1.00  0.00    -0.361 OA
HETATM   21  H   LIG     1      21.593  35.595  12.844  1.00  0.00     0.217 HD
ENDBRANCH  15  20
TORSDOF 3
ENDMDL
MODEL 7
REMARK VINA RESULT:      -5.2      2.934      7.581
REMARK  3 active torsions:
REMARK  status: ('A' for Active; 'I' for Inactive)
REMARK    1  A    between atoms: C_4  and  O_5 
REMARK    2  A    between atoms: C_7  and  O_8 
REMARK    3  A    between atoms: C_18  and  O_19 
ROOT
HETATM    1  O   LIG     1      16.631  30.547  14.115  1.00  0.00    -0.286 OA
HETATM    2  C   LIG     1      15.439  30.484  14.525  1.00  0.00     0.200 A 
HETATM    3  C   LIG     1      14.595  29.421  14.134  1.00  0.00     0.082 A 
HETATM    4  C   LIG     1      15.017  28.377  13.277  1.00  0.00     0.085 A 
HETATM    5  C   LIG     1      14.123  27.353  12.931  1.00  0.00     0.074 A 
HETATM    6  C   LIG     1      12.807  27.350  13.427  1.00  0.00     0.073 A 
HETATM    7  C   LIG     1      12.393  28.381  14.274  1.00  0.00     0.075 A 
HETATM    8  C   LIG     1      13.269  29.410  14.629  1.00  0.00     0.095 A 
HETATM    9  O   LIG     1      12.837  30.373  15.436  1.00  0.00    -0.309 OA
HETATM   10  C   LIG     1      13.602  31.386  15.823  1.00  0.00     0.090 A 
HETATM   11  C   LIG     1      13.075  32.363  16.675  1.00  0.00     0.041 A 
HETATM   12  C   LIG     1      13.866  33.435  17.091  1.00  0.00     0.039 A 
HETATM   13  C   LIG     1      14.940  31.483  15.380  1.00  0.00     0.051 A 
HETATM   14  C   LIG     1      15.731  32.568  15.805  1.00  0.00     0.054 A 
HETATM   15  C   LIG     1      15.195  33.540  16.658  1.00  0.00     0.066 A 
ENDROOT
BRANCH   4  16
HETATM   16  O   LIG     1      16.316  28.349  12.766  1.00  0.00    -0.360 OA
HETATM   17  H   LIG     1      16.603  28.951  12.004  1.00  0.00     0.217 HD
ENDBRANCH   4  16
BRANCH   6  18
HETATM   18  O   LIG     1      11.884  26.344  13.105  1.00  0.00    -0.356 OA
HETATM   19  C   LIG     1      11.868  25.630  11.873  1.00  0.00     0.210 C 
ENDBRANCH   6  18
BRANCH  15  20
HETATM   20  O   LIG     1      15.991  34.607  17.068  1.00  0.00    -0.361 OA
HETATM   21  H   LIG     1      15.591  35.432  17.500  1.00  0.00     0.217 HD
ENDBRANCH  15  20
TORSDOF 3
ENDMDL
MODEL 8
REMARK VINA RESULT:      -5.2      3.316      6.476
REMARK  3 active torsions:
REMARK  status: ('A' for Active; 'I' for Inactive)
REMARK    1  A    between atoms: C_4  and  O_5 
REMARK    2  A    between atoms: C_7  and  O_8 
REMARK    3  A    between atoms: C_18  and  O_19 
ROOT
HETATM    1  O   LIG     1      14.133  32.515  16.744  1.00  0.00    -0.286 OA
HETATM    2  C   LIG     1      14.736  32.042  15.741  1.00  0.00     0.200 A 
HETATM    3  C   LIG     1      14.341  30.809  15.175  1.00  0.00     0.082 A 
HETATM    4  C   LIG     1      13.267  30.038  15.679  1.00  0.00     0.085 A 
HETATM    5  C   LIG     1      12.931  28.822  15.065  1.00  0.00     0.074 A 
HETATM    6  C   LIG     1      13.651  28.358  13.949  1.00  0.00     0.073 A 
HETATM    7  C   LIG     1      14.709  29.122  13.452  1.00  0.00     0.075 A 
HETATM    8  C   LIG     1      15.059  30.334  14.051  1.00  0.00     0.095 A 
HETATM    9  O   LIG     1      16.074  31.032  13.550  1.00  0.00    -0.309 OA
HETATM   10  C   LIG     1      16.471  32.192  14.056  1.00  0.00     0.090 A 
HETATM   11  C   LIG     1      17.548  32.867  13.472  1.00  0.00     0.041 A 
HETATM   12  C   LIG     1      17.979  34.088  13.993  1.00  0.00     0.039 A 
HETATM   13  C   LIG     1      15.815  32.746  15.178  1.00  0.00     0.051 A 
HETATM   14  C   LIG     1      16.257  33.978  15.697  1.00  0.00     0.054 A 
HETATM   15  C   LIG     1      17.335  34.647  15.106  1.00  0.00     0.066 A 
ENDROOT
BRANCH   4  16
HETATM   16  O   LIG     1      12.532  30.468  16.785  1.00  0.00    -0.360 OA
HETATM   17  H   LIG     1      11.908  29.847  17.286  1.00  0.00     0.217 HD
ENDBRANCH   4  16
BRANCH   6  18
HETATM   18  O   LIG     1      13.345  27.149  13.307  1.00  0.00    -0.356 OA
HETATM   19  C   LIG     1      12.032  26.747  12.929  1.00  0.00     0.210 C 
ENDBRANCH   6  18
BRANCH  15  20
HETATM   20  O   LIG     1      17.759  35.865  15.632  1.00  0.00    -0.361 OA
HETATM   21  H   LIG     1      18.743  36.094  15.713  1.00  0.00     0.217 HD
ENDBRANCH  15  20
TORSDOF 3
ENDMDL
MODEL 9
REMARK VINA RESULT:      -4.7     14.181     15.519
REMARK  3 active torsions:
REMARK  status: ('A' for Active; 'I' for Inactive)
REMARK    1  A    between atoms: C_4  and  O_5 
REMARK    2  A    between atoms: C_7  and  O_8 
REMARK    3  A    between atoms: C_18  and  O_19 
ROOT
HETATM    1  O   LIG     1      25.418  21.614  21.996  1.00  0.00    -0.286 OA
HETATM    2  C   LIG     1      25.125  21.862  20.794  1.00  0.00     0.200 A 
HETATM    3  C   LIG     1      24.262  21.009  20.069  1.00  0.00     0.082 A 
HETATM    4  C   LIG     1      23.681  19.846  20.626  1.00  0.00     0.085 A 
HETATM    5  C   LIG     1      22.833  19.046  19.846  1.00  0.00     0.074 A 
HETATM    6  C   LIG     1      22.553  19.386  18.511  1.00  0.00     0.073 A 
HETATM    7  C   LIG     1      23.127  20.536  17.963  1.00  0.00     0.075 A 
HETATM    8  C   LIG     1      23.974  21.345  18.724  1.00  0.00     0.095 A 
HETATM    9  O   LIG     1      24.501  22.430  18.167  1.00  0.00    -0.309 OA
HETATM   10  C   LIG     1      25.314  23.252  18.818  1.00  0.00     0.090 A 
HETATM   11  C   LIG     1      25.830  24.375  18.161  1.00  0.00     0.041 A 
HETATM   12  C   LIG     1      26.686  25.250  18.832  1.00  0.00     0.039 A 
HETATM   13  C   LIG     1      25.660  23.000  20.164  1.00  0.00     0.051 A 
HETATM   14  C   LIG     1      26.525  23.888  20.832  1.00  0.00     0.054 A 
HETATM   15  C   LIG     1      27.036  25.009  20.167  1.00  0.00     0.066 A 
ENDROOT
BRANCH   4  16
HETATM   16  O   LIG     1      23.939  19.478  21.948  1.00  0.00    -0.360 OA
HETATM   17  H   LIG     1      23.211  19.474  22.653  1.00  0.00     0.217 HD
ENDBRANCH   4  16
BRANCH   6  18
HETATM   18  O   LIG     1      21.710  18.613  17.698  1.00  0.00    -0.356 OA
HETATM   19  C   LIG     1      21.338  18.956  16.367  1.00  0.00     0.210 C 
ENDBRANCH   6  18
BRANCH  15  20
HETATM   20  O   LIG     1      27.891  25.877  20.844  1.00  0.00    -0.361 OA
HETATM   21  H   LIG     1      27.689  26.868  20.918  1.00  0.00     0.217 HD
ENDBRANCH  15  20
TORSDOF 3
ENDMDL
MODEL 10
REMARK VINA RESULT:      -4.7     18.431     21.627
REMARK  3 active torsions:
REMARK  status: ('A' for Active; 'I' for Inactive)
REMARK    1  A    between atoms: C_4  and  O_5 
REMARK    2  A    between atoms: C_7  and  O_8 
REMARK    3  A    between atoms: C_18  and  O_19 
ROOT
HETATM    1  O   LIG     1      29.894  30.845  33.757  1.00  0.00    -0.286 OA
HETATM    2  C   LIG     1      28.832  30.205  33.990  1.00  0.00     0.200 A 
HETATM    3  C   LIG     1      28.377  29.209  33.098  1.00  0.00     0.082 A 
HETATM    4  C   LIG     1      29.064  28.867  31.909  1.00  0.00     0.085 A 
HETATM    5  C   LIG     1      28.552  27.866  31.070  1.00  0.00     0.074 A 
HETATM    6  C   LIG     1      27.360  27.195  31.396  1.00  0.00     0.073 A 
HETATM    7  C   LIG     1      26.684  27.533  32.571  1.00  0.00     0.075 A 
HETATM    8  C   LIG     1      27.178  28.528  33.419  1.00  0.00     0.095 A 
HETATM    9  O   LIG     1      26.506  28.822  34.527  1.00  0.00    -0.309 OA
HETATM   10  C   LIG     1      26.904  29.751  35.386  1.00  0.00     0.090 A 
HETATM   11  C   LIG     1      26.141  30.004  36.531  1.00  0.00     0.041 A 
HETATM   12  C   LIG     1      26.546  30.978  37.446  1.00  0.00     0.039 A 
HETATM   13  C   LIG     1      28.089  30.484  35.151  1.00  0.00     0.051 A 
HETATM   14  C   LIG     1      28.489  31.465  36.079  1.00  0.00     0.054 A 
HETATM   15  C   LIG     1      27.719  31.711  37.222  1.00  0.00     0.066 A 
ENDROOT
BRANCH   4  16
HETATM   16  O   LIG     1      30.250  29.513  31.554  1.00  0.00    -0.360 OA
HETATM   17  H   LIG     1      30.911  29.835  32.250  1.00  0.00     0.217 HD
ENDBRANCH   4  16
BRANCH   6  18
HETATM   18  O   LIG     1      26.817  26.188  30.584  1.00  0.00    -0.356 OA
HETATM   19  C   LIG     1      27.152  25.991  29.213  1.00  0.00     0.210 C 
ENDBRANCH   6  18
BRANCH  15  20
HETATM   20  O   LIG     1      28.130  32.685  38.129  1.00  0.00    -0.361 OA
HETATM   21  H   LIG     1      28.717  32.455  38.924  1.00  0.00     0.217 HD
ENDBRANCH  15  20
TORSDOF 3
ENDMDL
MODEL 11
REMARK VINA RESULT:      -4.6     14.307     14.766
REMARK  3 active torsions:
REMARK  status: ('A' for Active; 'I' for Inactive)
REMARK    1  A    between atoms: C_4  and  O_5 
REMARK    2  A    between atoms: C_7  and  O_8 
REMARK    3  A    between atoms: C_18  and  O_19 
ROOT
HETATM    1  O   LIG     1      26.232  22.312  22.208  1.00  0.00    -0.286 OA
HETATM    2  C   LIG     1      25.906  22.707  21.055  1.00  0.00     0.200 A 
HETATM    3  C   LIG     1      26.481  23.872  20.500  1.00  0.00     0.082 A 
HETATM    4  C   LIG     1      27.439  24.658  21.181  1.00  0.00     0.085 A 
HETATM    5  C   LIG     1      27.968  25.803  20.567  1.00  0.00     0.074 A 
HETATM    6  C   LIG     1      27.555  26.182  19.278  1.00  0.00     0.073 A 
HETATM    7  C   LIG     1      26.609  25.404  18.606  1.00  0.00     0.075 A 
HETATM    8  C   LIG     1      26.071  24.261  19.202  1.00  0.00     0.095 A 
HETATM    9  O   LIG     1      25.172  23.547  18.531  1.00  0.00    -0.309 OA
HETATM   10  C   LIG     1      24.612  22.449  19.022  1.00  0.00     0.090 A 
HETATM   11  C   LIG     1      23.673  21.751  18.254  1.00  0.00     0.041 A 
HETATM   12  C   LIG     1      23.075  20.594  18.756  1.00  0.00     0.039 A 
HETATM   13  C   LIG     1      24.958  21.982  20.310  1.00  0.00     0.051 A 
HETATM   14  C   LIG     1      24.349  20.814  20.807  1.00  0.00     0.054 A 
HETATM   15  C   LIG     1      23.410  20.123  20.032  1.00  0.00     0.066 A 
ENDROOT
BRANCH   4  16
HETATM   16  O   LIG     1      27.872  24.312  22.463  1.00  0.00    -0.360 OA
HETATM   17  H   LIG     1      27.222  24.181  23.228  1.00  0.00     0.217 HD
ENDBRANCH   4  16
BRANCH   6  18
HETATM   18  O   LIG     1      28.060  27.320  18.630  1.00  0.00    -0.356 OA
HETATM   19  C   LIG     1      29.422  27.494  18.254  1.00  0.00     0.210 C 
ENDBRANCH   6  18
BRANCH  15  20
HETATM   20  O   LIG     1      22.818  18.969  20.540  1.00  0.00    -0.361 OA
HETATM   21  H   LIG     1      22.229  18.995  21.364  1.00  0.00     0.217 HD
ENDBRANCH  15  20
TORSDOF 3
ENDMDL
MODEL 12
REMARK VINA RESULT:      -4.6     14.349     15.105
REMARK  3 active torsions:
REMARK  status: ('A' for Active; 'I' for Inactive)
REMARK    1  A    between atoms: C_4  and  O_5 
REMARK    2  A    between atoms: C_7  and  O_8 
REMARK    3  A    between atoms: C_18  and  O_19 
ROOT
HETATM    1  O   LIG     1      26.373  20.956  18.264  1.00  0.00    -0.286 OA
HETATM    2  C   LIG     1      25.951  21.891  19.000  1.00  0.00     0.200 A 
HETATM    3  C   LIG     1      26.482  23.195  18.888  1.00  0.00     0.082 A 
HETATM    4  C   LIG     1      27.500  23.537  17.967  1.00  0.00     0.085 A 
HETATM    5  C   LIG     1      27.980  24.854  17.912  1.00  0.00     0.074 A 
HETATM    6  C   LIG     1      27.460  25.844  18.765  1.00  0.00     0.073 A 
HETATM    7  C   LIG     1      26.455  25.504  19.674  1.00  0.00     0.075 A 
HETATM    8  C   LIG     1      25.965  24.198  19.743  1.00  0.00     0.095 A 
HETATM    9  O   LIG     1      25.009  23.914  20.622  1.00  0.00    -0.309 OA
HETATM   10  C   LIG     1      24.487  22.701  20.753  1.00  0.00     0.090 A 
HETATM   11  C   LIG     1      23.483  22.481  21.702  1.00  0.00     0.041 A 
HETATM   12  C   LIG     1      22.923  21.211  21.852  1.00  0.00     0.039 A 
HETATM   13  C   LIG     1      24.940  21.636  19.943  1.00  0.00     0.051 A 
HETATM   14  C   LIG     1      24.370  20.358  20.103  1.00  0.00     0.054 A 
HETATM   15  C   LIG     1      23.365  20.147  21.054  1.00  0.00     0.066 A 
ENDROOT
BRANCH   4  16
HETATM   16  O   LIG     1      28.039  22.580  17.105  1.00  0.00    -0.360 OA
HETATM   17  H   LIG     1      27.543  22.263  16.281  1.00  0.00     0.217 HD
ENDBRANCH   4  16
BRANCH   6  18
HETATM   18  O   LIG     1      27.913  27.172  18.741  1.00  0.00    -0.356 OA
HETATM   19  C   LIG     1      29.068  27.616  18.035  1.00  0.00     0.210 C 
ENDBRANCH   6  18
BRANCH  15  20
HETATM   20  O   LIG     1      22.813  18.876  21.199  1.00  0.00    -0.361 OA
HETATM   21  H   LIG     1      23.396  18.053  21.297  1.00  0.00     0.217 HD
ENDBRANCH  15  20
TORSDOF 3
ENDMDL
MODEL 13
REMARK VINA RESULT:      -4.4     14.731     15.322
REMARK  3 active torsions:
REMARK  status: ('A' for Active; 'I' for Inactive)
REMARK    1  A    between atoms: C_4  and  O_5 
REMARK    2  A    between atoms: C_7  and  O_8 
REMARK    3  A    between atoms: C_18  and  O_19 
ROOT
HETATM    1  O   LIG     1      27.502  22.847  23.229  1.00  0.00    -0.286 OA
HETATM    2  C   LIG     1      26.735  23.208  22.294  1.00  0.00     0.200 A 
HETATM    3  C   LIG     1      27.178  24.114  21.305  1.00  0.00     0.082 A 
HETATM    4  C   LIG     1      28.480  24.668  21.294  1.00  0.00     0.085 A 
HETATM    5  C   LIG     1      28.850  25.563  20.279  1.00  0.00     0.074 A 
HETATM    6  C   LIG     1      27.939  25.919  19.268  1.00  0.00     0.073 A 
HETATM    7  C   LIG     1      26.655  25.371  19.281  1.00  0.00     0.075 A 
HETATM    8  C   LIG     1      26.268  24.478  20.283  1.00  0.00     0.095 A 
HETATM    9  O   LIG     1      25.036  23.979  20.261  1.00  0.00    -0.309 OA
HETATM   10  C   LIG     1      24.588  23.126  21.173  1.00  0.00     0.090 A 
HETATM   11  C   LIG     1      23.278  22.644  21.082  1.00  0.00     0.041 A 
HETATM   12  C   LIG     1      22.790  21.746  22.034  1.00  0.00     0.039 A 
HETATM   13  C   LIG     1      25.423  22.704  22.232  1.00  0.00     0.051 A 
HETATM   14  C   LIG     1      24.923  21.799  23.187  1.00  0.00     0.054 A 
HETATM   15  C   LIG     1      23.611  21.322  23.088  1.00  0.00     0.066 A 
ENDROOT
BRANCH   4  16
HETATM   16  O   LIG     1      29.409  24.337  22.282  1.00  0.00    -0.360 OA
HETATM   17  H   LIG     1      29.282  24.612  23.248  1.00  0.00     0.217 HD
ENDBRANCH   4  16
BRANCH   6  18
HETATM   18  O   LIG     1      28.271  26.810  18.236  1.00  0.00    -0.356 OA
HETATM   19  C   LIG     1      29.448  27.612  18.212  1.00  0.00     0.210 C 
ENDBRANCH   6  18
BRANCH  15  20
HETATM   20  O   LIG     1      23.132  20.426  24.042  1.00  0.00    -0.361 OA
HETATM   21  H   LIG     1      22.400  20.687  24.693  1.00  0.00     0.217 HD
ENDBRANCH  15  20
TORSDOF 3
ENDMDL
MODEL 14
REMARK VINA RESULT:      -4.4     14.349     15.388
REMARK  3 active torsions:
REMARK  status: ('A' for Active; 'I' for Inactive)
REMARK    1  A    between atoms: C_4  and  O_5 
REMARK    2  A    between atoms: C_7  and  O_8 
REMARK    3  A    between atoms: C_18  and  O_19 
ROOT
HETATM    1  O   LIG     1      22.979  20.415  20.446  1.00  0.00    -0.286 OA
HETATM    2  C   LIG     1      23.718  21.248  21.039  1.00  0.00     0.200 A 
HETATM    3  C   LIG     1      24.489  22.179  20.308  1.00  0.00     0.082 A 
HETATM    4  C   LIG     1      24.487  22.241  18.895  1.00  0.00     0.085 A 
HETATM    5  C   LIG     1      25.280  23.194  18.236  1.00  0.00     0.074 A 
HETATM    6  C   LIG     1      26.080  24.091  18.966  1.00  0.00     0.073 A 
HETATM    7  C   LIG     1      26.080  24.028  20.361  1.00  0.00     0.075 A 
HETATM    8  C   LIG     1      25.298  23.087  21.035  1.00  0.00     0.095 A 
HETATM    9  O   LIG     1      25.326  23.058  22.363  1.00  0.00    -0.309 OA
HETATM   10  C   LIG     1      24.614  22.198  23.081  1.00  0.00     0.090 A 
HETATM   11  C   LIG     1      24.697  22.229  24.477  1.00  0.00     0.041 A 
HETATM   12  C   LIG     1      23.956  21.331  25.246  1.00  0.00     0.039 A 
HETATM   13  C   LIG     1      23.778  21.253  22.444  1.00  0.00     0.051 A 
HETATM   14  C   LIG     1      23.034  20.351  23.228  1.00  0.00     0.054 A 
HETATM   15  C   LIG     1      23.123  20.390  24.625  1.00  0.00     0.066 A 
ENDROOT
BRANCH   4  16
HETATM   16  O   LIG     1      23.706  21.366  18.139  1.00  0.00    -0.360 OA
HETATM   17  H   LIG     1      23.501  21.540  17.162  1.00  0.00     0.217 HD
ENDBRANCH   4  16
BRANCH   6  18
HETATM   18  O   LIG     1      26.885  25.057  18.344  1.00  0.00    -0.356 OA
HETATM   19  C   LIG     1      27.635  26.048  19.040  1.00  0.00     0.210 C 
ENDBRANCH   6  18
BRANCH  15  20
HETATM   20  O   LIG     1      22.380  19.490  25.385  1.00  0.00    -0.361 OA
HETATM   21  H   LIG     1      21.451  19.199  25.103  1.00  0.00     0.217 HD
ENDBRANCH  15  20
TORSDOF 3
ENDMDL
MODEL 15
REMARK VINA RESULT:      -4.3     14.644     15.079
REMARK  3 active torsions:
REMARK  status: ('A' for Active; 'I' for Inactive)
REMARK    1  A    between atoms: C_4  and  O_5 
REMARK    2  A    between atoms: C_7  and  O_8 
REMARK    3  A    between atoms: C_18  and  O_19 
ROOT
HETATM    1  O   LIG     1      22.482  20.037  22.858  1.00  0.00    -0.286 OA
HETATM    2  C   LIG     1      23.329  20.966  22.750  1.00  0.00     0.200 A 
HETATM    3  C   LIG     1      23.910  21.551  23.898  1.00  0.00     0.082 A 
HETATM    4  C   LIG     1      23.593  21.145  25.215  1.00  0.00     0.085 A 
HETATM    5  C   LIG     1      24.211  21.771  26.308  1.00  0.00     0.074 A 
HETATM    6  C   LIG     1      25.146  22.802  26.109  1.00  0.00     0.073 A 
HETATM    7  C   LIG     1      25.459  23.201  24.808  1.00  0.00     0.075 A 
HETATM    8  C   LIG     1      24.854  22.589  23.707  1.00  0.00     0.095 A 
HETATM    9  O   LIG     1      25.177  22.997  22.485  1.00  0.00    -0.309 OA
HETATM   10  C   LIG     1      24.651  22.471  21.386  1.00  0.00     0.090 A 
HETATM   11  C   LIG     1      25.042  22.955  20.133  1.00  0.00     0.041 A 
HETATM   12  C   LIG     1      24.498  22.412  18.968  1.00  0.00     0.039 A 
HETATM   13  C   LIG     1      23.701  21.429  21.476  1.00  0.00     0.051 A 
HETATM   14  C   LIG     1      23.157  20.888  20.295  1.00  0.00     0.054 A 
HETATM   15  C   LIG     1      23.554  21.379  19.045  1.00  0.00     0.066 A 
ENDROOT
BRANCH   4  16
HETATM   16  O   LIG     1      22.668  20.125  25.449  1.00  0.00    -0.360 OA
HETATM   17  H   LIG     1      22.133  20.076  26.307  1.00  0.00     0.217 HD
ENDBRANCH   4  16
BRANCH   6  18
HETATM   18  O   LIG     1      25.786  23.453  27.175  1.00  0.00    -0.356 OA
HETATM   19  C   LIG     1      26.501  24.679  27.057  1.00  0.00     0.210 C 
ENDBRANCH   6  18
BRANCH  15  20
HETATM   20  O   LIG     1      23.006  20.832  17.887  1.00  0.00    -0.361 OA
HETATM   21  H   LIG     1      22.215  20.199  17.923  1.00  0.00     0.217 HD
ENDBRANCH  15  20
TORSDOF 3
ENDMDL
MODEL 16
REMARK VINA RESULT:      -4.3     18.540     20.532
REMARK  3 active torsions:
REMARK  status: ('A' for Active; 'I' for Inactive)
REMARK    1  A    between atoms: C_4  and  O_5 
REMARK    2  A    between atoms: C_7  and  O_8 
REMARK    3  A    between atoms: C_18  and  O_19 
ROOT
HETATM    1  O   LIG     1      26.206  27.156  32.923  1.00  0.00    -0.286 OA
HETATM    2  C   LIG     1      27.084  28.056  32.808  1.00  0.00     0.200 A 
HETATM    3  C   LIG     1      27.958  28.075  31.699  1.00  0.00     0.082 A 
HETATM    4  C   LIG     1      27.913  27.111  30.664  1.00  0.00     0.085 A 
HETATM    5  C   LIG     1      28.814  27.194  29.592  1.00  0.00     0.074 A 
HETATM    6  C   LIG     1      29.767  28.226  29.532  1.00  0.00     0.073 A 
HETATM    7  C   LIG     1      29.809  29.178  30.554  1.00  0.00     0.075 A 
HETATM    8  C   LIG     1      28.920  29.112  31.630  1.00  0.00     0.095 A 
HETATM    9  O   LIG     1      28.993  30.035  32.583  1.00  0.00    -0.309 OA
HETATM   10  C   LIG     1      28.188  30.047  33.638  1.00  0.00     0.090 A 
HETATM   11  C   LIG     1      28.327  31.053  34.600  1.00  0.00     0.041 A 
HETATM   12  C   LIG     1      27.488  31.080  35.716  1.00  0.00     0.039 A 
HETATM   13  C   LIG     1      27.196  29.053  33.793  1.00  0.00     0.051 A 
HETATM   14  C   LIG     1      26.355  29.088  34.922  1.00  0.00     0.054 A 
HETATM   15  C   LIG     1      26.501  30.099  35.880  1.00  0.00     0.066 A 
ENDROOT
BRANCH   4  16
HETATM   16  O   LIG     1      26.981  26.072  30.692  1.00  0.00    -0.360 OA
HETATM   17  H   LIG     1      26.814  25.483  29.885  1.00  0.00     0.217 HD
ENDBRANCH   4  16
BRANCH   6  18
HETATM   18  O   LIG     1      30.684  28.344  28.477  1.00  0.00    -0.356 OA
HETATM   19  C   LIG     1      30.335  28.694  27.142  1.00  0.00     0.210 C 
ENDBRANCH   6  18
BRANCH  15  20
HETATM   20  O   LIG     1      25.660  30.118  36.990  1.00  0.00    -0.361 OA
HETATM   21  H   LIG     1      25.330  30.990  37.390  1.00  0.00     0.217 HD
ENDBRANCH  15  20
TORSDOF 3
ENDMDL
MODEL 17
REMARK VINA RESULT:      -4.3     14.477     14.910
REMARK  3 active torsions:
REMARK  status: ('A' for Active; 'I' for Inactive)
REMARK    1  A    between atoms: C_4  and  O_5 
REMARK    2  A    between atoms: C_7  and  O_8 
REMARK    3  A    between atoms: C_18  and  O_19 
ROOT
HETATM    1  O   LIG     1      25.638  24.292  17.997  1.00  0.00    -0.286 OA
HETATM    2  C   LIG     1      25.699  23.687  19.103  1.00  0.00     0.200 A 
HETATM    3  C   LIG     1      26.561  24.138  20.128  1.00  0.00     0.082 A 
HETATM    4  C   LIG     1      27.395  25.272  19.990  1.00  0.00     0.085 A 
HETATM    5  C   LIG     1      28.225  25.662  21.051  1.00  0.00     0.074 A 
HETATM    6  C   LIG     1      28.241  24.937  22.255  1.00  0.00     0.073 A 
HETATM    7  C   LIG     1      27.416  23.817  22.390  1.00  0.00     0.075 A 
HETATM    8  C   LIG     1      26.583  23.413  21.344  1.00  0.00     0.095 A 
HETATM    9  O   LIG     1      25.814  22.342  21.510  1.00  0.00    -0.309 OA
HETATM   10  C   LIG     1      24.993  21.891  20.569  1.00  0.00     0.090 A 
HETATM   11  C   LIG     1      24.215  20.756  20.819  1.00  0.00     0.041 A 
HETATM   12  C   LIG     1      23.347  20.268  19.841  1.00  0.00     0.039 A 
HETATM   13  C   LIG     1      24.903  22.548  19.322  1.00  0.00     0.051 A 
HETATM   14  C   LIG     1      24.025  22.049  18.341  1.00  0.00     0.054 A 
HETATM   15  C   LIG     1      23.250  20.912  18.600  1.00  0.00     0.066 A 
ENDROOT
BRANCH   4  16
HETATM   16  O   LIG     1      27.406  26.016  18.808  1.00  0.00    -0.360 OA
HETATM   17  H   LIG     1      26.552  26.362  18.387  1.00  0.00     0.217 HD
ENDBRANCH   4  16
BRANCH   6  18
HETATM   18  O   LIG     1      29.056  25.294  23.340  1.00  0.00    -0.356 OA
HETATM   19  C   LIG     1      28.861  26.452  24.146  1.00  0.00     0.210 C 
ENDBRANCH   6  18
BRANCH  15  20
HETATM   20  O   LIG     1      22.387  20.432  17.618  1.00  0.00    -0.361 OA
HETATM   21  H   LIG     1      21.720  21.040  17.155  1.00  0.00     0.217 HD
ENDBRANCH  15  20
TORSDOF 3
ENDMDL
MODEL 18
REMARK VINA RESULT:      -4.2     14.975     15.438
REMARK  3 active torsions:
REMARK  status: ('A' for Active; 'I' for Inactive)
REMARK    1  A    between atoms: C_4  and  O_5 
REMARK    2  A    between atoms: C_7  and  O_8 
REMARK    3  A    between atoms: C_18  and  O_19 
ROOT
HETATM    1  O   LIG     1      27.469  23.374  21.367  1.00  0.00    -0.286 OA
HETATM    2  C   LIG     1      26.421  23.131  22.027  1.00  0.00     0.200 A 
HETATM    3  C   LIG     1      26.408  23.253  23.434  1.00  0.00     0.082 A 
HETATM    4  C   LIG     1      27.541  23.646  24.184  1.00  0.00     0.085 A 
HETATM    5  C   LIG     1      27.454  23.746  25.581  1.00  0.00     0.074 A 
HETATM    6  C   LIG     1      26.251  23.458  26.248  1.00  0.00     0.073 A 
HETATM    7  C   LIG     1      25.133  23.071  25.506  1.00  0.00     0.075 A 
HETATM    8  C   LIG     1      25.200  22.965  24.115  1.00  0.00     0.095 A 
HETATM    9  O   LIG     1      24.115  22.593  23.444  1.00  0.00    -0.309 OA
HETATM   10  C   LIG     1      24.091  22.468  22.122  1.00  0.00     0.090 A 
HETATM   11  C   LIG     1      22.910  22.070  21.488  1.00  0.00     0.041 A 
HETATM   12  C   LIG     1      22.868  21.935  20.099  1.00  0.00     0.039 A 
HETATM   13  C   LIG     1      25.249  22.734  21.358  1.00  0.00     0.051 A 
HETATM   14  C   LIG     1      25.198  22.593  19.957  1.00  0.00     0.054 A 
HETATM   15  C   LIG     1      24.012  22.195  19.331  1.00  0.00     0.066 A 
ENDROOT
BRANCH   4  16
HETATM   16  O   LIG     1      28.752  23.939  23.555  1.00  0.00    -0.360 OA
HETATM   17  H   LIG     1      29.572  23.357  23.677  1.00  0.00     0.217 HD
ENDBRANCH   4  16
BRANCH   6  18
HETATM   18  O   LIG     1      26.123  23.546  27.643  1.00  0.00    -0.356 OA
HETATM   19  C   LIG     1      26.588  24.642  28.426  1.00  0.00     0.210 C 
ENDBRANCH   6  18
BRANCH  15  20
HETATM   20  O   LIG     1      23.979  22.062  17.944  1.00  0.00    -0.361 OA
HETATM   21  H   LIG     1      23.112  21.888  17.449  1.00  0.00     0.217 HD
ENDBRANCH  15  20
TORSDOF 3
ENDMDL
MODEL 19
REMARK VINA RESULT:      -4.2     14.487     15.194
REMARK  3 active torsions:
REMARK  status: ('A' for Active; 'I' for Inactive)
REMARK    1  A    between atoms: C_4  and  O_5 
REMARK    2  A    between atoms: C_7  and  O_8 
REMARK    3  A    between atoms: C_18  and  O_19 
ROOT
HETATM    1  O   LIG     1      27.007  24.403  21.733  1.00  0.00    -0.286 OA
HETATM    2  C   LIG     1      26.787  24.184  20.510  1.00  0.00     0.200 A 
HETATM    3  C   LIG     1      27.649  24.701  19.516  1.00  0.00     0.082 A 
HETATM    4  C   LIG     1      28.791  25.480  19.816  1.00  0.00     0.085 A 
HETATM    5  C   LIG     1      29.602  25.960  18.776  1.00  0.00     0.074 A 
HETATM    6  C   LIG     1      29.293  25.675  17.434  1.00  0.00     0.073 A 
HETATM    7  C   LIG     1      28.165  24.904  17.141  1.00  0.00     0.075 A 
HETATM    8  C   LIG     1      27.346  24.418  18.162  1.00  0.00     0.095 A 
HETATM    9  O   LIG     1      26.281  23.689  17.843  1.00  0.00    -0.309 OA
HETATM   10  C   LIG     1      25.451  23.189  18.750  1.00  0.00     0.090 A 
HETATM   11  C   LIG     1      24.351  22.431  18.334  1.00  0.00     0.041 A 
HETATM   12  C   LIG     1      23.469  21.898  19.275  1.00  0.00     0.039 A 
HETATM   13  C   LIG     1      25.672  23.418  20.126  1.00  0.00     0.051 A 
HETATM   14  C   LIG     1      24.776  22.876  21.068  1.00  0.00     0.054 A 
HETATM   15  C   LIG     1      23.678  22.119  20.643  1.00  0.00     0.066 A 
ENDROOT
BRANCH   4  16
HETATM   16  O   LIG     1      29.127  25.783  21.136  1.00  0.00    -0.360 OA
HETATM   17  H   LIG     1      29.155  25.072  21.857  1.00  0.00     0.217 HD
ENDBRANCH   4  16
BRANCH   6  18
HETATM   18  O   LIG     1      30.078  26.135  16.367  1.00  0.00    -0.356 OA
HETATM   19  C   LIG     1      29.559  26.555  15.108  1.00  0.00     0.210 C 
ENDBRANCH   6  18
BRANCH  15  20
HETATM   20  O   LIG     1      22.802  21.590  21.589  1.00  0.00    -0.361 OA
HETATM   21  H   LIG     1      22.156  22.180  22.100  1.00  0.00     0.217 HD
ENDBRANCH  15  20
TORSDOF 3
ENDMDL
MODEL 20
REMARK VINA RESULT:      -4.2     14.299     15.075
REMARK  3 active torsions:
REMARK  status: ('A' for Active; 'I' for Inactive)
REMARK    1  A    between atoms: C_4  and  O_5 
REMARK    2  A    between atoms: C_7  and  O_8 
REMARK    3  A    between atoms: C_18  and  O_19 
ROOT
HETATM    1  O   LIG     1      24.318  22.494  17.880  1.00  0.00    -0.286 OA
HETATM    2  C   LIG     1      24.132  21.761  18.890  1.00  0.00     0.200 A 
HETATM    3  C   LIG     1      24.677  22.109  20.146  1.00  0.00     0.082 A 
HETATM    4  C   LIG     1      25.450  23.276  20.355  1.00  0.00     0.085 A 
HETATM    5  C   LIG     1      25.959  23.558  21.632  1.00  0.00     0.074 A 
HETATM    6  C   LIG     1      25.711  22.692  22.711  1.00  0.00     0.073 A 
HETATM    7  C   LIG     1      24.947  21.541  22.503  1.00  0.00     0.075 A 
HETATM    8  C   LIG     1      24.432  21.243  21.239  1.00  0.00     0.095 A 
HETATM    9  O   LIG     1      23.711  20.138  21.081  1.00  0.00    -0.309 OA
HETATM   10  C   LIG     1      23.184  19.781  19.916  1.00  0.00     0.090 A 
HETATM   11  C   LIG     1      22.437  18.602  19.830  1.00  0.00     0.041 A 
HETATM   12  C   LIG     1      21.876  18.212  18.612  1.00  0.00     0.039 A 
HETATM   13  C   LIG     1      23.375  20.582  18.769  1.00  0.00     0.051 A 
HETATM   14  C   LIG     1      22.807  20.181  17.545  1.00  0.00     0.054 A 
HETATM   15  C   LIG     1      22.060  18.999  17.467  1.00  0.00     0.066 A 
ENDROOT
BRANCH   4  16
HETATM   16  O   LIG     1      25.717  24.157  19.306  1.00  0.00    -0.360 OA
HETATM   17  H   LIG     1      26.662  24.356  19.003  1.00  0.00     0.217 HD
ENDBRANCH   4  16
BRANCH   6  18
HETATM   18  O   LIG     1      26.202  22.938  24.002  1.00  0.00    -0.356 OA
HETATM   19  C   LIG     1      25.382  23.181  25.142  1.00  0.00     0.210 C 
ENDBRANCH   6  18
BRANCH  15  20
HETATM   20  O   LIG     1      21.505  18.617  16.248  1.00  0.00    -0.361 OA
HETATM   21  H   LIG     1      21.580  17.666  15.906  1.00  0.00     0.217 HD
ENDBRANCH  15  20
TORSDOF 3
ENDMDL
