REMARK  5 active torsions:
REMARK  status: ('A' for Active; 'I' for Inactive)
REMARK    1  A    between atoms: O_1  and  C_2 
REMARK    2  A    between atoms: C_2  and  C_3 
REMARK    3  A    between atoms: C_8  and  N_9 
REMARK    4  A    between atoms: N_9  and  C_10 
REMARK    5  A    between atoms: C_14  and  C_15 
ROOT
HETATM    1  N   LIG     1      -0.290   0.834  -1.043  1.00  0.00    -0.340 N 
HETATM    2  H   LIG     1      -0.084   1.212  -1.995  1.00  0.00     0.167 HD
ENDROOT
BRANCH   1   3
HETATM    3  C   LIG     1      -1.581   1.121  -0.490  1.00  0.00     0.144 A 
HETATM    4  C   LIG     1      -2.421   0.103   0.026  1.00  0.00     0.083 A 
HETATM    5  C   LIG     1      -3.639   0.483   0.616  1.00  0.00     0.024 A 
HETATM    6  C   LIG     1      -4.020   1.824   0.649  1.00  0.00     0.020 A 
HETATM    7  C   LIG     1      -3.183   2.786   0.090  1.00  0.00     0.119 A 
HETATM    8  N   LIG     1      -1.996   2.418  -0.458  1.00  0.00    -0.242 NA
BRANCH   4   9
HETATM    9  C   LIG     1      -2.084  -1.337  -0.077  1.00  0.00     0.180 C 
HETATM   10  O   LIG     1      -2.618  -2.170   0.704  1.00  0.00    -0.646 OA
BRANCH   9  11
HETATM   11  O   LIG     1      -1.205  -1.792  -1.056  1.00  0.00    -0.773 OA
HETATM   12  H   LIG     1      -0.975  -2.776  -1.133  1.00  0.00     0.167 HD
ENDBRANCH   9  11
ENDBRANCH   4   9
ENDBRANCH   1   3
BRANCH   1  13
HETATM   13  C   LIG     1       0.791   0.251  -0.289  1.00  0.00     0.034 A 
HETATM   14  C   LIG     1       0.730   0.124   1.110  1.00  0.00     0.029 A 
HETATM   15  C   LIG     1       1.800  -0.431   1.815  1.00  0.00     0.003 A 
HETATM   16  C   LIG     1       2.939  -0.867   1.135  1.00  0.00     0.016 A 
HETATM   17  C   LIG     1       3.014  -0.764  -0.265  1.00  0.00     0.050 A 
HETATM   18  C   LIG     1       1.944  -0.179  -0.965  1.00  0.00     0.045 A 
BRANCH  17  19
HETATM   19  C   LIG     1       4.264  -1.186  -0.996  1.00  0.00     0.417 C 
HETATM   20  F   LIG     1       4.901  -2.216  -0.326  1.00  0.00    -0.166 F 
HETATM   21  F   LIG     1       3.957  -1.625  -2.272  1.00  0.00    -0.166 F 
HETATM   22  F   LIG     1       5.124  -0.107  -1.085  1.00  0.00    -0.166 F 
ENDBRANCH  17  19
ENDBRANCH   1  13
TORSDOF 5
