MODEL 1
REMARK VINA RESULT:      -8.5      0.000      0.000
REMARK  5 active torsions:
REMARK  status: ('A' for Active; 'I' for Inactive)
REMARK    1  A    between atoms: O_1  and  C_2 
REMARK    2  A    between atoms: C_2  and  C_3 
REMARK    3  A    between atoms: C_8  and  N_9 
REMARK    4  A    between atoms: N_9  and  C_10 
REMARK    5  A    between atoms: C_14  and  C_15 
ROOT
HETATM    1  N   LIG     1      16.847  38.077  22.291  1.00  0.00    -0.340 N 
HETATM    2  H   LIG     1      15.856  38.154  21.968  1.00  0.00     0.167 HD
ENDROOT
BRANCH   1   3
HETATM    3  C   LIG     1      17.861  38.004  21.281  1.00  0.00     0.144 A 
HETATM    4  C   LIG     1      17.958  36.905  20.391  1.00  0.00     0.083 A 
HETATM    5  C   LIG     1      18.938  36.950  19.385  1.00  0.00     0.024 A 
HETATM    6  C   LIG     1      19.814  38.032  19.300  1.00  0.00     0.020 A 
HETATM    7  C   LIG     1      19.711  39.069  20.223  1.00  0.00     0.119 A 
HETATM    8  N   LIG     1      18.748  39.033  21.180  1.00  0.00    -0.242 NA
BRANCH   4   9
HETATM    9  C   LIG     1      17.101  35.702  20.515  1.00  0.00     0.180 C 
HETATM   10  O   LIG     1      17.113  35.021  21.576  1.00  0.00    -0.646 OA
BRANCH   9  11
HETATM   11  O   LIG     1      16.248  35.328  19.479  1.00  0.00    -0.773 OA
HETATM   12  H   LIG     1      15.821  34.410  19.462  1.00  0.00     0.167 HD
ENDBRANCH   9  11
ENDBRANCH   4   9
ENDBRANCH   1   3
BRANCH   1  13
HETATM   13  C   LIG     1      17.094  37.840  23.691  1.00  0.00     0.034 A 
HETATM   14  C   LIG     1      17.163  38.896  24.617  1.00  0.00     0.029 A 
HETATM   15  C   LIG     1      17.419  38.635  25.965  1.00  0.00     0.003 A 
HETATM   16  C   LIG     1      17.606  37.323  26.404  1.00  0.00     0.016 A 
HETATM   17  C   LIG     1      17.525  36.252  25.498  1.00  0.00     0.050 A 
HETATM   18  C   LIG     1      17.294  36.524  24.138  1.00  0.00     0.045 A 
BRANCH  17  19
HETATM   19  C   LIG     1      17.778  34.839  25.961  1.00  0.00     0.417 C 
HETATM   20  F   LIG     1      18.817  34.800  26.873  1.00  0.00    -0.166 F 
HETATM   21  F   LIG     1      16.650  34.316  26.568  1.00  0.00    -0.166 F 
HETATM   22  F   LIG     1      18.107  34.056  24.870  1.00  0.00    -0.166 F 
ENDBRANCH  17  19
ENDBRANCH   1  13
TORSDOF 5
ENDMDL
MODEL 2
REMARK VINA RESULT:      -7.8      3.640      5.624
REMARK  5 active torsions:
REMARK  status: ('A' for Active; 'I' for Inactive)
REMARK    1  A    between atoms: O_1  and  C_2 
REMARK    2  A    between atoms: C_2  and  C_3 
REMARK    3  A    between atoms: C_8  and  N_9 
REMARK    4  A    between atoms: N_9  and  C_10 
REMARK    5  A    between atoms: C_14  and  C_15 
ROOT
HETATM    1  N   LIG     1      16.551  35.784  21.483  1.00  0.00    -0.340 N 
HETATM    2  H   LIG     1      16.145  35.672  22.439  1.00  0.00     0.167 HD
ENDROOT
BRANCH   1   3
HETATM    3  C   LIG     1      17.394  36.922  21.259  1.00  0.00     0.144 A 
HETATM    4  C   LIG     1      17.371  38.054  22.111  1.00  0.00     0.083 A 
HETATM    5  C   LIG     1      18.284  39.093  21.860  1.00  0.00     0.024 A 
HETATM    6  C   LIG     1      19.155  39.020  20.773  1.00  0.00     0.020 A 
HETATM    7  C   LIG     1      19.112  37.908  19.936  1.00  0.00     0.119 A 
HETATM    8  N   LIG     1      18.246  36.896  20.196  1.00  0.00    -0.242 NA
BRANCH   4   9
HETATM    9  C   LIG     1      16.395  38.199  23.218  1.00  0.00     0.180 C 
HETATM   10  O   LIG     1      16.793  38.482  24.380  1.00  0.00    -0.646 OA
BRANCH   9  11
HETATM   11  O   LIG     1      15.030  38.060  22.983  1.00  0.00    -0.773 OA
HETATM   12  H   LIG     1      14.688  37.666  22.114  1.00  0.00     0.167 HD
ENDBRANCH   9  11
ENDBRANCH   4   9
ENDBRANCH   1   3
BRANCH   1  13
HETATM   13  C   LIG     1      16.070  34.926  20.429  1.00  0.00     0.034 A 
HETATM   14  C   LIG     1      15.879  35.402  19.120  1.00  0.00     0.029 A 
HETATM   15  C   LIG     1      15.397  34.550  18.124  1.00  0.00     0.003 A 
HETATM   16  C   LIG     1      15.104  33.217  18.420  1.00  0.00     0.016 A 
HETATM   17  C   LIG     1      15.304  32.717  19.719  1.00  0.00     0.050 A 
HETATM   18  C   LIG     1      15.763  33.588  20.723  1.00  0.00     0.045 A 
BRANCH  17  19
HETATM   19  C   LIG     1      14.938  31.292  20.053  1.00  0.00     0.417 C 
HETATM   20  F   LIG     1      14.074  31.247  21.133  1.00  0.00    -0.166 F 
HETATM   21  F   LIG     1      14.318  30.683  18.976  1.00  0.00    -0.166 F 
HETATM   22  F   LIG     1      16.088  30.591  20.367  1.00  0.00    -0.166 F 
ENDBRANCH  17  19
ENDBRANCH   1  13
TORSDOF 5
ENDMDL
MODEL 3
REMARK VINA RESULT:      -7.8      8.906     11.359
REMARK  5 active torsions:
REMARK  status: ('A' for Active; 'I' for Inactive)
REMARK    1  A    between atoms: O_1  and  C_2 
REMARK    2  A    between atoms: C_2  and  C_3 
REMARK    3  A    between atoms: C_8  and  N_9 
REMARK    4  A    between atoms: N_9  and  C_10 
REMARK    5  A    between atoms: C_14  and  C_15 
ROOT
HETATM    1  N   LIG     1      17.567  32.989  15.060  1.00  0.00    -0.340 N 
HETATM    2  H   LIG     1      18.195  33.046  15.893  1.00  0.00     0.167 HD
ENDROOT
BRANCH   1   3
HETATM    3  C   LIG     1      16.424  32.130  15.160  1.00  0.00     0.144 A 
HETATM    4  C   LIG     1      15.348  32.410  16.038  1.00  0.00     0.083 A 
HETATM    5  C   LIG     1      14.234  31.553  16.018  1.00  0.00     0.024 A 
HETATM    6  C   LIG     1      14.217  30.436  15.183  1.00  0.00     0.020 A 
HETATM    7  C   LIG     1      15.315  30.176  14.368  1.00  0.00     0.119 A 
HETATM    8  N   LIG     1      16.380  31.019  14.373  1.00  0.00    -0.242 NA
BRANCH   4   9
HETATM    9  C   LIG     1      15.378  33.536  17.002  1.00  0.00     0.180 C 
HETATM   10  O   LIG     1      15.609  34.708  16.599  1.00  0.00    -0.646 OA
BRANCH   9  11
HETATM   11  O   LIG     1      15.117  33.322  18.352  1.00  0.00    -0.773 OA
HETATM   12  H   LIG     1      14.166  33.304  18.703  1.00  0.00     0.167 HD
ENDBRANCH   9  11
ENDBRANCH   4   9
ENDBRANCH   1   3
BRANCH   1  13
HETATM   13  C   LIG     1      18.006  33.596  13.828  1.00  0.00     0.034 A 
HETATM   14  C   LIG     1      17.101  34.212  12.947  1.00  0.00     0.029 A 
HETATM   15  C   LIG     1      17.554  34.779  11.753  1.00  0.00     0.003 A 
HETATM   16  C   LIG     1      18.911  34.739  11.427  1.00  0.00     0.016 A 
HETATM   17  C   LIG     1      19.835  34.141  12.302  1.00  0.00     0.050 A 
HETATM   18  C   LIG     1      19.368  33.549  13.489  1.00  0.00     0.045 A 
BRANCH  17  19
HETATM   19  C   LIG     1      21.293  34.051  11.928  1.00  0.00     0.417 C 
HETATM   20  F   LIG     1      21.696  35.186  11.245  1.00  0.00    -0.166 F 
HETATM   21  F   LIG     1      22.080  33.926  13.059  1.00  0.00    -0.166 F 
HETATM   22  F   LIG     1      21.487  32.947  11.119  1.00  0.00    -0.166 F 
ENDBRANCH  17  19
ENDBRANCH   1  13
TORSDOF 5
ENDMDL
MODEL 4
REMARK VINA RESULT:      -7.7      4.187      5.774
REMARK  5 active torsions:
REMARK  status: ('A' for Active; 'I' for Inactive)
REMARK    1  A    between atoms: O_1  and  C_2 
REMARK    2  A    between atoms: C_2  and  C_3 
REMARK    3  A    between atoms: C_8  and  N_9 
REMARK    4  A    between atoms: N_9  and  C_10 
REMARK    5  A    between atoms: C_14  and  C_15 
ROOT
HETATM    1  N   LIG     1      15.467  34.573  20.707  1.00  0.00    -0.340 N 
HETATM    2  H   LIG     1      15.100  34.003  21.503  1.00  0.00     0.167 HD
ENDROOT
BRANCH   1   3
HETATM    3  C   LIG     1      15.341  34.017  19.392  1.00  0.00     0.144 A 
HETATM    4  C   LIG     1      14.893  32.690  19.176  1.00  0.00     0.083 A 
HETATM    5  C   LIG     1      14.729  32.252  17.850  1.00  0.00     0.024 A 
HETATM    6  C   LIG     1      15.043  33.095  16.784  1.00  0.00     0.020 A 
HETATM    7  C   LIG     1      15.523  34.376  17.044  1.00  0.00     0.119 A 
HETATM    8  N   LIG     1      15.657  34.804  18.326  1.00  0.00    -0.242 NA
BRANCH   4   9
HETATM    9  C   LIG     1      14.639  31.744  20.288  1.00  0.00     0.180 C 
HETATM   10  O   LIG     1      15.163  30.597  20.276  1.00  0.00    -0.646 OA
BRANCH   9  11
HETATM   11  O   LIG     1      13.853  32.119  21.374  1.00  0.00    -0.773 OA
HETATM   12  H   LIG     1      12.873  31.863  21.421  1.00  0.00     0.167 HD
ENDBRANCH   9  11
ENDBRANCH   4   9
ENDBRANCH   1   3
BRANCH   1  13
HETATM   13  C   LIG     1      16.248  35.746  21.008  1.00  0.00     0.034 A 
HETATM   14  C   LIG     1      15.907  36.607  22.066  1.00  0.00     0.029 A 
HETATM   15  C   LIG     1      16.674  37.746  22.324  1.00  0.00     0.003 A 
HETATM   16  C   LIG     1      17.787  38.037  21.533  1.00  0.00     0.016 A 
HETATM   17  C   LIG     1      18.155  37.181  20.480  1.00  0.00     0.050 A 
HETATM   18  C   LIG     1      17.362  36.051  20.210  1.00  0.00     0.045 A 
BRANCH  17  19
HETATM   19  C   LIG     1      19.326  37.521  19.593  1.00  0.00     0.417 C 
HETATM   20  F   LIG     1      20.138  36.415  19.405  1.00  0.00    -0.166 F 
HETATM   21  F   LIG     1      18.888  37.951  18.353  1.00  0.00    -0.166 F 
HETATM   22  F   LIG     1      20.066  38.528  20.184  1.00  0.00    -0.166 F 
ENDBRANCH  17  19
ENDBRANCH   1  13
TORSDOF 5
ENDMDL
MODEL 5
REMARK VINA RESULT:      -7.7      6.255      8.194
REMARK  5 active torsions:
REMARK  status: ('A' for Active; 'I' for Inactive)
REMARK    1  A    between atoms: O_1  and  C_2 
REMARK    2  A    between atoms: C_2  and  C_3 
REMARK    3  A    between atoms: C_8  and  N_9 
REMARK    4  A    between atoms: N_9  and  C_10 
REMARK    5  A    between atoms: C_14  and  C_15 
ROOT
HETATM    1  N   LIG     1      14.973  33.032  16.508  1.00  0.00    -0.340 N 
HETATM    2  H   LIG     1      14.923  33.977  16.067  1.00  0.00     0.167 HD
ENDROOT
BRANCH   1   3
HETATM    3  C   LIG     1      14.761  31.899  15.656  1.00  0.00     0.144 A 
HETATM    4  C   LIG     1      15.679  31.542  14.637  1.00  0.00     0.083 A 
HETATM    5  C   LIG     1      15.429  30.373  13.897  1.00  0.00     0.024 A 
HETATM    6  C   LIG     1      14.282  29.617  14.138  1.00  0.00     0.020 A 
HETATM    7  C   LIG     1      13.385  30.030  15.120  1.00  0.00     0.119 A 
HETATM    8  N   LIG     1      13.642  31.146  15.849  1.00  0.00    -0.242 NA
BRANCH   4   9
HETATM    9  C   LIG     1      16.857  32.376  14.298  1.00  0.00     0.180 C 
HETATM   10  O   LIG     1      17.589  32.841  15.212  1.00  0.00    -0.646 OA
BRANCH   9  11
HETATM   11  O   LIG     1      17.190  32.627  12.969  1.00  0.00    -0.773 OA
HETATM   12  H   LIG     1      18.130  32.466  12.629  1.00  0.00     0.167 HD
ENDBRANCH   9  11
ENDBRANCH   4   9
ENDBRANCH   1   3
BRANCH   1  13
HETATM   13  C   LIG     1      15.037  32.950  17.946  1.00  0.00     0.034 A 
HETATM   14  C   LIG     1      14.686  31.775  18.634  1.00  0.00     0.029 A 
HETATM   15  C   LIG     1      14.742  31.731  20.028  1.00  0.00     0.003 A 
HETATM   16  C   LIG     1      15.151  32.854  20.751  1.00  0.00     0.016 A 
HETATM   17  C   LIG     1      15.522  34.033  20.082  1.00  0.00     0.050 A 
HETATM   18  C   LIG     1      15.436  34.078  18.679  1.00  0.00     0.045 A 
BRANCH  17  19
HETATM   19  C   LIG     1      15.914  35.263  20.863  1.00  0.00     0.417 C 
HETATM   20  F   LIG     1      16.443  34.916  22.094  1.00  0.00    -0.166 F 
HETATM   21  F   LIG     1      16.866  35.994  20.174  1.00  0.00    -0.166 F 
HETATM   22  F   LIG     1      14.795  36.051  21.059  1.00  0.00    -0.166 F 
ENDBRANCH  17  19
ENDBRANCH   1  13
TORSDOF 5
ENDMDL
MODEL 6
REMARK VINA RESULT:      -7.7      4.828      6.448
REMARK  5 active torsions:
REMARK  status: ('A' for Active; 'I' for Inactive)
REMARK    1  A    between atoms: O_1  and  C_2 
REMARK    2  A    between atoms: C_2  and  C_3 
REMARK    3  A    between atoms: C_8  and  N_9 
REMARK    4  A    between atoms: N_9  and  C_10 
REMARK    5  A    between atoms: C_14  and  C_15 
ROOT
HETATM    1  N   LIG     1      14.903  34.467  18.311  1.00  0.00    -0.340 N 
HETATM    2  H   LIG     1      13.869  34.496  18.455  1.00  0.00     0.167 HD
ENDROOT
BRANCH   1   3
HETATM    3  C   LIG     1      15.383  33.787  17.144  1.00  0.00     0.144 A 
HETATM    4  C   LIG     1      14.953  32.481  16.804  1.00  0.00     0.083 A 
HETATM    5  C   LIG     1      15.420  31.920  15.603  1.00  0.00     0.024 A 
HETATM    6  C   LIG     1      16.314  32.622  14.795  1.00  0.00     0.020 A 
HETATM    7  C   LIG     1      16.744  33.886  15.191  1.00  0.00     0.119 A 
HETATM    8  N   LIG     1      16.273  34.434  16.341  1.00  0.00    -0.242 NA
BRANCH   4   9
HETATM    9  C   LIG     1      14.076  31.675  17.687  1.00  0.00     0.180 C 
HETATM   10  O   LIG     1      13.207  30.910  17.189  1.00  0.00    -0.646 OA
BRANCH   9  11
HETATM   11  O   LIG     1      14.223  31.726  19.071  1.00  0.00    -0.773 OA
HETATM   12  H   LIG     1      15.119  31.541  19.507  1.00  0.00     0.167 HD
ENDBRANCH   9  11
ENDBRANCH   4   9
ENDBRANCH   1   3
BRANCH   1  13
HETATM   13  C   LIG     1      15.756  34.913  19.384  1.00  0.00     0.034 A 
HETATM   14  C   LIG     1      15.506  34.558  20.721  1.00  0.00     0.029 A 
HETATM   15  C   LIG     1      16.341  35.018  21.741  1.00  0.00     0.003 A 
HETATM   16  C   LIG     1      17.434  35.834  21.440  1.00  0.00     0.016 A 
HETATM   17  C   LIG     1      17.711  36.188  20.108  1.00  0.00     0.050 A 
HETATM   18  C   LIG     1      16.850  35.743  19.090  1.00  0.00     0.045 A 
BRANCH  17  19
HETATM   19  C   LIG     1      18.860  37.111  19.786  1.00  0.00     0.417 C 
HETATM   20  F   LIG     1      19.046  38.035  20.800  1.00  0.00    -0.166 F 
HETATM   21  F   LIG     1      20.033  36.393  19.634  1.00  0.00    -0.166 F 
HETATM   22  F   LIG     1      18.586  37.783  18.610  1.00  0.00    -0.166 F 
ENDBRANCH  17  19
ENDBRANCH   1  13
TORSDOF 5
ENDMDL
MODEL 7
REMARK VINA RESULT:      -7.5      4.637      6.480
REMARK  5 active torsions:
REMARK  status: ('A' for Active; 'I' for Inactive)
REMARK    1  A    between atoms: O_1  and  C_2 
REMARK    2  A    between atoms: C_2  and  C_3 
REMARK    3  A    between atoms: C_8  and  N_9 
REMARK    4  A    between atoms: N_9  and  C_10 
REMARK    5  A    between atoms: C_14  and  C_15 
ROOT
HETATM    1  N   LIG     1      16.156  35.606  21.343  1.00  0.00    -0.340 N 
HETATM    2  H   LIG     1      15.546  35.784  22.172  1.00  0.00     0.167 HD
ENDROOT
BRANCH   1   3
HETATM    3  C   LIG     1      17.151  36.592  21.039  1.00  0.00     0.144 A 
HETATM    4  C   LIG     1      17.326  37.753  21.832  1.00  0.00     0.083 A 
HETATM    5  C   LIG     1      18.375  38.630  21.503  1.00  0.00     0.024 A 
HETATM    6  C   LIG     1      19.188  38.377  20.398  1.00  0.00     0.020 A 
HETATM    7  C   LIG     1      18.951  37.246  19.621  1.00  0.00     0.119 A 
HETATM    8  N   LIG     1      17.952  36.389  19.956  1.00  0.00    -0.242 NA
BRANCH   4   9
HETATM    9  C   LIG     1      16.422  38.095  22.955  1.00  0.00     0.180 C 
HETATM   10  O   LIG     1      16.897  38.481  24.057  1.00  0.00    -0.646 OA
BRANCH   9  11
HETATM   11  O   LIG     1      15.040  38.030  22.799  1.00  0.00    -0.773 OA
HETATM   12  H   LIG     1      14.553  37.142  22.835  1.00  0.00     0.167 HD
ENDBRANCH   9  11
ENDBRANCH   4   9
ENDBRANCH   1   3
BRANCH   1  13
HETATM   13  C   LIG     1      15.816  34.516  20.464  1.00  0.00     0.034 A 
HETATM   14  C   LIG     1      15.737  33.191  20.928  1.00  0.00     0.029 A 
HETATM   15  C   LIG     1      15.420  32.154  20.048  1.00  0.00     0.003 A 
HETATM   16  C   LIG     1      15.175  32.425  18.701  1.00  0.00     0.016 A 
HETATM   17  C   LIG     1      15.233  33.745  18.219  1.00  0.00     0.050 A 
HETATM   18  C   LIG     1      15.579  34.780  19.105  1.00  0.00     0.045 A 
BRANCH  17  19
HETATM   19  C   LIG     1      15.020  34.033  16.754  1.00  0.00     0.417 C 
HETATM   20  F   LIG     1      16.149  34.610  16.198  1.00  0.00    -0.166 F 
HETATM   21  F   LIG     1      14.746  32.866  16.063  1.00  0.00    -0.166 F 
HETATM   22  F   LIG     1      13.954  34.903  16.613  1.00  0.00    -0.166 F 
ENDBRANCH  17  19
ENDBRANCH   1  13
TORSDOF 5
ENDMDL
MODEL 8
REMARK VINA RESULT:      -7.0      5.857      8.237
REMARK  5 active torsions:
REMARK  status: ('A' for Active; 'I' for Inactive)
REMARK    1  A    between atoms: O_1  and  C_2 
REMARK    2  A    between atoms: C_2  and  C_3 
REMARK    3  A    between atoms: C_8  and  N_9 
REMARK    4  A    between atoms: N_9  and  C_10 
REMARK    5  A    between atoms: C_14  and  C_15 
ROOT
HETATM    1  N   LIG     1      15.067  34.847  18.251  1.00  0.00    -0.340 N 
HETATM    2  H   LIG     1      14.248  35.486  18.138  1.00  0.00     0.167 HD
ENDROOT
BRANCH   1   3
HETATM    3  C   LIG     1      15.957  35.110  19.343  1.00  0.00     0.144 A 
HETATM    4  C   LIG     1      15.869  34.408  20.571  1.00  0.00     0.083 A 
HETATM    5  C   LIG     1      16.829  34.679  21.561  1.00  0.00     0.024 A 
HETATM    6  C   LIG     1      17.812  35.645  21.347  1.00  0.00     0.020 A 
HETATM    7  C   LIG     1      17.833  36.342  20.142  1.00  0.00     0.119 A 
HETATM    8  N   LIG     1      16.918  36.061  19.178  1.00  0.00    -0.242 NA
BRANCH   4   9
HETATM    9  C   LIG     1      14.782  33.443  20.861  1.00  0.00     0.180 C 
HETATM   10  O   LIG     1      14.795  32.297  20.335  1.00  0.00    -0.646 OA
BRANCH   9  11
HETATM   11  O   LIG     1      13.756  33.773  21.742  1.00  0.00    -0.773 OA
HETATM   12  H   LIG     1      13.013  34.404  21.465  1.00  0.00     0.167 HD
ENDBRANCH   9  11
ENDBRANCH   4   9
ENDBRANCH   1   3
BRANCH   1  13
HETATM   13  C   LIG     1      15.349  33.904  17.199  1.00  0.00     0.034 A 
HETATM   14  C   LIG     1      16.413  34.099  16.300  1.00  0.00     0.029 A 
HETATM   15  C   LIG     1      16.653  33.176  15.280  1.00  0.00     0.003 A 
HETATM   16  C   LIG     1      15.839  32.049  15.147  1.00  0.00     0.016 A 
HETATM   17  C   LIG     1      14.780  31.827  16.045  1.00  0.00     0.050 A 
HETATM   18  C   LIG     1      14.528  32.775  17.052  1.00  0.00     0.045 A 
BRANCH  17  19
HETATM   19  C   LIG     1      13.868  30.638  15.871  1.00  0.00     0.417 C 
HETATM   20  F   LIG     1      13.565  30.068  17.095  1.00  0.00    -0.166 F 
HETATM   21  F   LIG     1      12.683  31.018  15.266  1.00  0.00    -0.166 F 
HETATM   22  F   LIG     1      14.497  29.695  15.078  1.00  0.00    -0.166 F 
ENDBRANCH  17  19
ENDBRANCH   1  13
TORSDOF 5
ENDMDL
MODEL 9
REMARK VINA RESULT:      -6.8      6.931      9.454
REMARK  5 active torsions:
REMARK  status: ('A' for Active; 'I' for Inactive)
REMARK    1  A    between atoms: O_1  and  C_2 
REMARK    2  A    between atoms: C_2  and  C_3 
REMARK    3  A    between atoms: C_8  and  N_9 
REMARK    4  A    between atoms: N_9  and  C_10 
REMARK    5  A    between atoms: C_14  and  C_15 
ROOT
HETATM    1  N   LIG     1      14.670  33.652  17.295  1.00  0.00    -0.340 N 
HETATM    2  H   LIG     1      13.692  33.974  17.116  1.00  0.00     0.167 HD
ENDROOT
BRANCH   1   3
HETATM    3  C   LIG     1      15.235  33.960  18.576  1.00  0.00     0.144 A 
HETATM    4  C   LIG     1      15.306  33.000  19.617  1.00  0.00     0.083 A 
HETATM    5  C   LIG     1      15.943  33.366  20.815  1.00  0.00     0.024 A 
HETATM    6  C   LIG     1      16.451  34.654  20.981  1.00  0.00     0.020 A 
HETATM    7  C   LIG     1      16.319  35.578  19.948  1.00  0.00     0.119 A 
HETATM    8  N   LIG     1      15.724  35.214  18.782  1.00  0.00    -0.242 NA
BRANCH   4   9
HETATM    9  C   LIG     1      14.695  31.654  19.502  1.00  0.00     0.180 C 
HETATM   10  O   LIG     1      15.005  30.746  20.320  1.00  0.00    -0.646 OA
BRANCH   9  11
HETATM   11  O   LIG     1      13.749  31.385  18.517  1.00  0.00    -0.773 OA
HETATM   12  H   LIG     1      13.888  30.632  17.853  1.00  0.00     0.167 HD
ENDBRANCH   9  11
ENDBRANCH   4   9
ENDBRANCH   1   3
BRANCH   1  13
HETATM   13  C   LIG     1      15.431  33.127  16.191  1.00  0.00     0.034 A 
HETATM   14  C   LIG     1      16.527  33.824  15.652  1.00  0.00     0.029 A 
HETATM   15  C   LIG     1      17.236  33.297  14.571  1.00  0.00     0.003 A 
HETATM   16  C   LIG     1      16.864  32.070  14.017  1.00  0.00     0.016 A 
HETATM   17  C   LIG     1      15.782  31.349  14.551  1.00  0.00     0.050 A 
HETATM   18  C   LIG     1      15.056  31.900  15.621  1.00  0.00     0.045 A 
BRANCH  17  19
HETATM   19  C   LIG     1      15.345  30.050  13.921  1.00  0.00     0.417 C 
HETATM   20  F   LIG     1      13.965  29.948  13.910  1.00  0.00    -0.166 F 
HETATM   21  F   LIG     1      15.796  29.966  12.615  1.00  0.00    -0.166 F 
HETATM   22  F   LIG     1      15.869  28.996  14.647  1.00  0.00    -0.166 F 
ENDBRANCH  17  19
ENDBRANCH   1  13
TORSDOF 5
ENDMDL
MODEL 10
REMARK VINA RESULT:      -6.8      8.580     11.128
REMARK  5 active torsions:
REMARK  status: ('A' for Active; 'I' for Inactive)
REMARK    1  A    between atoms: O_1  and  C_2 
REMARK    2  A    between atoms: C_2  and  C_3 
REMARK    3  A    between atoms: C_8  and  N_9 
REMARK    4  A    between atoms: N_9  and  C_10 
REMARK    5  A    between atoms: C_14  and  C_15 
ROOT
HETATM    1  N   LIG     1      13.513  31.718  16.664  1.00  0.00    -0.340 N 
HETATM    2  H   LIG     1      12.625  32.244  16.502  1.00  0.00     0.167 HD
ENDROOT
BRANCH   1   3
HETATM    3  C   LIG     1      14.237  32.010  17.867  1.00  0.00     0.144 A 
HETATM    4  C   LIG     1      14.902  33.246  18.062  1.00  0.00     0.083 A 
HETATM    5  C   LIG     1      15.526  33.476  19.301  1.00  0.00     0.024 A 
HETATM    6  C   LIG     1      15.519  32.491  20.288  1.00  0.00     0.020 A 
HETATM    7  C   LIG     1      14.891  31.275  20.036  1.00  0.00     0.119 A 
HETATM    8  N   LIG     1      14.269  31.065  18.847  1.00  0.00    -0.242 NA
BRANCH   4   9
HETATM    9  C   LIG     1      15.003  34.274  16.998  1.00  0.00     0.180 C 
HETATM   10  O   LIG     1      16.101  34.473  16.412  1.00  0.00    -0.646 OA
BRANCH   9  11
HETATM   11  O   LIG     1      13.884  35.005  16.609  1.00  0.00    -0.773 OA
HETATM   12  H   LIG     1      13.318  35.494  17.293  1.00  0.00     0.167 HD
ENDBRANCH   9  11
ENDBRANCH   4   9
ENDBRANCH   1   3
BRANCH   1  13
HETATM   13  C   LIG     1      14.039  30.916  15.589  1.00  0.00     0.034 A 
HETATM   14  C   LIG     1      15.216  31.275  14.909  1.00  0.00     0.029 A 
HETATM   15  C   LIG     1      15.693  30.486  13.860  1.00  0.00     0.003 A 
HETATM   16  C   LIG     1      15.006  29.331  13.481  1.00  0.00     0.016 A 
HETATM   17  C   LIG     1      13.836  28.945  14.159  1.00  0.00     0.050 A 
HETATM   18  C   LIG     1      13.347  29.759  15.195  1.00  0.00     0.045 A 
BRANCH  17  19
HETATM   19  C   LIG     1      13.064  27.727  13.717  1.00  0.00     0.417 C 
HETATM   20  F   LIG     1      13.769  27.019  12.759  1.00  0.00    -0.166 F 
HETATM   21  F   LIG     1      12.828  26.885  14.790  1.00  0.00    -0.166 F 
HETATM   22  F   LIG     1      11.854  28.126  13.182  1.00  0.00    -0.166 F 
ENDBRANCH  17  19
ENDBRANCH   1  13
TORSDOF 5
ENDMDL
MODEL 11
REMARK VINA RESULT:      -6.7      1.881      2.505
REMARK  5 active torsions:
REMARK  status: ('A' for Active; 'I' for Inactive)
REMARK    1  A    between atoms: O_1  and  C_2 
REMARK    2  A    between atoms: C_2  and  C_3 
REMARK    3  A    between atoms: C_8  and  N_9 
REMARK    4  A    between atoms: N_9  and  C_10 
REMARK    5  A    between atoms: C_14  and  C_15 
ROOT
HETATM    1  N   LIG     1      16.853  38.405  22.591  1.00  0.00    -0.340 N 
HETATM    2  H   LIG     1      16.233  39.229  22.426  1.00  0.00     0.167 HD
ENDROOT
BRANCH   1   3
HETATM    3  C   LIG     1      17.209  37.615  21.450  1.00  0.00     0.144 A 
HETATM    4  C   LIG     1      18.333  37.922  20.644  1.00  0.00     0.083 A 
HETATM    5  C   LIG     1      18.651  37.051  19.587  1.00  0.00     0.024 A 
HETATM    6  C   LIG     1      17.850  35.940  19.322  1.00  0.00     0.020 A 
HETATM    7  C   LIG     1      16.730  35.701  20.113  1.00  0.00     0.119 A 
HETATM    8  N   LIG     1      16.439  36.532  21.148  1.00  0.00    -0.242 NA
BRANCH   4   9
HETATM    9  C   LIG     1      19.148  39.144  20.845  1.00  0.00     0.180 C 
HETATM   10  O   LIG     1      19.832  39.613  19.896  1.00  0.00    -0.646 OA
BRANCH   9  11
HETATM   11  O   LIG     1      19.141  39.808  22.068  1.00  0.00    -0.773 OA
HETATM   12  H   LIG     1      19.440  40.774  22.139  1.00  0.00     0.167 HD
ENDBRANCH   9  11
ENDBRANCH   4   9
ENDBRANCH   1   3
BRANCH   1  13
HETATM   13  C   LIG     1      17.120  38.010  23.952  1.00  0.00     0.034 A 
HETATM   14  C   LIG     1      17.257  38.958  24.981  1.00  0.00     0.029 A 
HETATM   15  C   LIG     1      17.531  38.546  26.287  1.00  0.00     0.003 A 
HETATM   16  C   LIG     1      17.669  37.188  26.581  1.00  0.00     0.016 A 
HETATM   17  C   LIG     1      17.520  36.223  25.570  1.00  0.00     0.050 A 
HETATM   18  C   LIG     1      17.271  36.647  24.252  1.00  0.00     0.045 A 
BRANCH  17  19
HETATM   19  C   LIG     1      17.720  34.760  25.875  1.00  0.00     0.417 C 
HETATM   20  F   LIG     1      18.819  34.575  26.696  1.00  0.00    -0.166 F 
HETATM   21  F   LIG     1      16.609  34.240  26.516  1.00  0.00    -0.166 F 
HETATM   22  F   LIG     1      17.922  34.073  24.692  1.00  0.00    -0.166 F 
ENDBRANCH  17  19
ENDBRANCH   1  13
TORSDOF 5
ENDMDL
MODEL 12
REMARK VINA RESULT:      -6.6      5.875      8.419
REMARK  5 active torsions:
REMARK  status: ('A' for Active; 'I' for Inactive)
REMARK    1  A    between atoms: O_1  and  C_2 
REMARK    2  A    between atoms: C_2  and  C_3 
REMARK    3  A    between atoms: C_8  and  N_9 
REMARK    4  A    between atoms: N_9  and  C_10 
REMARK    5  A    between atoms: C_14  and  C_15 
ROOT
HETATM    1  N   LIG     1      14.862  34.664  18.283  1.00  0.00    -0.340 N 
HETATM    2  H   LIG     1      14.031  35.289  18.182  1.00  0.00     0.167 HD
ENDROOT
BRANCH   1   3
HETATM    3  C   LIG     1      15.777  34.959  19.346  1.00  0.00     0.144 A 
HETATM    4  C   LIG     1      15.741  34.268  20.583  1.00  0.00     0.083 A 
HETATM    5  C   LIG     1      16.722  34.571  21.542  1.00  0.00     0.024 A 
HETATM    6  C   LIG     1      17.676  35.557  21.290  1.00  0.00     0.020 A 
HETATM    7  C   LIG     1      17.647  36.241  20.078  1.00  0.00     0.119 A 
HETATM    8  N   LIG     1      16.711  35.929  19.144  1.00  0.00    -0.242 NA
BRANCH   4   9
HETATM    9  C   LIG     1      14.685  33.281  20.914  1.00  0.00     0.180 C 
HETATM   10  O   LIG     1      14.728  32.120  20.425  1.00  0.00    -0.646 OA
BRANCH   9  11
HETATM   11  O   LIG     1      13.656  33.609  21.792  1.00  0.00    -0.773 OA
HETATM   12  H   LIG     1      13.737  33.417  22.784  1.00  0.00     0.167 HD
ENDBRANCH   9  11
ENDBRANCH   4   9
ENDBRANCH   1   3
BRANCH   1  13
HETATM   13  C   LIG     1      15.131  33.708  17.239  1.00  0.00     0.034 A 
HETATM   14  C   LIG     1      14.419  32.499  17.144  1.00  0.00     0.029 A 
HETATM   15  C   LIG     1      14.713  31.585  16.130  1.00  0.00     0.003 A 
HETATM   16  C   LIG     1      15.716  31.866  15.200  1.00  0.00     0.016 A 
HETATM   17  C   LIG     1      16.430  33.075  15.267  1.00  0.00     0.050 A 
HETATM   18  C   LIG     1      16.147  33.978  16.307  1.00  0.00     0.045 A 
BRANCH  17  19
HETATM   19  C   LIG     1      17.549  33.357  14.296  1.00  0.00     0.417 C 
HETATM   20  F   LIG     1      17.671  34.716  14.068  1.00  0.00    -0.166 F 
HETATM   21  F   LIG     1      18.754  32.892  14.793  1.00  0.00    -0.166 F 
HETATM   22  F   LIG     1      17.280  32.721  13.098  1.00  0.00    -0.166 F 
ENDBRANCH  17  19
ENDBRANCH   1  13
TORSDOF 5
ENDMDL
MODEL 13
REMARK VINA RESULT:      -6.6      8.461     10.266
REMARK  5 active torsions:
REMARK  status: ('A' for Active; 'I' for Inactive)
REMARK    1  A    between atoms: O_1  and  C_2 
REMARK    2  A    between atoms: C_2  and  C_3 
REMARK    3  A    between atoms: C_8  and  N_9 
REMARK    4  A    between atoms: N_9  and  C_10 
REMARK    5  A    between atoms: C_14  and  C_15 
ROOT
HETATM    1  N   LIG     1      18.246  33.375  13.858  1.00  0.00    -0.340 N 
HETATM    2  H   LIG     1      19.072  33.466  14.491  1.00  0.00     0.167 HD
ENDROOT
BRANCH   1   3
HETATM    3  C   LIG     1      18.270  34.128  12.639  1.00  0.00     0.144 A 
HETATM    4  C   LIG     1      19.332  34.017  11.707  1.00  0.00     0.083 A 
HETATM    5  C   LIG     1      19.237  34.737  10.504  1.00  0.00     0.024 A 
HETATM    6  C   LIG     1      18.144  35.569  10.262  1.00  0.00     0.020 A 
HETATM    7  C   LIG     1      17.145  35.681  11.225  1.00  0.00     0.119 A 
HETATM    8  N   LIG     1      17.228  34.966  12.376  1.00  0.00    -0.242 NA
BRANCH   4   9
HETATM    9  C   LIG     1      20.548  33.213  11.976  1.00  0.00     0.180 C 
HETATM   10  O   LIG     1      21.234  33.430  13.011  1.00  0.00    -0.646 OA
BRANCH   9  11
HETATM   11  O   LIG     1      20.927  32.188  11.114  1.00  0.00    -0.773 OA
HETATM   12  H   LIG     1      21.323  32.394  10.204  1.00  0.00     0.167 HD
ENDBRANCH   9  11
ENDBRANCH   4   9
ENDBRANCH   1   3
BRANCH   1  13
HETATM   13  C   LIG     1      17.080  32.683  14.348  1.00  0.00     0.034 A 
HETATM   14  C   LIG     1      16.426  31.704  13.579  1.00  0.00     0.029 A 
HETATM   15  C   LIG     1      15.289  31.062  14.074  1.00  0.00     0.003 A 
HETATM   16  C   LIG     1      14.794  31.386  15.339  1.00  0.00     0.016 A 
HETATM   17  C   LIG     1      15.442  32.350  16.130  1.00  0.00     0.050 A 
HETATM   18  C   LIG     1      16.570  33.012  15.614  1.00  0.00     0.045 A 
BRANCH  17  19
HETATM   19  C   LIG     1      14.879  32.739  17.475  1.00  0.00     0.417 C 
HETATM   20  F   LIG     1      15.642  32.207  18.499  1.00  0.00    -0.166 F 
HETATM   21  F   LIG     1      14.864  34.116  17.617  1.00  0.00    -0.166 F 
HETATM   22  F   LIG     1      13.586  32.261  17.581  1.00  0.00    -0.166 F 
ENDBRANCH  17  19
ENDBRANCH   1  13
TORSDOF 5
ENDMDL
MODEL 14
REMARK VINA RESULT:      -6.5      9.262     10.797
REMARK  5 active torsions:
REMARK  status: ('A' for Active; 'I' for Inactive)
REMARK    1  A    between atoms: O_1  and  C_2 
REMARK    2  A    between atoms: C_2  and  C_3 
REMARK    3  A    between atoms: C_8  and  N_9 
REMARK    4  A    between atoms: N_9  and  C_10 
REMARK    5  A    between atoms: C_14  and  C_15 
ROOT
HETATM    1  N   LIG     1      18.362  33.469  13.981  1.00  0.00    -0.340 N 
HETATM    2  H   LIG     1      19.281  33.406  14.473  1.00  0.00     0.167 HD
ENDROOT
BRANCH   1   3
HETATM    3  C   LIG     1      18.336  34.165  12.728  1.00  0.00     0.144 A 
HETATM    4  C   LIG     1      19.371  34.026  11.770  1.00  0.00     0.083 A 
HETATM    5  C   LIG     1      19.228  34.688  10.538  1.00  0.00     0.024 A 
HETATM    6  C   LIG     1      18.114  35.491  10.293  1.00  0.00     0.020 A 
HETATM    7  C   LIG     1      17.144  35.634  11.280  1.00  0.00     0.119 A 
HETATM    8  N   LIG     1      17.273  34.974  12.460  1.00  0.00    -0.242 NA
BRANCH   4   9
HETATM    9  C   LIG     1      20.607  33.254  12.038  1.00  0.00     0.180 C 
HETATM   10  O   LIG     1      21.281  33.478  13.080  1.00  0.00    -0.646 OA
BRANCH   9  11
HETATM   11  O   LIG     1      21.020  32.250  11.166  1.00  0.00    -0.773 OA
HETATM   12  H   LIG     1      20.397  31.494  10.908  1.00  0.00     0.167 HD
ENDBRANCH   9  11
ENDBRANCH   4   9
ENDBRANCH   1   3
BRANCH   1  13
HETATM   13  C   LIG     1      17.177  33.049  14.687  1.00  0.00     0.034 A 
HETATM   14  C   LIG     1      16.659  33.789  15.764  1.00  0.00     0.029 A 
HETATM   15  C   LIG     1      15.518  33.349  16.438  1.00  0.00     0.003 A 
HETATM   16  C   LIG     1      14.881  32.170  16.046  1.00  0.00     0.016 A 
HETATM   17  C   LIG     1      15.373  31.423  14.961  1.00  0.00     0.050 A 
HETATM   18  C   LIG     1      16.538  31.859  14.305  1.00  0.00     0.045 A 
BRANCH  17  19
HETATM   19  C   LIG     1      14.718  30.123  14.569  1.00  0.00     0.417 C 
HETATM   20  F   LIG     1      14.277  30.170  13.258  1.00  0.00    -0.166 F 
HETATM   21  F   LIG     1      15.611  29.072  14.687  1.00  0.00    -0.166 F 
HETATM   22  F   LIG     1      13.637  29.891  15.400  1.00  0.00    -0.166 F 
ENDBRANCH  17  19
ENDBRANCH   1  13
TORSDOF 5
ENDMDL
MODEL 15
REMARK VINA RESULT:      -6.3      4.577      6.835
REMARK  5 active torsions:
REMARK  status: ('A' for Active; 'I' for Inactive)
REMARK    1  A    between atoms: O_1  and  C_2 
REMARK    2  A    between atoms: C_2  and  C_3 
REMARK    3  A    between atoms: C_8  and  N_9 
REMARK    4  A    between atoms: N_9  and  C_10 
REMARK    5  A    between atoms: C_14  and  C_15 
ROOT
HETATM    1  N   LIG     1      18.150  36.773  20.317  1.00  0.00    -0.340 N 
HETATM    2  H   LIG     1      17.912  35.843  19.905  1.00  0.00     0.167 HD
ENDROOT
BRANCH   1   3
HETATM    3  C   LIG     1      17.508  37.128  21.548  1.00  0.00     0.144 A 
HETATM    4  C   LIG     1      16.341  36.466  22.005  1.00  0.00     0.083 A 
HETATM    5  C   LIG     1      15.820  36.830  23.259  1.00  0.00     0.024 A 
HETATM    6  C   LIG     1      16.417  37.845  24.005  1.00  0.00     0.020 A 
HETATM    7  C   LIG     1      17.536  38.499  23.496  1.00  0.00     0.119 A 
HETATM    8  N   LIG     1      18.051  38.129  22.295  1.00  0.00    -0.242 NA
BRANCH   4   9
HETATM    9  C   LIG     1      15.633  35.447  21.194  1.00  0.00     0.180 C 
HETATM   10  O   LIG     1      16.287  34.621  20.502  1.00  0.00    -0.646 OA
BRANCH   9  11
HETATM   11  O   LIG     1      14.243  35.366  21.212  1.00  0.00    -0.773 OA
HETATM   12  H   LIG     1      13.703  35.848  21.921  1.00  0.00     0.167 HD
ENDBRANCH   9  11
ENDBRANCH   4   9
ENDBRANCH   1   3
BRANCH   1  13
HETATM   13  C   LIG     1      18.923  37.696  19.523  1.00  0.00     0.034 A 
HETATM   14  C   LIG     1      20.288  37.921  19.774  1.00  0.00     0.029 A 
HETATM   15  C   LIG     1      21.007  38.832  18.998  1.00  0.00     0.003 A 
HETATM   16  C   LIG     1      20.375  39.526  17.964  1.00  0.00     0.016 A 
HETATM   17  C   LIG     1      19.015  39.304  17.686  1.00  0.00     0.050 A 
HETATM   18  C   LIG     1      18.292  38.405  18.489  1.00  0.00     0.045 A 
BRANCH  17  19
HETATM   19  C   LIG     1      18.319  40.091  16.604  1.00  0.00     0.417 C 
HETATM   20  F   LIG     1      19.105  41.150  16.183  1.00  0.00    -0.166 F 
HETATM   21  F   LIG     1      18.056  39.286  15.509  1.00  0.00    -0.166 F 
HETATM   22  F   LIG     1      17.126  40.585  17.098  1.00  0.00    -0.166 F 
ENDBRANCH  17  19
ENDBRANCH   1  13
TORSDOF 5
ENDMDL
MODEL 16
REMARK VINA RESULT:      -6.2      7.581     10.410
REMARK  5 active torsions:
REMARK  status: ('A' for Active; 'I' for Inactive)
REMARK    1  A    between atoms: O_1  and  C_2 
REMARK    2  A    between atoms: C_2  and  C_3 
REMARK    3  A    between atoms: C_8  and  N_9 
REMARK    4  A    between atoms: N_9  and  C_10 
REMARK    5  A    between atoms: C_14  and  C_15 
ROOT
HETATM    1  N   LIG     1      13.665  31.717  16.750  1.00  0.00    -0.340 N 
HETATM    2  H   LIG     1      12.654  31.970  16.677  1.00  0.00     0.167 HD
ENDROOT
BRANCH   1   3
HETATM    3  C   LIG     1      14.316  31.973  18.002  1.00  0.00     0.144 A 
HETATM    4  C   LIG     1      14.897  33.229  18.304  1.00  0.00     0.083 A 
HETATM    5  C   LIG     1      15.449  33.415  19.584  1.00  0.00     0.024 A 
HETATM    6  C   LIG     1      15.457  32.370  20.507  1.00  0.00     0.020 A 
HETATM    7  C   LIG     1      14.915  31.138  20.151  1.00  0.00     0.119 A 
HETATM    8  N   LIG     1      14.361  30.970  18.922  1.00  0.00    -0.242 NA
BRANCH   4   9
HETATM    9  C   LIG     1      14.983  34.327  17.312  1.00  0.00     0.180 C 
HETATM   10  O   LIG     1      16.107  34.785  16.970  1.00  0.00    -0.646 OA
BRANCH   9  11
HETATM   11  O   LIG     1      13.833  34.840  16.719  1.00  0.00    -0.773 OA
HETATM   12  H   LIG     1      12.921  34.454  16.931  1.00  0.00     0.167 HD
ENDBRANCH   9  11
ENDBRANCH   4   9
ENDBRANCH   1   3
BRANCH   1  13
HETATM   13  C   LIG     1      14.365  31.340  15.548  1.00  0.00     0.034 A 
HETATM   14  C   LIG     1      14.089  30.133  14.881  1.00  0.00     0.029 A 
HETATM   15  C   LIG     1      14.795  29.788  13.727  1.00  0.00     0.003 A 
HETATM   16  C   LIG     1      15.780  30.641  13.223  1.00  0.00     0.016 A 
HETATM   17  C   LIG     1      16.060  31.859  13.866  1.00  0.00     0.050 A 
HETATM   18  C   LIG     1      15.365  32.187  15.043  1.00  0.00     0.045 A 
BRANCH  17  19
HETATM   19  C   LIG     1      17.159  32.757  13.354  1.00  0.00     0.417 C 
HETATM   20  F   LIG     1      16.644  33.965  12.918  1.00  0.00    -0.166 F 
HETATM   21  F   LIG     1      18.081  33.015  14.353  1.00  0.00    -0.166 F 
HETATM   22  F   LIG     1      17.800  32.134  12.299  1.00  0.00    -0.166 F 
ENDBRANCH  17  19
ENDBRANCH   1  13
TORSDOF 5
ENDMDL
MODEL 17
REMARK VINA RESULT:      -6.2      9.800     12.287
REMARK  5 active torsions:
REMARK  status: ('A' for Active; 'I' for Inactive)
REMARK    1  A    between atoms: O_1  and  C_2 
REMARK    2  A    between atoms: C_2  and  C_3 
REMARK    3  A    between atoms: C_8  and  N_9 
REMARK    4  A    between atoms: N_9  and  C_10 
REMARK    5  A    between atoms: C_14  and  C_15 
ROOT
HETATM    1  N   LIG     1      13.815  31.129  15.154  1.00  0.00    -0.340 N 
HETATM    2  H   LIG     1      13.444  31.899  14.553  1.00  0.00     0.167 HD
ENDROOT
BRANCH   1   3
HETATM    3  C   LIG     1      14.268  31.483  16.467  1.00  0.00     0.144 A 
HETATM    4  C   LIG     1      15.211  32.519  16.683  1.00  0.00     0.083 A 
HETATM    5  C   LIG     1      15.544  32.848  18.008  1.00  0.00     0.024 A 
HETATM    6  C   LIG     1      14.988  32.139  19.073  1.00  0.00     0.020 A 
HETATM    7  C   LIG     1      14.099  31.099  18.812  1.00  0.00     0.119 A 
HETATM    8  N   LIG     1      13.762  30.800  17.531  1.00  0.00    -0.242 NA
BRANCH   4   9
HETATM    9  C   LIG     1      15.887  33.227  15.569  1.00  0.00     0.180 C 
HETATM   10  O   LIG     1      16.003  32.672  14.443  1.00  0.00    -0.646 OA
BRANCH   9  11
HETATM   11  O   LIG     1      16.367  34.522  15.740  1.00  0.00    -0.773 OA
HETATM   12  H   LIG     1      16.043  35.280  15.150  1.00  0.00     0.167 HD
ENDBRANCH   9  11
ENDBRANCH   4   9
ENDBRANCH   1   3
BRANCH   1  13
HETATM   13  C   LIG     1      14.037  29.838  14.552  1.00  0.00     0.034 A 
HETATM   14  C   LIG     1      15.332  29.317  14.382  1.00  0.00     0.029 A 
HETATM   15  C   LIG     1      15.516  28.070  13.781  1.00  0.00     0.003 A 
HETATM   16  C   LIG     1      14.415  27.329  13.347  1.00  0.00     0.016 A 
HETATM   17  C   LIG     1      13.111  27.825  13.522  1.00  0.00     0.050 A 
HETATM   18  C   LIG     1      12.935  29.093  14.103  1.00  0.00     0.045 A 
BRANCH  17  19
HETATM   19  C   LIG     1      11.924  27.050  13.007  1.00  0.00     0.417 C 
HETATM   20  F   LIG     1      11.672  25.948  13.806  1.00  0.00    -0.166 F 
HETATM   21  F   LIG     1      10.791  27.845  12.998  1.00  0.00    -0.166 F 
HETATM   22  F   LIG     1      12.185  26.622  11.719  1.00  0.00    -0.166 F 
ENDBRANCH  17  19
ENDBRANCH   1  13
TORSDOF 5
ENDMDL
MODEL 18
REMARK VINA RESULT:      -6.1      4.616      6.717
REMARK  5 active torsions:
REMARK  status: ('A' for Active; 'I' for Inactive)
REMARK    1  A    between atoms: O_1  and  C_2 
REMARK    2  A    between atoms: C_2  and  C_3 
REMARK    3  A    between atoms: C_8  and  N_9 
REMARK    4  A    between atoms: N_9  and  C_10 
REMARK    5  A    between atoms: C_14  and  C_15 
ROOT
HETATM    1  N   LIG     1      16.896  36.027  19.760  1.00  0.00    -0.340 N 
HETATM    2  H   LIG     1      17.517  36.306  18.968  1.00  0.00     0.167 HD
ENDROOT
BRANCH   1   3
HETATM    3  C   LIG     1      16.991  36.794  20.968  1.00  0.00     0.144 A 
HETATM    4  C   LIG     1      17.930  37.845  21.119  1.00  0.00     0.083 A 
HETATM    5  C   LIG     1      17.904  38.592  22.309  1.00  0.00     0.024 A 
HETATM    6  C   LIG     1      17.003  38.272  23.325  1.00  0.00     0.020 A 
HETATM    7  C   LIG     1      16.129  37.203  23.150  1.00  0.00     0.119 A 
HETATM    8  N   LIG     1      16.140  36.498  21.989  1.00  0.00    -0.242 NA
BRANCH   4   9
HETATM    9  C   LIG     1      18.958  38.149  20.095  1.00  0.00     0.180 C 
HETATM   10  O   LIG     1      19.244  39.345  19.820  1.00  0.00    -0.646 OA
BRANCH   9  11
HETATM   11  O   LIG     1      19.644  37.122  19.452  1.00  0.00    -0.773 OA
HETATM   12  H   LIG     1      20.656  37.080  19.471  1.00  0.00     0.167 HD
ENDBRANCH   9  11
ENDBRANCH   4   9
ENDBRANCH   1   3
BRANCH   1  13
HETATM   13  C   LIG     1      16.165  34.790  19.655  1.00  0.00     0.034 A 
HETATM   14  C   LIG     1      15.945  33.966  20.773  1.00  0.00     0.029 A 
HETATM   15  C   LIG     1      15.246  32.764  20.636  1.00  0.00     0.003 A 
HETATM   16  C   LIG     1      14.758  32.373  19.388  1.00  0.00     0.016 A 
HETATM   17  C   LIG     1      14.952  33.190  18.261  1.00  0.00     0.050 A 
HETATM   18  C   LIG     1      15.681  34.385  18.401  1.00  0.00     0.045 A 
BRANCH  17  19
HETATM   19  C   LIG     1      14.471  32.745  16.902  1.00  0.00     0.417 C 
HETATM   20  F   LIG     1      13.147  33.099  16.709  1.00  0.00    -0.166 F 
HETATM   21  F   LIG     1      15.226  33.331  15.902  1.00  0.00    -0.166 F 
HETATM   22  F   LIG     1      14.588  31.370  16.808  1.00  0.00    -0.166 F 
ENDBRANCH  17  19
ENDBRANCH   1  13
TORSDOF 5
ENDMDL
MODEL 19
REMARK VINA RESULT:      -5.7     15.313     16.511
REMARK  5 active torsions:
REMARK  status: ('A' for Active; 'I' for Inactive)
REMARK    1  A    between atoms: O_1  and  C_2 
REMARK    2  A    between atoms: C_2  and  C_3 
REMARK    3  A    between atoms: C_8  and  N_9 
REMARK    4  A    between atoms: N_9  and  C_10 
REMARK    5  A    between atoms: C_14  and  C_15 
ROOT
HETATM    1  N   LIG     1      27.000  22.424  19.199  1.00  0.00    -0.340 N 
HETATM    2  H   LIG     1      27.555  22.127  20.033  1.00  0.00     0.167 HD
ENDROOT
BRANCH   1   3
HETATM    3  C   LIG     1      27.659  23.256  18.236  1.00  0.00     0.144 A 
HETATM    4  C   LIG     1      27.718  24.665  18.374  1.00  0.00     0.083 A 
HETATM    5  C   LIG     1      28.448  25.396  17.421  1.00  0.00     0.024 A 
HETATM    6  C   LIG     1      29.057  24.746  16.348  1.00  0.00     0.020 A 
HETATM    7  C   LIG     1      28.935  23.364  16.227  1.00  0.00     0.119 A 
HETATM    8  N   LIG     1      28.250  22.659  17.163  1.00  0.00    -0.242 NA
BRANCH   4   9
HETATM    9  C   LIG     1      27.005  25.390  19.453  1.00  0.00     0.180 C 
HETATM   10  O   LIG     1      27.395  25.293  20.647  1.00  0.00    -0.646 OA
BRANCH   9  11
HETATM   11  O   LIG     1      25.921  26.213  19.158  1.00  0.00    -0.773 OA
HETATM   12  H   LIG     1      25.240  26.452  19.869  1.00  0.00     0.167 HD
ENDBRANCH   9  11
ENDBRANCH   4   9
ENDBRANCH   1   3
BRANCH   1  13
HETATM   13  C   LIG     1      25.584  22.157  19.190  1.00  0.00     0.034 A 
HETATM   14  C   LIG     1      24.941  21.625  18.058  1.00  0.00     0.029 A 
HETATM   15  C   LIG     1      23.564  21.392  18.074  1.00  0.00     0.003 A 
HETATM   16  C   LIG     1      22.815  21.684  19.216  1.00  0.00     0.016 A 
HETATM   17  C   LIG     1      23.440  22.202  20.363  1.00  0.00     0.050 A 
HETATM   18  C   LIG     1      24.822  22.459  20.330  1.00  0.00     0.045 A 
BRANCH  17  19
HETATM   19  C   LIG     1      22.625  22.567  21.578  1.00  0.00     0.417 C 
HETATM   20  F   LIG     1      21.430  23.160  21.209  1.00  0.00    -0.166 F 
HETATM   21  F   LIG     1      22.335  21.440  22.327  1.00  0.00    -0.166 F 
HETATM   22  F   LIG     1      23.345  23.453  22.358  1.00  0.00    -0.166 F 
ENDBRANCH  17  19
ENDBRANCH   1  13
TORSDOF 5
ENDMDL
MODEL 20
REMARK VINA RESULT:      -5.6     15.095     16.357
REMARK  5 active torsions:
REMARK  status: ('A' for Active; 'I' for Inactive)
REMARK    1  A    between atoms: O_1  and  C_2 
REMARK    2  A    between atoms: C_2  and  C_3 
REMARK    3  A    between atoms: C_8  and  N_9 
REMARK    4  A    between atoms: N_9  and  C_10 
REMARK    5  A    between atoms: C_14  and  C_15 
ROOT
HETATM    1  N   LIG     1      26.832  23.091  19.010  1.00  0.00    -0.340 N 
HETATM    2  H   LIG     1      27.351  22.982  18.109  1.00  0.00     0.167 HD
ENDROOT
BRANCH   1   3
HETATM    3  C   LIG     1      27.575  23.564  20.140  1.00  0.00     0.144 A 
HETATM    4  C   LIG     1      27.736  24.946  20.409  1.00  0.00     0.083 A 
HETATM    5  C   LIG     1      28.418  25.320  21.580  1.00  0.00     0.024 A 
HETATM    6  C   LIG     1      28.954  24.349  22.426  1.00  0.00     0.020 A 
HETATM    7  C   LIG     1      28.810  23.003  22.098  1.00  0.00     0.119 A 
HETATM    8  N   LIG     1      28.131  22.645  20.979  1.00  0.00    -0.242 NA
BRANCH   4   9
HETATM    9  C   LIG     1      27.256  26.000  19.483  1.00  0.00     0.180 C 
HETATM   10  O   LIG     1      28.071  26.815  18.974  1.00  0.00    -0.646 OA
BRANCH   9  11
HETATM   11  O   LIG     1      25.910  26.080  19.136  1.00  0.00    -0.773 OA
HETATM   12  H   LIG     1      25.618  26.559  18.292  1.00  0.00     0.167 HD
ENDBRANCH   9  11
ENDBRANCH   4   9
ENDBRANCH   1   3
BRANCH   1  13
HETATM   13  C   LIG     1      25.493  22.564  19.096  1.00  0.00     0.034 A 
HETATM   14  C   LIG     1      24.908  21.858  18.030  1.00  0.00     0.029 A 
HETATM   15  C   LIG     1      23.603  21.373  18.138  1.00  0.00     0.003 A 
HETATM   16  C   LIG     1      22.869  21.583  19.307  1.00  0.00     0.016 A 
HETATM   17  C   LIG     1      23.441  22.273  20.391  1.00  0.00     0.050 A 
HETATM   18  C   LIG     1      24.746  22.782  20.265  1.00  0.00     0.045 A 
BRANCH  17  19
HETATM   19  C   LIG     1      22.633  22.546  21.634  1.00  0.00     0.417 C 
HETATM   20  F   LIG     1      21.414  23.118  21.312  1.00  0.00    -0.166 F 
HETATM   21  F   LIG     1      22.390  21.372  22.326  1.00  0.00    -0.166 F 
HETATM   22  F   LIG     1      23.335  23.413  22.451  1.00  0.00    -0.166 F 
ENDBRANCH  17  19
ENDBRANCH   1  13
TORSDOF 5
ENDMDL
