REMARK  2 active torsions:
REMARK  status: ('A' for Active; 'I' for Inactive)
REMARK    1  A    between atoms: C_2  and  C_3 
REMARK    2  A    between atoms: C_3  and  C_4 
ROOT
HETATM    1  C   LIG     1       0.175   0.220  -0.032  1.00  0.00     0.227 C 
HETATM    2  C   LIG     1      -0.846   1.364   0.209  1.00  0.00     0.036 C 
HETATM    3  C   LIG     1      -2.234   0.974  -0.301  1.00  0.00     0.004 C 
HETATM    4  C   LIG     1      -2.750  -0.285   0.417  1.00  0.00     0.030 C 
HETATM    5  C   LIG     1      -1.610  -1.219   0.857  1.00  0.00     0.270 C 
HETATM    6  N   LIG     1      -0.474  -1.115  -0.067  1.00  0.00     0.088 N 
HETATM    7  H   LIG     1       0.212  -1.872   0.156  1.00  0.00     0.316 HD
ENDROOT
BRANCH   1   8
HETATM    8  C   LIG     1       1.319   0.290   1.008  1.00  0.00     0.113 C 
BRANCH   8   9
HETATM    9  C   LIG     1       2.495  -0.567   0.618  1.00  0.00     0.125 C 
HETATM   10  C   LIG     1       3.418  -0.155  -0.490  1.00  0.00     0.091 C 
HETATM   11  O   LIG     1       2.695  -1.623   1.200  1.00  0.00    -0.298 OA
ENDBRANCH   8   9
ENDBRANCH   1   8
TORSDOF 2
