MODEL 1
REMARK VINA RESULT:      -6.0      0.000      0.000
REMARK  2 active torsions:
REMARK  status: ('A' for Active; 'I' for Inactive)
REMARK    1  A    between atoms: C_2  and  C_3 
REMARK    2  A    between atoms: C_3  and  C_4 
ROOT
HETATM    1  C   LIG     1      17.694  37.761  25.033  1.00  0.00     0.227 C 
HETATM    2  C   LIG     1      18.705  37.132  26.028  1.00  0.00     0.036 C 
HETATM    3  C   LIG     1      18.084  35.941  26.758  1.00  0.00     0.004 C 
HETATM    4  C   LIG     1      17.652  34.850  25.763  1.00  0.00     0.030 C 
HETATM    5  C   LIG     1      17.257  35.427  24.393  1.00  0.00     0.270 C 
HETATM    6  N   LIG     1      16.696  36.775  24.546  1.00  0.00     0.088 N 
HETATM    7  H   LIG     1      16.287  37.075  23.631  1.00  0.00     0.316 HD
ENDROOT
BRANCH   1   8
HETATM    8  C   LIG     1      18.443  38.461  23.873  1.00  0.00     0.113 C 
BRANCH   8   9
HETATM    9  C   LIG     1      17.516  38.848  22.750  1.00  0.00     0.125 C 
HETATM   10  C   LIG     1      17.968  38.792  21.321  1.00  0.00     0.091 C 
HETATM   11  O   LIG     1      16.383  39.230  23.003  1.00  0.00    -0.298 OA
ENDBRANCH   8   9
ENDBRANCH   1   8
TORSDOF 2
ENDMDL
MODEL 2
REMARK VINA RESULT:      -5.9      2.134      4.637
REMARK  2 active torsions:
REMARK  status: ('A' for Active; 'I' for Inactive)
REMARK    1  A    between atoms: C_2  and  C_3 
REMARK    2  A    between atoms: C_3  and  C_4 
ROOT
HETATM    1  C   LIG     1      17.226  37.362  21.532  1.00  0.00     0.227 C 
HETATM    2  C   LIG     1      18.214  36.644  20.574  1.00  0.00     0.036 C 
HETATM    3  C   LIG     1      18.760  37.614  19.525  1.00  0.00     0.004 C 
HETATM    4  C   LIG     1      19.507  38.782  20.193  1.00  0.00     0.030 C 
HETATM    5  C   LIG     1      18.948  39.116  21.586  1.00  0.00     0.270 C 
HETATM    6  N   LIG     1      17.513  38.814  21.652  1.00  0.00     0.088 N 
HETATM    7  H   LIG     1      17.128  39.201  22.544  1.00  0.00     0.316 HD
ENDROOT
BRANCH   1   8
HETATM    8  C   LIG     1      17.197  36.653  22.907  1.00  0.00     0.113 C 
BRANCH   8   9
HETATM    9  C   LIG     1      16.669  37.549  23.997  1.00  0.00     0.125 C 
HETATM   10  C   LIG     1      17.470  37.812  25.238  1.00  0.00     0.091 C 
HETATM   11  O   LIG     1      15.564  38.059  23.881  1.00  0.00    -0.298 OA
ENDBRANCH   8   9
ENDBRANCH   1   8
TORSDOF 2
ENDMDL
MODEL 3
REMARK VINA RESULT:      -5.3      2.124      3.948
REMARK  2 active torsions:
REMARK  status: ('A' for Active; 'I' for Inactive)
REMARK    1  A    between atoms: C_2  and  C_3 
REMARK    2  A    between atoms: C_3  and  C_4 
ROOT
HETATM    1  C   LIG     1      17.189  37.873  22.887  1.00  0.00     0.227 C 
HETATM    2  C   LIG     1      16.949  36.340  22.839  1.00  0.00     0.036 C 
HETATM    3  C   LIG     1      16.475  35.905  21.451  1.00  0.00     0.004 C 
HETATM    4  C   LIG     1      17.518  36.258  20.378  1.00  0.00     0.030 C 
HETATM    5  C   LIG     1      18.340  37.505  20.746  1.00  0.00     0.270 C 
HETATM    6  N   LIG     1      17.538  38.430  21.556  1.00  0.00     0.088 N 
HETATM    7  H   LIG     1      18.057  39.332  21.651  1.00  0.00     0.316 HD
ENDROOT
BRANCH   1   8
HETATM    8  C   LIG     1      18.245  38.219  23.964  1.00  0.00     0.113 C 
BRANCH   8   9
HETATM    9  C   LIG     1      17.768  37.888  25.355  1.00  0.00     0.125 C 
HETATM   10  C   LIG     1      18.424  36.806  26.160  1.00  0.00     0.091 C 
HETATM   11  O   LIG     1      16.823  38.498  25.833  1.00  0.00    -0.298 OA
ENDBRANCH   8   9
ENDBRANCH   1   8
TORSDOF 2
ENDMDL
MODEL 4
REMARK VINA RESULT:      -5.2      3.155      4.731
REMARK  2 active torsions:
REMARK  status: ('A' for Active; 'I' for Inactive)
REMARK    1  A    between atoms: C_2  and  C_3 
REMARK    2  A    between atoms: C_3  and  C_4 
ROOT
HETATM    1  C   LIG     1      16.554  36.417  21.399  1.00  0.00     0.227 C 
HETATM    2  C   LIG     1      17.876  37.142  21.028  1.00  0.00     0.036 C 
HETATM    3  C   LIG     1      17.910  38.552  21.619  1.00  0.00     0.004 C 
HETATM    4  C   LIG     1      17.805  38.508  23.153  1.00  0.00     0.030 C 
HETATM    5  C   LIG     1      17.000  37.296  23.652  1.00  0.00     0.270 C 
HETATM    6  N   LIG     1      15.976  36.919  22.671  1.00  0.00     0.088 N 
HETATM    7  H   LIG     1      15.342  36.208  23.102  1.00  0.00     0.316 HD
ENDROOT
BRANCH   1   8
HETATM    8  C   LIG     1      16.766  34.884  21.415  1.00  0.00     0.113 C 
BRANCH   8   9
HETATM    9  C   LIG     1      15.509  34.133  21.060  1.00  0.00     0.125 C 
HETATM   10  C   LIG     1      15.519  33.058  20.015  1.00  0.00     0.091 C 
HETATM   11  O   LIG     1      14.458  34.412  21.619  1.00  0.00    -0.298 OA
ENDBRANCH   8   9
ENDBRANCH   1   8
TORSDOF 2
ENDMDL
MODEL 5
REMARK VINA RESULT:      -5.0      2.200      2.739
REMARK  2 active torsions:
REMARK  status: ('A' for Active; 'I' for Inactive)
REMARK    1  A    between atoms: C_2  and  C_3 
REMARK    2  A    between atoms: C_3  and  C_4 
ROOT
HETATM    1  C   LIG     1      17.519  36.470  23.842  1.00  0.00     0.227 C 
HETATM    2  C   LIG     1      17.217  35.182  24.652  1.00  0.00     0.036 C 
HETATM    3  C   LIG     1      18.157  35.057  25.852  1.00  0.00     0.004 C 
HETATM    4  C   LIG     1      18.006  36.262  26.797  1.00  0.00     0.030 C 
HETATM    5  C   LIG     1      17.589  37.542  26.054  1.00  0.00     0.270 C 
HETATM    6  N   LIG     1      18.117  37.537  24.684  1.00  0.00     0.088 N 
HETATM    7  H   LIG     1      17.963  38.480  24.260  1.00  0.00     0.316 HD
ENDROOT
BRANCH   1   8
HETATM    8  C   LIG     1      16.250  36.951  23.098  1.00  0.00     0.113 C 
BRANCH   8   9
HETATM    9  C   LIG     1      16.127  36.337  21.728  1.00  0.00     0.125 C 
HETATM   10  C   LIG     1      14.849  35.691  21.282  1.00  0.00     0.091 C 
HETATM   11  O   LIG     1      17.086  36.349  20.970  1.00  0.00    -0.298 OA
ENDBRANCH   8   9
ENDBRANCH   1   8
TORSDOF 2
ENDMDL
MODEL 6
REMARK VINA RESULT:      -5.0      2.199      3.200
REMARK  2 active torsions:
REMARK  status: ('A' for Active; 'I' for Inactive)
REMARK    1  A    between atoms: C_2  and  C_3 
REMARK    2  A    between atoms: C_3  and  C_4 
ROOT
HETATM    1  C   LIG     1      17.498  38.088  21.647  1.00  0.00     0.227 C 
HETATM    2  C   LIG     1      18.317  38.571  22.874  1.00  0.00     0.036 C 
HETATM    3  C   LIG     1      17.507  38.424  24.163  1.00  0.00     0.004 C 
HETATM    4  C   LIG     1      17.112  36.956  24.400  1.00  0.00     0.030 C 
HETATM    5  C   LIG     1      16.945  36.173  23.087  1.00  0.00     0.270 C 
HETATM    6  N   LIG     1      16.489  37.062  22.012  1.00  0.00     0.088 N 
HETATM    7  H   LIG     1      16.226  36.482  21.183  1.00  0.00     0.316 HD
ENDROOT
BRANCH   1   8
HETATM    8  C   LIG     1      18.446  37.605  20.523  1.00  0.00     0.113 C 
BRANCH   8   9
HETATM    9  C   LIG     1      19.178  38.747  19.866  1.00  0.00     0.125 C 
HETATM   10  C   LIG     1      20.619  38.618  19.474  1.00  0.00     0.091 C 
HETATM   11  O   LIG     1      18.596  39.802  19.662  1.00  0.00    -0.298 OA
ENDBRANCH   8   9
ENDBRANCH   1   8
TORSDOF 2
ENDMDL
MODEL 7
REMARK VINA RESULT:      -4.9      3.484      5.379
REMARK  2 active torsions:
REMARK  status: ('A' for Active; 'I' for Inactive)
REMARK    1  A    between atoms: C_2  and  C_3 
REMARK    2  A    between atoms: C_3  and  C_4 
ROOT
HETATM    1  C   LIG     1      18.160  36.655  20.692  1.00  0.00     0.227 C 
HETATM    2  C   LIG     1      17.863  38.046  21.312  1.00  0.00     0.036 C 
HETATM    3  C   LIG     1      19.024  39.012  21.070  1.00  0.00     0.004 C 
HETATM    4  C   LIG     1      19.273  39.205  19.564  1.00  0.00     0.030 C 
HETATM    5  C   LIG     1      18.893  37.962  18.742  1.00  0.00     0.270 C 
HETATM    6  N   LIG     1      19.086  36.742  19.535  1.00  0.00     0.088 N 
HETATM    7  H   LIG     1      18.982  35.912  18.907  1.00  0.00     0.316 HD
ENDROOT
BRANCH   1   8
HETATM    8  C   LIG     1      16.840  35.930  20.335  1.00  0.00     0.113 C 
BRANCH   8   9
HETATM    9  C   LIG     1      16.042  35.568  21.560  1.00  0.00     0.125 C 
HETATM   10  C   LIG     1      16.716  35.059  22.799  1.00  0.00     0.091 C 
HETATM   11  O   LIG     1      14.824  35.673  21.543  1.00  0.00    -0.298 OA
ENDBRANCH   8   9
ENDBRANCH   1   8
TORSDOF 2
ENDMDL
MODEL 8
REMARK VINA RESULT:      -4.9      2.147      4.442
REMARK  2 active torsions:
REMARK  status: ('A' for Active; 'I' for Inactive)
REMARK    1  A    between atoms: C_2  and  C_3 
REMARK    2  A    between atoms: C_3  and  C_4 
ROOT
HETATM    1  C   LIG     1      16.761  36.098  23.776  1.00  0.00     0.227 C 
HETATM    2  C   LIG     1      17.158  36.290  22.288  1.00  0.00     0.036 C 
HETATM    3  C   LIG     1      17.006  37.751  21.865  1.00  0.00     0.004 C 
HETATM    4  C   LIG     1      17.900  38.667  22.720  1.00  0.00     0.030 C 
HETATM    5  C   LIG     1      18.124  38.113  24.137  1.00  0.00     0.270 C 
HETATM    6  N   LIG     1      16.959  37.334  24.575  1.00  0.00     0.088 N 
HETATM    7  H   LIG     1      17.065  37.112  25.591  1.00  0.00     0.316 HD
ENDROOT
BRANCH   1   8
HETATM    8  C   LIG     1      17.504  34.883  24.381  1.00  0.00     0.113 C 
BRANCH   8   9
HETATM    9  C   LIG     1      17.508  34.911  25.887  1.00  0.00     0.125 C 
HETATM   10  C   LIG     1      18.621  35.570  26.645  1.00  0.00     0.091 C 
HETATM   11  O   LIG     1      16.600  34.375  26.506  1.00  0.00    -0.298 OA
ENDBRANCH   8   9
ENDBRANCH   1   8
TORSDOF 2
ENDMDL
MODEL 9
REMARK VINA RESULT:      -4.8      3.091      4.529
REMARK  2 active torsions:
REMARK  status: ('A' for Active; 'I' for Inactive)
REMARK    1  A    between atoms: C_2  and  C_3 
REMARK    2  A    between atoms: C_3  and  C_4 
ROOT
HETATM    1  C   LIG     1      18.103  38.586  21.936  1.00  0.00     0.227 C 
HETATM    2  C   LIG     1      18.645  39.435  20.755  1.00  0.00     0.036 C 
HETATM    3  C   LIG     1      19.716  38.669  19.978  1.00  0.00     0.004 C 
HETATM    4  C   LIG     1      19.147  37.361  19.402  1.00  0.00     0.030 C 
HETATM    5  C   LIG     1      18.014  36.782  20.267  1.00  0.00     0.270 C 
HETATM    6  N   LIG     1      18.217  37.128  21.679  1.00  0.00     0.088 N 
HETATM    7  H   LIG     1      17.534  36.590  22.259  1.00  0.00     0.316 HD
ENDROOT
BRANCH   1   8
HETATM    8  C   LIG     1      16.655  39.009  22.285  1.00  0.00     0.113 C 
BRANCH   8   9
HETATM    9  C   LIG     1      15.929  37.952  23.076  1.00  0.00     0.125 C 
HETATM   10  C   LIG     1      14.957  37.022  22.413  1.00  0.00     0.091 C 
HETATM   11  O   LIG     1      16.120  37.858  24.280  1.00  0.00    -0.298 OA
ENDBRANCH   8   9
ENDBRANCH   1   8
TORSDOF 2
ENDMDL
MODEL 10
REMARK VINA RESULT:      -4.8     10.550     11.502
REMARK  2 active torsions:
REMARK  status: ('A' for Active; 'I' for Inactive)
REMARK    1  A    between atoms: C_2  and  C_3 
REMARK    2  A    between atoms: C_3  and  C_4 
ROOT
HETATM    1  C   LIG     1      15.447  32.020  14.752  1.00  0.00     0.227 C 
HETATM    2  C   LIG     1      14.612  31.324  15.860  1.00  0.00     0.036 C 
HETATM    3  C   LIG     1      13.507  30.460  15.250  1.00  0.00     0.004 C 
HETATM    4  C   LIG     1      14.100  29.368  14.343  1.00  0.00     0.030 C 
HETATM    5  C   LIG     1      15.426  29.800  13.695  1.00  0.00     0.270 C 
HETATM    6  N   LIG     1      15.446  31.252  13.481  1.00  0.00     0.088 N 
HETATM    7  H   LIG     1      16.277  31.495  12.895  1.00  0.00     0.316 HD
ENDROOT
BRANCH   1   8
HETATM    8  C   LIG     1      16.879  32.313  15.260  1.00  0.00     0.113 C 
BRANCH   8   9
HETATM    9  C   LIG     1      17.364  33.676  14.840  1.00  0.00     0.125 C 
HETATM   10  C   LIG     1      18.272  33.843  13.658  1.00  0.00     0.091 C 
HETATM   11  O   LIG     1      17.027  34.662  15.478  1.00  0.00    -0.298 OA
ENDBRANCH   8   9
ENDBRANCH   1   8
TORSDOF 2
ENDMDL
MODEL 11
REMARK VINA RESULT:      -4.8      9.622     10.823
REMARK  2 active torsions:
REMARK  status: ('A' for Active; 'I' for Inactive)
REMARK    1  A    between atoms: C_2  and  C_3 
REMARK    2  A    between atoms: C_3  and  C_4 
ROOT
HETATM    1  C   LIG     1      16.381  31.964  14.758  1.00  0.00     0.227 C 
HETATM    2  C   LIG     1      15.046  31.187  14.598  1.00  0.00     0.036 C 
HETATM    3  C   LIG     1      14.453  30.833  15.962  1.00  0.00     0.004 C 
HETATM    4  C   LIG     1      14.170  32.102  16.784  1.00  0.00     0.030 C 
HETATM    5  C   LIG     1      15.137  33.249  16.445  1.00  0.00     0.270 C 
HETATM    6  N   LIG     1      16.442  32.718  16.036  1.00  0.00     0.088 N 
HETATM    7  H   LIG     1      17.123  33.509  15.972  1.00  0.00     0.316 HD
ENDROOT
BRANCH   1   8
HETATM    8  C   LIG     1      16.629  32.870  13.528  1.00  0.00     0.113 C 
BRANCH   8   9
HETATM    9  C   LIG     1      17.724  33.874  13.774  1.00  0.00     0.125 C 
HETATM   10  C   LIG     1      19.112  33.648  13.251  1.00  0.00     0.091 C 
HETATM   11  O   LIG     1      17.488  34.883  14.423  1.00  0.00    -0.298 OA
ENDBRANCH   8   9
ENDBRANCH   1   8
TORSDOF 2
ENDMDL
MODEL 12
REMARK VINA RESULT:      -4.8      2.454      3.842
REMARK  2 active torsions:
REMARK  status: ('A' for Active; 'I' for Inactive)
REMARK    1  A    between atoms: C_2  and  C_3 
REMARK    2  A    between atoms: C_3  and  C_4 
ROOT
HETATM    1  C   LIG     1      16.337  37.404  22.722  1.00  0.00     0.227 C 
HETATM    2  C   LIG     1      14.910  36.880  22.411  1.00  0.00     0.036 C 
HETATM    3  C   LIG     1      14.930  35.910  21.228  1.00  0.00     0.004 C 
HETATM    4  C   LIG     1      15.829  34.697  21.526  1.00  0.00     0.030 C 
HETATM    5  C   LIG     1      16.983  35.043  22.482  1.00  0.00     0.270 C 
HETATM    6  N   LIG     1      17.392  36.443  22.311  1.00  0.00     0.088 N 
HETATM    7  H   LIG     1      18.275  36.603  22.846  1.00  0.00     0.316 HD
ENDROOT
BRANCH   1   8
HETATM    8  C   LIG     1      16.453  37.800  24.214  1.00  0.00     0.113 C 
BRANCH   8   9
HETATM    9  C   LIG     1      17.877  37.762  24.703  1.00  0.00     0.125 C 
HETATM   10  C   LIG     1      18.268  36.915  25.878  1.00  0.00     0.091 C 
HETATM   11  O   LIG     1      18.727  38.441  24.148  1.00  0.00    -0.298 OA
ENDBRANCH   8   9
ENDBRANCH   1   8
TORSDOF 2
ENDMDL
MODEL 13
REMARK VINA RESULT:      -4.7      3.463      4.672
REMARK  2 active torsions:
REMARK  status: ('A' for Active; 'I' for Inactive)
REMARK    1  A    between atoms: C_2  and  C_3 
REMARK    2  A    between atoms: C_3  and  C_4 
ROOT
HETATM    1  C   LIG     1      18.682  37.255  20.490  1.00  0.00     0.227 C 
HETATM    2  C   LIG     1      17.534  36.273  20.844  1.00  0.00     0.036 C 
HETATM    3  C   LIG     1      17.097  36.444  22.299  1.00  0.00     0.004 C 
HETATM    4  C   LIG     1      16.597  37.875  22.559  1.00  0.00     0.030 C 
HETATM    5  C   LIG     1      17.284  38.911  21.652  1.00  0.00     0.270 C 
HETATM    6  N   LIG     1      18.649  38.483  21.325  1.00  0.00     0.088 N 
HETATM    7  H   LIG     1      19.145  39.272  20.852  1.00  0.00     0.316 HD
ENDROOT
BRANCH   1   8
HETATM    8  C   LIG     1      18.673  37.574  18.976  1.00  0.00     0.113 C 
BRANCH   8   9
HETATM    9  C   LIG     1      19.280  38.920  18.674  1.00  0.00     0.125 C 
HETATM   10  C   LIG     1      18.636  39.856  17.696  1.00  0.00     0.091 C 
HETATM   11  O   LIG     1      20.321  39.251  19.221  1.00  0.00    -0.298 OA
ENDBRANCH   8   9
ENDBRANCH   1   8
TORSDOF 2
ENDMDL
MODEL 14
REMARK VINA RESULT:      -4.5      9.191     10.397
REMARK  2 active torsions:
REMARK  status: ('A' for Active; 'I' for Inactive)
REMARK    1  A    between atoms: C_2  and  C_3 
REMARK    2  A    between atoms: C_3  and  C_4 
ROOT
HETATM    1  C   LIG     1      14.828  31.678  16.668  1.00  0.00     0.227 C 
HETATM    2  C   LIG     1      15.239  31.524  15.179  1.00  0.00     0.036 C 
HETATM    3  C   LIG     1      14.854  30.144  14.645  1.00  0.00     0.004 C 
HETATM    4  C   LIG     1      13.335  29.919  14.746  1.00  0.00     0.030 C 
HETATM    5  C   LIG     1      12.705  30.685  15.922  1.00  0.00     0.270 C 
HETATM    6  N   LIG     1      13.667  30.822  17.022  1.00  0.00     0.088 N 
HETATM    7  H   LIG     1      13.168  31.194  17.862  1.00  0.00     0.316 HD
ENDROOT
BRANCH   1   8
HETATM    8  C   LIG     1      14.585  33.167  17.010  1.00  0.00     0.113 C 
BRANCH   8   9
HETATM    9  C   LIG     1      15.236  33.566  18.309  1.00  0.00     0.125 C 
HETATM   10  C   LIG     1      15.369  32.589  19.439  1.00  0.00     0.091 C 
HETATM   11  O   LIG     1      15.651  34.707  18.454  1.00  0.00    -0.298 OA
ENDBRANCH   8   9
ENDBRANCH   1   8
TORSDOF 2
ENDMDL
MODEL 15
REMARK VINA RESULT:      -4.4      5.344      6.375
REMARK  2 active torsions:
REMARK  status: ('A' for Active; 'I' for Inactive)
REMARK    1  A    between atoms: C_2  and  C_3 
REMARK    2  A    between atoms: C_3  and  C_4 
ROOT
HETATM    1  C   LIG     1      15.825  34.385  20.285  1.00  0.00     0.227 C 
HETATM    2  C   LIG     1      16.989  34.603  21.289  1.00  0.00     0.036 C 
HETATM    3  C   LIG     1      17.236  36.094  21.523  1.00  0.00     0.004 C 
HETATM    4  C   LIG     1      15.980  36.776  22.092  1.00  0.00     0.030 C 
HETATM    5  C   LIG     1      14.681  36.097  21.628  1.00  0.00     0.270 C 
HETATM    6  N   LIG     1      14.856  35.509  20.294  1.00  0.00     0.088 N 
HETATM    7  H   LIG     1      13.922  35.203  19.936  1.00  0.00     0.316 HD
ENDROOT
BRANCH   1   8
HETATM    8  C   LIG     1      15.143  33.019  20.538  1.00  0.00     0.113 C 
BRANCH   8   9
HETATM    9  C   LIG     1      14.915  32.251  19.262  1.00  0.00     0.125 C 
HETATM   10  C   LIG     1      15.271  32.843  17.931  1.00  0.00     0.091 C 
HETATM   11  O   LIG     1      14.418  31.136  19.306  1.00  0.00    -0.298 OA
ENDBRANCH   8   9
ENDBRANCH   1   8
TORSDOF 2
ENDMDL
MODEL 16
REMARK VINA RESULT:      -4.3     10.797     12.015
REMARK  2 active torsions:
REMARK  status: ('A' for Active; 'I' for Inactive)
REMARK    1  A    between atoms: C_2  and  C_3 
REMARK    2  A    between atoms: C_3  and  C_4 
ROOT
HETATM    1  C   LIG     1      17.503  33.588  13.534  1.00  0.00     0.227 C 
HETATM    2  C   LIG     1      17.722  33.006  14.956  1.00  0.00     0.036 C 
HETATM    3  C   LIG     1      16.395  32.570  15.578  1.00  0.00     0.004 C 
HETATM    4  C   LIG     1      15.714  31.490  14.721  1.00  0.00     0.030 C 
HETATM    5  C   LIG     1      16.056  31.623  13.227  1.00  0.00     0.270 C 
HETATM    6  N   LIG     1      16.294  33.029  12.877  1.00  0.00     0.088 N 
HETATM    7  H   LIG     1      16.359  33.111  11.837  1.00  0.00     0.316 HD
ENDROOT
BRANCH   1   8
HETATM    8  C   LIG     1      18.776  33.404  12.673  1.00  0.00     0.113 C 
BRANCH   8   9
HETATM    9  C   LIG     1      18.874  34.432  11.576  1.00  0.00     0.125 C 
HETATM   10  C   LIG     1      20.056  34.469  10.654  1.00  0.00     0.091 C 
HETATM   11  O   LIG     1      17.986  35.262  11.442  1.00  0.00    -0.298 OA
ENDBRANCH   8   9
ENDBRANCH   1   8
TORSDOF 2
ENDMDL
MODEL 17
REMARK VINA RESULT:      -4.2      9.924     11.039
REMARK  2 active torsions:
REMARK  status: ('A' for Active; 'I' for Inactive)
REMARK    1  A    between atoms: C_2  and  C_3 
REMARK    2  A    between atoms: C_3  and  C_4 
ROOT
HETATM    1  C   LIG     1      15.985  32.474  15.960  1.00  0.00     0.227 C 
HETATM    2  C   LIG     1      16.708  33.786  15.553  1.00  0.00     0.036 C 
HETATM    3  C   LIG     1      17.790  33.512  14.507  1.00  0.00     0.004 C 
HETATM    4  C   LIG     1      17.183  32.887  13.239  1.00  0.00     0.030 C 
HETATM    5  C   LIG     1      15.927  32.051  13.539  1.00  0.00     0.270 C 
HETATM    6  N   LIG     1      16.012  31.457  14.879  1.00  0.00     0.088 N 
HETATM    7  H   LIG     1      15.234  30.768  14.992  1.00  0.00     0.316 HD
ENDROOT
BRANCH   1   8
HETATM    8  C   LIG     1      14.547  32.779  16.445  1.00  0.00     0.113 C 
BRANCH   8   9
HETATM    9  C   LIG     1      13.874  31.563  17.026  1.00  0.00     0.125 C 
HETATM   10  C   LIG     1      12.951  30.720  16.198  1.00  0.00     0.091 C 
HETATM   11  O   LIG     1      14.067  31.264  18.195  1.00  0.00    -0.298 OA
ENDBRANCH   8   9
ENDBRANCH   1   8
TORSDOF 2
ENDMDL
MODEL 18
REMARK VINA RESULT:      -4.1     10.751     11.910
REMARK  2 active torsions:
REMARK  status: ('A' for Active; 'I' for Inactive)
REMARK    1  A    between atoms: C_2  and  C_3 
REMARK    2  A    between atoms: C_3  and  C_4 
ROOT
HETATM    1  C   LIG     1      14.867  31.266  14.999  1.00  0.00     0.227 C 
HETATM    2  C   LIG     1      15.906  32.328  15.448  1.00  0.00     0.036 C 
HETATM    3  C   LIG     1      15.262  33.369  16.365  1.00  0.00     0.004 C 
HETATM    4  C   LIG     1      14.682  32.706  17.626  1.00  0.00     0.030 C 
HETATM    5  C   LIG     1      14.224  31.260  17.372  1.00  0.00     0.270 C 
HETATM    6  N   LIG     1      13.770  31.101  15.985  1.00  0.00     0.088 N 
HETATM    7  H   LIG     1      13.313  30.165  15.886  1.00  0.00     0.316 HD
ENDROOT
BRANCH   1   8
HETATM    8  C   LIG     1      15.571  29.926  14.673  1.00  0.00     0.113 C 
BRANCH   8   9
HETATM    9  C   LIG     1      14.628  28.922  14.065  1.00  0.00     0.125 C 
HETATM   10  C   LIG     1      15.131  27.611  13.536  1.00  0.00     0.091 C 
HETATM   11  O   LIG     1      13.436  29.180  13.985  1.00  0.00    -0.298 OA
ENDBRANCH   8   9
ENDBRANCH   1   8
TORSDOF 2
ENDMDL
MODEL 19
REMARK VINA RESULT:      -3.9      2.886      3.729
REMARK  2 active torsions:
REMARK  status: ('A' for Active; 'I' for Inactive)
REMARK    1  A    between atoms: C_2  and  C_3 
REMARK    2  A    between atoms: C_3  and  C_4 
ROOT
HETATM    1  C   LIG     1      15.868  36.658  22.556  1.00  0.00     0.227 C 
HETATM    2  C   LIG     1      17.123  36.011  21.911  1.00  0.00     0.036 C 
HETATM    3  C   LIG     1      16.835  34.573  21.479  1.00  0.00     0.004 C 
HETATM    4  C   LIG     1      15.692  34.526  20.450  1.00  0.00     0.030 C 
HETATM    5  C   LIG     1      14.686  35.673  20.638  1.00  0.00     0.270 C 
HETATM    6  N   LIG     1      14.606  36.062  22.051  1.00  0.00     0.088 N 
HETATM    7  H   LIG     1      13.803  36.721  22.175  1.00  0.00     0.316 HD
ENDROOT
BRANCH   1   8
HETATM    8  C   LIG     1      15.903  38.195  22.381  1.00  0.00     0.113 C 
BRANCH   8   9
HETATM    9  C   LIG     1      17.127  38.811  23.007  1.00  0.00     0.125 C 
HETATM   10  C   LIG     1      18.256  39.320  22.160  1.00  0.00     0.091 C 
HETATM   11  O   LIG     1      17.214  38.885  24.224  1.00  0.00    -0.298 OA
ENDBRANCH   8   9
ENDBRANCH   1   8
TORSDOF 2
ENDMDL
MODEL 20
REMARK VINA RESULT:      -3.8     10.275     11.482
REMARK  2 active torsions:
REMARK  status: ('A' for Active; 'I' for Inactive)
REMARK    1  A    between atoms: C_2  and  C_3 
REMARK    2  A    between atoms: C_3  and  C_4 
ROOT
HETATM    1  C   LIG     1      15.583  31.384  15.699  1.00  0.00     0.227 C 
HETATM    2  C   LIG     1      14.299  31.741  16.494  1.00  0.00     0.036 C 
HETATM    3  C   LIG     1      14.610  32.728  17.620  1.00  0.00     0.004 C 
HETATM    4  C   LIG     1      15.202  34.033  17.059  1.00  0.00     0.030 C 
HETATM    5  C   LIG     1      15.989  33.809  15.756  1.00  0.00     0.270 C 
HETATM    6  N   LIG     1      16.594  32.471  15.745  1.00  0.00     0.088 N 
HETATM    7  H   LIG     1      17.252  32.406  14.935  1.00  0.00     0.316 HD
ENDROOT
BRANCH   1   8
HETATM    8  C   LIG     1      15.225  30.976  14.250  1.00  0.00     0.113 C 
BRANCH   8   9
HETATM    9  C   LIG     1      14.744  29.551  14.163  1.00  0.00     0.125 C 
HETATM   10  C   LIG     1      13.283  29.221  14.241  1.00  0.00     0.091 C 
HETATM   11  O   LIG     1      15.555  28.644  14.043  1.00  0.00    -0.298 OA
ENDBRANCH   8   9
ENDBRANCH   1   8
TORSDOF 2
ENDMDL
