MODEL 1
REMARK VINA RESULT:      -5.6      0.000      0.000
REMARK  0 active torsions:
REMARK  status: ('A' for Active; 'I' for Inactive)
ROOT
HETATM    1  C   LIG     1      15.562  37.756  22.922  1.00  0.00     0.015 C 
HETATM    2  C   LIG     1      17.024  37.255  22.950  1.00  0.00    -0.047 C 
HETATM    3  C   LIG     1      17.104  35.864  23.592  1.00  0.00     0.013 C 
HETATM    4  C   LIG     1      17.195  36.114  25.100  1.00  0.00    -0.018 C 
HETATM    5  C   LIG     1      18.022  35.041  25.816  1.00  0.00     0.010 C 
HETATM    6  C   LIG     1      17.783  37.522  25.270  1.00  0.00     0.005 C 
HETATM    7  C   LIG     1      17.875  38.139  23.875  1.00  0.00     0.009 C 
HETATM    8  C   LIG     1      17.585  37.241  21.515  1.00  0.00     0.015 C 
ENDROOT
TORSDOF 0
ENDMDL
MODEL 2
REMARK VINA RESULT:      -5.6      1.814      3.500
REMARK  0 active torsions:
REMARK  status: ('A' for Active; 'I' for Inactive)
ROOT
HETATM    1  C   LIG     1      16.998  35.513  23.147  1.00  0.00     0.015 C 
HETATM    2  C   LIG     1      16.389  36.423  22.056  1.00  0.00    -0.047 C 
HETATM    3  C   LIG     1      17.484  36.940  21.114  1.00  0.00     0.013 C 
HETATM    4  C   LIG     1      18.052  38.189  21.794  1.00  0.00    -0.018 C 
HETATM    5  C   LIG     1      18.530  39.234  20.779  1.00  0.00     0.010 C 
HETATM    6  C   LIG     1      16.943  38.724  22.712  1.00  0.00     0.005 C 
HETATM    7  C   LIG     1      15.810  37.699  22.686  1.00  0.00     0.009 C 
HETATM    8  C   LIG     1      15.311  35.640  21.282  1.00  0.00     0.015 C 
ENDROOT
TORSDOF 0
ENDMDL
MODEL 3
REMARK VINA RESULT:      -5.5      1.373      3.620
REMARK  0 active torsions:
REMARK  status: ('A' for Active; 'I' for Inactive)
ROOT
HETATM    1  C   LIG     1      15.394  37.700  22.801  1.00  0.00     0.015 C 
HETATM    2  C   LIG     1      16.855  37.219  22.955  1.00  0.00    -0.047 C 
HETATM    3  C   LIG     1      17.737  37.814  21.850  1.00  0.00     0.013 C 
HETATM    4  C   LIG     1      17.587  36.871  20.653  1.00  0.00    -0.018 C 
HETATM    5  C   LIG     1      18.863  36.801  19.807  1.00  0.00     0.010 C 
HETATM    6  C   LIG     1      17.186  35.505  21.228  1.00  0.00     0.005 C 
HETATM    7  C   LIG     1      16.946  35.703  22.724  1.00  0.00     0.009 C 
HETATM    8  C   LIG     1      17.375  37.606  24.353  1.00  0.00     0.015 C 
ENDROOT
TORSDOF 0
ENDMDL
MODEL 4
REMARK VINA RESULT:      -5.4      2.914      4.277
REMARK  0 active torsions:
REMARK  status: ('A' for Active; 'I' for Inactive)
ROOT
HETATM    1  C   LIG     1      18.638  39.146  18.576  1.00  0.00     0.015 C 
HETATM    2  C   LIG     1      19.349  38.396  19.725  1.00  0.00    -0.047 C 
HETATM    3  C   LIG     1      18.849  36.948  19.812  1.00  0.00     0.013 C 
HETATM    4  C   LIG     1      17.585  37.002  20.674  1.00  0.00    -0.018 C 
HETATM    5  C   LIG     1      17.390  35.724  21.498  1.00  0.00     0.010 C 
HETATM    6  C   LIG     1      17.714  38.255  21.552  1.00  0.00     0.005 C 
HETATM    7  C   LIG     1      18.961  39.003  21.082  1.00  0.00     0.009 C 
HETATM    8  C   LIG     1      20.873  38.448  19.502  1.00  0.00     0.015 C 
ENDROOT
TORSDOF 0
ENDMDL
MODEL 5
REMARK VINA RESULT:      -5.3      1.130      1.362
REMARK  0 active torsions:
REMARK  status: ('A' for Active; 'I' for Inactive)
ROOT
HETATM    1  C   LIG     1      15.320  36.616  21.958  1.00  0.00     0.015 C 
HETATM    2  C   LIG     1      16.849  36.694  22.173  1.00  0.00    -0.047 C 
HETATM    3  C   LIG     1      17.246  35.986  23.475  1.00  0.00     0.013 C 
HETATM    4  C   LIG     1      17.069  37.030  24.581  1.00  0.00    -0.018 C 
HETATM    5  C   LIG     1      18.074  36.841  25.722  1.00  0.00     0.010 C 
HETATM    6  C   LIG     1      17.199  38.402  23.903  1.00  0.00     0.005 C 
HETATM    7  C   LIG     1      17.284  38.151  22.398  1.00  0.00     0.009 C 
HETATM    8  C   LIG     1      17.567  36.076  20.959  1.00  0.00     0.015 C 
ENDROOT
TORSDOF 0
ENDMDL
MODEL 6
REMARK VINA RESULT:      -5.3      1.825      3.679
REMARK  0 active torsions:
REMARK  status: ('A' for Active; 'I' for Inactive)
ROOT
HETATM    1  C   LIG     1      15.347  36.222  21.666  1.00  0.00     0.015 C 
HETATM    2  C   LIG     1      16.813  36.179  22.153  1.00  0.00    -0.047 C 
HETATM    3  C   LIG     1      17.243  37.552  22.686  1.00  0.00     0.013 C 
HETATM    4  C   LIG     1      17.708  38.341  21.459  1.00  0.00    -0.018 C 
HETATM    5  C   LIG     1      18.830  39.329  21.796  1.00  0.00     0.010 C 
HETATM    6  C   LIG     1      18.134  37.301  20.413  1.00  0.00     0.005 C 
HETATM    7  C   LIG     1      17.762  35.928  20.971  1.00  0.00     0.009 C 
HETATM    8  C   LIG     1      16.960  35.089  23.232  1.00  0.00     0.015 C 
ENDROOT
TORSDOF 0
ENDMDL
MODEL 7
REMARK VINA RESULT:      -5.0      1.282      2.553
REMARK  0 active torsions:
REMARK  status: ('A' for Active; 'I' for Inactive)
ROOT
HETATM    1  C   LIG     1      17.496  36.164  21.008  1.00  0.00     0.015 C 
HETATM    2  C   LIG     1      16.383  36.178  22.081  1.00  0.00    -0.047 C 
HETATM    3  C   LIG     1      16.439  37.476  22.898  1.00  0.00     0.013 C 
HETATM    4  C   LIG     1      17.461  37.217  24.008  1.00  0.00    -0.018 C 
HETATM    5  C   LIG     1      17.123  37.977  25.295  1.00  0.00     0.010 C 
HETATM    6  C   LIG     1      17.497  35.696  24.215  1.00  0.00     0.005 C 
HETATM    7  C   LIG     1      16.628  35.075  23.122  1.00  0.00     0.009 C 
HETATM    8  C   LIG     1      15.013  36.008  21.396  1.00  0.00     0.015 C 
ENDROOT
TORSDOF 0
ENDMDL
MODEL 8
REMARK VINA RESULT:      -4.9      2.234      3.806
REMARK  0 active torsions:
REMARK  status: ('A' for Active; 'I' for Inactive)
ROOT
HETATM    1  C   LIG     1      17.478  37.646  21.708  1.00  0.00     0.015 C 
HETATM    2  C   LIG     1      16.740  36.519  22.465  1.00  0.00    -0.047 C 
HETATM    3  C   LIG     1      17.037  35.156  21.824  1.00  0.00     0.013 C 
HETATM    4  C   LIG     1      16.024  35.010  20.685  1.00  0.00    -0.018 C 
HETATM    5  C   LIG     1      15.621  33.550  20.451  1.00  0.00     0.010 C 
HETATM    6  C   LIG     1      14.828  35.900  21.054  1.00  0.00     0.005 C 
HETATM    7  C   LIG     1      15.220  36.676  22.310  1.00  0.00     0.009 C 
HETATM    8  C   LIG     1      17.159  36.541  23.948  1.00  0.00     0.015 C 
ENDROOT
TORSDOF 0
ENDMDL
MODEL 9
REMARK VINA RESULT:      -4.9      1.037      2.224
REMARK  0 active torsions:
REMARK  status: ('A' for Active; 'I' for Inactive)
ROOT
HETATM    1  C   LIG     1      17.961  38.106  22.055  1.00  0.00     0.015 C 
HETATM    2  C   LIG     1      16.690  37.571  22.752  1.00  0.00    -0.047 C 
HETATM    3  C   LIG     1      16.988  37.210  24.213  1.00  0.00     0.013 C 
HETATM    4  C   LIG     1      17.534  35.780  24.180  1.00  0.00    -0.018 C 
HETATM    5  C   LIG     1      17.168  34.991  25.442  1.00  0.00     0.010 C 
HETATM    6  C   LIG     1      16.979  35.136  22.901  1.00  0.00     0.005 C 
HETATM    7  C   LIG     1      16.257  36.237  22.124  1.00  0.00     0.009 C 
HETATM    8  C   LIG     1      15.571  38.626  22.654  1.00  0.00     0.015 C 
ENDROOT
TORSDOF 0
ENDMDL
MODEL 10
REMARK VINA RESULT:      -4.9      1.652      3.525
REMARK  0 active torsions:
REMARK  status: ('A' for Active; 'I' for Inactive)
ROOT
HETATM    1  C   LIG     1      17.364  37.210  23.809  1.00  0.00     0.015 C 
HETATM    2  C   LIG     1      16.709  37.645  22.478  1.00  0.00    -0.047 C 
HETATM    3  C   LIG     1      15.729  36.572  21.985  1.00  0.00     0.013 C 
HETATM    4  C   LIG     1      16.580  35.568  21.202  1.00  0.00    -0.018 C 
HETATM    5  C   LIG     1      15.802  34.927  20.047  1.00  0.00     0.010 C 
HETATM    6  C   LIG     1      17.820  36.336  20.722  1.00  0.00     0.005 C 
HETATM    7  C   LIG     1      17.764  37.722  21.363  1.00  0.00     0.009 C 
HETATM    8  C   LIG     1      16.002  38.999  22.676  1.00  0.00     0.015 C 
ENDROOT
TORSDOF 0
ENDMDL
MODEL 11
REMARK VINA RESULT:      -4.7      1.271      3.525
REMARK  0 active torsions:
REMARK  status: ('A' for Active; 'I' for Inactive)
ROOT
HETATM    1  C   LIG     1      17.213  38.171  25.449  1.00  0.00     0.015 C 
HETATM    2  C   LIG     1      17.174  37.383  24.120  1.00  0.00    -0.047 C 
HETATM    3  C   LIG     1      18.308  37.836  23.192  1.00  0.00     0.013 C 
HETATM    4  C   LIG     1      17.764  39.057  22.446  1.00  0.00    -0.018 C 
HETATM    5  C   LIG     1      18.339  39.175  21.030  1.00  0.00     0.010 C 
HETATM    6  C   LIG     1      16.235  38.921  22.452  1.00  0.00     0.005 C 
HETATM    7  C   LIG     1      15.897  37.720  23.335  1.00  0.00     0.009 C 
HETATM    8  C   LIG     1      17.266  35.874  24.419  1.00  0.00     0.015 C 
ENDROOT
TORSDOF 0
ENDMDL
MODEL 12
REMARK VINA RESULT:      -4.3      8.129      9.707
REMARK  0 active torsions:
REMARK  status: ('A' for Active; 'I' for Inactive)
ROOT
HETATM    1  C   LIG     1      15.343  32.373  18.398  1.00  0.00     0.015 C 
HETATM    2  C   LIG     1      14.716  32.818  17.057  1.00  0.00    -0.047 C 
HETATM    3  C   LIG     1      13.414  32.051  16.791  1.00  0.00     0.013 C 
HETATM    4  C   LIG     1      13.839  30.742  16.121  1.00  0.00    -0.018 C 
HETATM    5  C   LIG     1      12.791  30.234  15.124  1.00  0.00     0.010 C 
HETATM    6  C   LIG     1      15.197  31.017  15.458  1.00  0.00     0.005 C 
HETATM    7  C   LIG     1      15.625  32.421  15.883  1.00  0.00     0.009 C 
HETATM    8  C   LIG     1      14.472  34.339  17.088  1.00  0.00     0.015 C 
ENDROOT
TORSDOF 0
ENDMDL
MODEL 13
REMARK VINA RESULT:      -4.3      8.295      9.912
REMARK  0 active torsions:
REMARK  status: ('A' for Active; 'I' for Inactive)
ROOT
HETATM    1  C   LIG     1      14.334  33.764  16.891  1.00  0.00     0.015 C 
HETATM    2  C   LIG     1      14.731  32.312  17.239  1.00  0.00    -0.047 C 
HETATM    3  C   LIG     1      15.681  31.744  16.176  1.00  0.00     0.013 C 
HETATM    4  C   LIG     1      14.777  31.198  15.068  1.00  0.00    -0.018 C 
HETATM    5  C   LIG     1      15.390  29.982  14.365  1.00  0.00     0.010 C 
HETATM    6  C   LIG     1      13.428  30.878  15.729  1.00  0.00     0.005 C 
HETATM    7  C   LIG     1      13.504  31.390  17.167  1.00  0.00     0.009 C 
HETATM    8  C   LIG     1      15.376  32.279  18.638  1.00  0.00     0.015 C 
ENDROOT
TORSDOF 0
ENDMDL
MODEL 14
REMARK VINA RESULT:      -4.0      8.906     10.451
REMARK  0 active torsions:
REMARK  status: ('A' for Active; 'I' for Inactive)
ROOT
HETATM    1  C   LIG     1      14.211  31.182  17.981  1.00  0.00     0.015 C 
HETATM    2  C   LIG     1      13.781  31.770  16.618  1.00  0.00    -0.047 C 
HETATM    3  C   LIG     1      13.794  30.683  15.535  1.00  0.00     0.013 C 
HETATM    4  C   LIG     1      15.235  30.631  15.022  1.00  0.00    -0.018 C 
HETATM    5  C   LIG     1      15.309  30.251  13.539  1.00  0.00     0.010 C 
HETATM    6  C   LIG     1      15.844  32.012  15.308  1.00  0.00     0.005 C 
HETATM    7  C   LIG     1      14.816  32.793  16.126  1.00  0.00     0.009 C 
HETATM    8  C   LIG     1      12.385  32.406  16.754  1.00  0.00     0.015 C 
ENDROOT
TORSDOF 0
ENDMDL
MODEL 15
REMARK VINA RESULT:      -3.7      9.945     11.449
REMARK  0 active torsions:
REMARK  status: ('A' for Active; 'I' for Inactive)
ROOT
HETATM    1  C   LIG     1      15.728  29.015  14.499  1.00  0.00     0.015 C 
HETATM    2  C   LIG     1      14.990  30.346  14.228  1.00  0.00    -0.047 C 
HETATM    3  C   LIG     1      15.147  31.301  15.419  1.00  0.00     0.013 C 
HETATM    4  C   LIG     1      14.035  30.920  16.400  1.00  0.00    -0.018 C 
HETATM    5  C   LIG     1      13.526  32.127  17.195  1.00  0.00     0.010 C 
HETATM    6  C   LIG     1      12.930  30.257  15.564  1.00  0.00     0.005 C 
HETATM    7  C   LIG     1      13.474  30.109  14.143  1.00  0.00     0.009 C 
HETATM    8  C   LIG     1      15.533  30.976  12.931  1.00  0.00     0.015 C 
ENDROOT
TORSDOF 0
ENDMDL
MODEL 16
REMARK VINA RESULT:      -3.7     16.151     18.069
REMARK  0 active torsions:
REMARK  status: ('A' for Active; 'I' for Inactive)
ROOT
HETATM    1  C   LIG     1      20.273  21.121  32.991  1.00  0.00     0.015 C 
HETATM    2  C   LIG     1      20.101  22.570  33.501  1.00  0.00    -0.047 C 
HETATM    3  C   LIG     1      21.444  23.131  33.988  1.00  0.00     0.013 C 
HETATM    4  C   LIG     1      21.578  22.669  35.441  1.00  0.00    -0.018 C 
HETATM    5  C   LIG     1      22.349  23.677  36.301  1.00  0.00     0.010 C 
HETATM    6  C   LIG     1      20.150  22.430  35.952  1.00  0.00     0.005 C 
HETATM    7  C   LIG     1      19.214  22.594  34.755  1.00  0.00     0.009 C 
HETATM    8  C   LIG     1      19.507  23.440  32.377  1.00  0.00     0.015 C 
ENDROOT
TORSDOF 0
ENDMDL
MODEL 17
REMARK VINA RESULT:      -3.7     11.798     13.145
REMARK  0 active torsions:
REMARK  status: ('A' for Active; 'I' for Inactive)
ROOT
HETATM    1  C   LIG     1      30.283  38.947  19.983  1.00  0.00     0.015 C 
HETATM    2  C   LIG     1      29.426  39.727  18.960  1.00  0.00    -0.047 C 
HETATM    3  C   LIG     1      27.934  39.454  19.190  1.00  0.00     0.013 C 
HETATM    4  C   LIG     1      27.629  38.167  18.418  1.00  0.00    -0.018 C 
HETATM    5  C   LIG     1      26.196  38.144  17.874  1.00  0.00     0.010 C 
HETATM    6  C   LIG     1      28.683  38.072  17.305  1.00  0.00     0.005 C 
HETATM    7  C   LIG     1      29.682  39.204  17.538  1.00  0.00     0.009 C 
HETATM    8  C   LIG     1      29.742  41.231  19.070  1.00  0.00     0.015 C 
ENDROOT
TORSDOF 0
ENDMDL
MODEL 18
REMARK VINA RESULT:      -3.7     17.433     18.415
REMARK  0 active torsions:
REMARK  status: ('A' for Active; 'I' for Inactive)
ROOT
HETATM    1  C   LIG     1       5.164  40.222  35.888  1.00  0.00     0.015 C 
HETATM    2  C   LIG     1       3.833  40.806  35.363  1.00  0.00    -0.047 C 
HETATM    3  C   LIG     1       4.076  41.654  34.108  1.00  0.00     0.013 C 
HETATM    4  C   LIG     1       4.448  43.048  34.621  1.00  0.00    -0.018 C 
HETATM    5  C   LIG     1       3.982  44.158  33.672  1.00  0.00     0.010 C 
HETATM    6  C   LIG     1       3.830  43.172  36.021  1.00  0.00     0.005 C 
HETATM    7  C   LIG     1       3.250  41.803  36.376  1.00  0.00     0.009 C 
HETATM    8  C   LIG     1       2.848  39.656  35.078  1.00  0.00     0.015 C 
ENDROOT
TORSDOF 0
ENDMDL
MODEL 19
REMARK VINA RESULT:      -3.6     18.301     19.472
REMARK  0 active torsions:
REMARK  status: ('A' for Active; 'I' for Inactive)
ROOT
HETATM    1  C   LIG     1      23.209  23.297  35.358  1.00  0.00     0.015 C 
HETATM    2  C   LIG     1      22.205  23.084  36.514  1.00  0.00    -0.047 C 
HETATM    3  C   LIG     1      21.676  21.644  36.509  1.00  0.00     0.013 C 
HETATM    4  C   LIG     1      20.500  21.642  35.529  1.00  0.00    -0.018 C 
HETATM    5  C   LIG     1      19.414  20.637  35.929  1.00  0.00     0.010 C 
HETATM    6  C   LIG     1      19.978  23.086  35.480  1.00  0.00     0.005 C 
HETATM    7  C   LIG     1      20.948  23.939  36.295  1.00  0.00     0.009 C 
HETATM    8  C   LIG     1      22.889  23.423  37.852  1.00  0.00     0.015 C 
ENDROOT
TORSDOF 0
ENDMDL
MODEL 20
REMARK VINA RESULT:      -3.5     16.895     17.918
REMARK  0 active torsions:
REMARK  status: ('A' for Active; 'I' for Inactive)
ROOT
HETATM    1  C   LIG     1       5.199  40.254  35.947  1.00  0.00     0.015 C 
HETATM    2  C   LIG     1       3.742  40.513  35.504  1.00  0.00    -0.047 C 
HETATM    3  C   LIG     1       3.332  39.531  34.398  1.00  0.00     0.013 C 
HETATM    4  C   LIG     1       3.809  40.165  33.089  1.00  0.00    -0.018 C 
HETATM    5  C   LIG     1       2.894  39.818  31.910  1.00  0.00     0.010 C 
HETATM    6  C   LIG     1       3.890  41.677  33.347  1.00  0.00     0.005 C 
HETATM    7  C   LIG     1       3.622  41.891  34.836  1.00  0.00     0.009 C 
HETATM    8  C   LIG     1       2.809  40.399  36.725  1.00  0.00     0.015 C 
ENDROOT
TORSDOF 0
ENDMDL
