REMARK  0 active torsions:
REMARK  status: ('A' for Active; 'I' for Inactive)
ROOT
HETATM    1  C   LIG     1      -1.556  -1.401   0.462  1.00  0.00     0.015 C 
HETATM    2  C   LIG     1      -1.009  -0.080  -0.125  1.00  0.00    -0.047 C 
HETATM    3  C   LIG     1       0.272  -0.338  -0.929  1.00  0.00     0.013 C 
HETATM    4  C   LIG     1       1.410  -0.317   0.095  1.00  0.00    -0.018 C 
HETATM    5  C   LIG     1       2.718   0.213  -0.503  1.00  0.00     0.010 C 
HETATM    6  C   LIG     1       0.914   0.533   1.274  1.00  0.00     0.005 C 
HETATM    7  C   LIG     1      -0.554   0.859   1.003  1.00  0.00     0.009 C 
HETATM    8  C   LIG     1      -2.094   0.578  -0.999  1.00  0.00     0.015 C 
ENDROOT
TORSDOF 0
