REMARK  1 active torsions:
REMARK  status: ('A' for Active; 'I' for Inactive)
REMARK    1  A    between atoms: O_1  and  C_2 
ROOT
HETATM    1  C   LIG     1      -0.680   0.299   0.669  1.00  0.00     0.144 C 
HETATM    2  C   LIG     1      -1.099  -0.591  -0.489  1.00  0.00     0.199 C 
HETATM    3  O   LIG     1       0.046  -0.972  -1.216  1.00  0.00    -0.389 OA
HETATM    4  C   LIG     1       1.108  -0.127  -0.830  1.00  0.00     0.170 C 
HETATM    5  C   LIG     1       0.617   0.888   0.187  1.00  0.00     0.060 C 
ENDROOT
BRANCH   1   6
HETATM    6  O   LIG     1      -0.502  -0.441   1.854  1.00  0.00    -0.393 OA
HETATM    7  H   LIG     1       0.156  -1.163   1.673  1.00  0.00     0.210 HD
ENDBRANCH   1   6
TORSDOF 1
