MODEL 1
REMARK VINA RESULT:      -3.9      0.000      0.000
REMARK  1 active torsions:
REMARK  status: ('A' for Active; 'I' for Inactive)
REMARK    1  A    between atoms: O_1  and  C_2 
ROOT
HETATM    1  C   LIG     1      17.723  34.940  25.968  1.00  0.00     0.144 C 
HETATM    2  C   LIG     1      18.259  36.168  26.684  1.00  0.00     0.199 C 
HETATM    3  O   LIG     1      17.695  37.322  26.106  1.00  0.00    -0.389 OA
HETATM    4  C   LIG     1      17.122  36.954  24.870  1.00  0.00     0.170 C 
HETATM    5  C   LIG     1      17.355  35.476  24.612  1.00  0.00     0.060 C 
ENDROOT
BRANCH   1   6
HETATM    6  O   LIG     1      16.604  34.399  26.631  1.00  0.00    -0.393 OA
HETATM    7  H   LIG     1      15.991  34.021  25.947  1.00  0.00     0.210 HD
ENDBRANCH   1   6
TORSDOF 1
ENDMDL
MODEL 2
REMARK VINA RESULT:      -3.9      1.064      2.741
REMARK  1 active torsions:
REMARK  status: ('A' for Active; 'I' for Inactive)
REMARK    1  A    between atoms: O_1  and  C_2 
ROOT
HETATM    1  C   LIG     1      17.822  37.326  25.179  1.00  0.00     0.144 C 
HETATM    2  C   LIG     1      17.310  36.197  24.301  1.00  0.00     0.199 C 
HETATM    3  O   LIG     1      17.195  35.026  25.076  1.00  0.00    -0.389 OA
HETATM    4  C   LIG     1      17.914  35.224  26.274  1.00  0.00     0.170 C 
HETATM    5  C   LIG     1      18.563  36.597  26.266  1.00  0.00     0.060 C 
ENDROOT
BRANCH   1   6
HETATM    6  O   LIG     1      16.765  38.096  25.703  1.00  0.00    -0.393 OA
HETATM    7  H   LIG     1      17.115  38.621  26.471  1.00  0.00     0.210 HD
ENDBRANCH   1   6
TORSDOF 1
ENDMDL
MODEL 3
REMARK VINA RESULT:      -3.9      2.130      3.383
REMARK  1 active torsions:
REMARK  status: ('A' for Active; 'I' for Inactive)
REMARK    1  A    between atoms: O_1  and  C_2 
ROOT
HETATM    1  C   LIG     1      16.595  37.899  23.478  1.00  0.00     0.144 C 
HETATM    2  C   LIG     1      16.949  36.472  23.094  1.00  0.00     0.199 C 
HETATM    3  O   LIG     1      17.259  35.744  24.259  1.00  0.00    -0.389 OA
HETATM    4  C   LIG     1      17.468  36.666  25.306  1.00  0.00     0.170 C 
HETATM    5  C   LIG     1      17.317  38.084  24.784  1.00  0.00     0.060 C 
ENDROOT
BRANCH   1   6
HETATM    6  O   LIG     1      15.204  38.066  23.629  1.00  0.00    -0.393 OA
HETATM    7  H   LIG     1      14.751  37.291  23.204  1.00  0.00     0.210 HD
ENDBRANCH   1   6
TORSDOF 1
ENDMDL
MODEL 4
REMARK VINA RESULT:      -3.7      3.444      4.041
REMARK  1 active torsions:
REMARK  status: ('A' for Active; 'I' for Inactive)
REMARK    1  A    between atoms: O_1  and  C_2 
ROOT
HETATM    1  C   LIG     1      16.555  37.718  23.633  1.00  0.00     0.144 C 
HETATM    2  C   LIG     1      17.397  38.716  22.857  1.00  0.00     0.199 C 
HETATM    3  O   LIG     1      17.582  38.240  21.543  1.00  0.00    -0.389 OA
HETATM    4  C   LIG     1      17.227  36.875  21.521  1.00  0.00     0.170 C 
HETATM    5  C   LIG     1      16.817  36.425  22.911  1.00  0.00     0.060 C 
ENDROOT
BRANCH   1   6
HETATM    6  O   LIG     1      15.188  38.058  23.604  1.00  0.00    -0.393 OA
HETATM    7  H   LIG     1      14.892  38.070  22.655  1.00  0.00     0.210 HD
ENDBRANCH   1   6
TORSDOF 1
ENDMDL
MODEL 5
REMARK VINA RESULT:      -3.7      3.471      3.777
REMARK  1 active torsions:
REMARK  status: ('A' for Active; 'I' for Inactive)
REMARK    1  A    between atoms: O_1  and  C_2 
ROOT
HETATM    1  C   LIG     1      16.441  37.385  23.508  1.00  0.00     0.144 C 
HETATM    2  C   LIG     1      17.629  38.236  23.924  1.00  0.00     0.199 C 
HETATM    3  O   LIG     1      18.219  38.798  22.775  1.00  0.00    -0.389 OA
HETATM    4  C   LIG     1      17.725  38.106  21.649  1.00  0.00     0.170 C 
HETATM    5  C   LIG     1      16.780  37.004  22.093  1.00  0.00     0.060 C 
ENDROOT
BRANCH   1   6
HETATM    6  O   LIG     1      15.235  38.111  23.572  1.00  0.00    -0.393 OA
HETATM    7  H   LIG     1      15.131  38.458  24.496  1.00  0.00     0.210 HD
ENDBRANCH   1   6
TORSDOF 1
ENDMDL
MODEL 6
REMARK VINA RESULT:      -3.5      5.742      6.832
REMARK  1 active torsions:
REMARK  status: ('A' for Active; 'I' for Inactive)
REMARK    1  A    between atoms: O_1  and  C_2 
ROOT
HETATM    1  C   LIG     1      19.463  38.918  19.755  1.00  0.00     0.144 C 
HETATM    2  C   LIG     1      19.232  37.427  19.576  1.00  0.00     0.199 C 
HETATM    3  O   LIG     1      18.165  37.023  20.403  1.00  0.00    -0.389 OA
HETATM    4  C   LIG     1      17.928  38.051  21.341  1.00  0.00     0.170 C 
HETATM    5  C   LIG     1      18.923  39.179  21.134  1.00  0.00     0.060 C 
ENDROOT
BRANCH   1   6
HETATM    6  O   LIG     1      18.777  39.670  18.781  1.00  0.00    -0.393 OA
HETATM    7  H   LIG     1      19.223  39.524  17.906  1.00  0.00     0.210 HD
ENDBRANCH   1   6
TORSDOF 1
ENDMDL
MODEL 7
REMARK VINA RESULT:      -3.5      1.698      2.845
REMARK  1 active torsions:
REMARK  status: ('A' for Active; 'I' for Inactive)
REMARK    1  A    between atoms: O_1  and  C_2 
ROOT
HETATM    1  C   LIG     1      17.289  37.494  25.070  1.00  0.00     0.144 C 
HETATM    2  C   LIG     1      17.339  35.987  25.253  1.00  0.00     0.199 C 
HETATM    3  O   LIG     1      17.282  35.366  23.990  1.00  0.00    -0.389 OA
HETATM    4  C   LIG     1      16.855  36.328  23.051  1.00  0.00     0.170 C 
HETATM    5  C   LIG     1      16.585  37.648  23.750  1.00  0.00     0.060 C 
ENDROOT
BRANCH   1   6
HETATM    6  O   LIG     1      18.581  38.055  25.034  1.00  0.00    -0.393 OA
HETATM    7  H   LIG     1      19.066  37.770  25.853  1.00  0.00     0.210 HD
ENDBRANCH   1   6
TORSDOF 1
ENDMDL
MODEL 8
REMARK VINA RESULT:      -3.5      2.613      3.676
REMARK  1 active torsions:
REMARK  status: ('A' for Active; 'I' for Inactive)
REMARK    1  A    between atoms: O_1  and  C_2 
ROOT
HETATM    1  C   LIG     1      16.509  36.605  22.389  1.00  0.00     0.144 C 
HETATM    2  C   LIG     1      15.669  37.708  23.012  1.00  0.00     0.199 C 
HETATM    3  O   LIG     1      16.185  38.018  24.286  1.00  0.00    -0.389 OA
HETATM    4  C   LIG     1      17.058  36.977  24.667  1.00  0.00     0.170 C 
HETATM    5  C   LIG     1      17.088  35.908  23.589  1.00  0.00     0.060 C 
ENDROOT
BRANCH   1   6
HETATM    6  O   LIG     1      17.519  37.128  21.559  1.00  0.00    -0.393 OA
HETATM    7  H   LIG     1      17.849  37.973  21.965  1.00  0.00     0.210 HD
ENDBRANCH   1   6
TORSDOF 1
ENDMDL
MODEL 9
REMARK VINA RESULT:      -3.5      5.764      6.468
REMARK  1 active torsions:
REMARK  status: ('A' for Active; 'I' for Inactive)
REMARK    1  A    between atoms: O_1  and  C_2 
ROOT
HETATM    1  C   LIG     1      18.948  36.978  19.709  1.00  0.00     0.144 C 
HETATM    2  C   LIG     1      18.067  37.333  20.895  1.00  0.00     0.199 C 
HETATM    3  O   LIG     1      17.972  38.734  20.997  1.00  0.00    -0.389 OA
HETATM    4  C   LIG     1      18.987  39.299  20.196  1.00  0.00     0.170 C 
HETATM    5  C   LIG     1      19.815  38.197  19.559  1.00  0.00     0.060 C 
ENDROOT
BRANCH   1   6
HETATM    6  O   LIG     1      18.185  36.742  18.549  1.00  0.00    -0.393 OA
HETATM    7  H   LIG     1      17.319  37.220  18.644  1.00  0.00     0.210 HD
ENDBRANCH   1   6
TORSDOF 1
ENDMDL
MODEL 10
REMARK VINA RESULT:      -3.5      5.132      6.133
REMARK  1 active torsions:
REMARK  status: ('A' for Active; 'I' for Inactive)
REMARK    1  A    between atoms: O_1  and  C_2 
ROOT
HETATM    1  C   LIG     1      18.457  39.208  21.270  1.00  0.00     0.144 C 
HETATM    2  C   LIG     1      17.713  37.894  21.431  1.00  0.00     0.199 C 
HETATM    3  O   LIG     1      18.262  36.941  20.550  1.00  0.00    -0.389 OA
HETATM    4  C   LIG     1      19.052  37.628  19.605  1.00  0.00     0.170 C 
HETATM    5  C   LIG     1      18.989  39.122  19.866  1.00  0.00     0.060 C 
ENDROOT
BRANCH   1   6
HETATM    6  O   LIG     1      19.499  39.334  22.209  1.00  0.00    -0.393 OA
HETATM    7  H   LIG     1      19.673  40.301  22.351  1.00  0.00     0.210 HD
ENDBRANCH   1   6
TORSDOF 1
ENDMDL
MODEL 11
REMARK VINA RESULT:      -3.4      9.292     10.031
REMARK  1 active torsions:
REMARK  status: ('A' for Active; 'I' for Inactive)
REMARK    1  A    between atoms: O_1  and  C_2 
ROOT
HETATM    1  C   LIG     1      13.841  31.483  17.300  1.00  0.00     0.144 C 
HETATM    2  C   LIG     1      14.791  32.226  18.224  1.00  0.00     0.199 C 
HETATM    3  O   LIG     1      15.593  33.095  17.460  1.00  0.00    -0.389 OA
HETATM    4  C   LIG     1      15.477  32.718  16.106  1.00  0.00     0.170 C 
HETATM    5  C   LIG     1      14.568  31.507  15.983  1.00  0.00     0.060 C 
ENDROOT
BRANCH   1   6
HETATM    6  O   LIG     1      12.592  32.127  17.212  1.00  0.00    -0.393 OA
HETATM    7  H   LIG     1      12.673  32.874  16.562  1.00  0.00     0.210 HD
ENDBRANCH   1   6
TORSDOF 1
ENDMDL
MODEL 12
REMARK VINA RESULT:      -3.3      4.061      4.800
REMARK  1 active torsions:
REMARK  status: ('A' for Active; 'I' for Inactive)
REMARK    1  A    between atoms: O_1  and  C_2 
ROOT
HETATM    1  C   LIG     1      15.183  35.652  21.107  1.00  0.00     0.144 C 
HETATM    2  C   LIG     1      16.457  34.844  20.924  1.00  0.00     0.199 C 
HETATM    3  O   LIG     1      17.263  34.987  22.071  1.00  0.00    -0.389 OA
HETATM    4  C   LIG     1      16.774  36.083  22.813  1.00  0.00     0.170 C 
HETATM    5  C   LIG     1      15.597  36.713  22.089  1.00  0.00     0.060 C 
ENDROOT
BRANCH   1   6
HETATM    6  O   LIG     1      14.135  34.860  21.615  1.00  0.00    -0.393 OA
HETATM    7  H   LIG     1      14.479  33.938  21.748  1.00  0.00     0.210 HD
ENDBRANCH   1   6
TORSDOF 1
ENDMDL
MODEL 13
REMARK VINA RESULT:      -3.1      5.864      6.583
REMARK  1 active torsions:
REMARK  status: ('A' for Active; 'I' for Inactive)
REMARK    1  A    between atoms: O_1  and  C_2 
ROOT
HETATM    1  C   LIG     1      18.766  37.972  20.823  1.00  0.00     0.144 C 
HETATM    2  C   LIG     1      18.904  39.468  20.592  1.00  0.00     0.199 C 
HETATM    3  O   LIG     1      18.784  39.735  19.214  1.00  0.00    -0.389 OA
HETATM    4  C   LIG     1      18.928  38.515  18.520  1.00  0.00     0.170 C 
HETATM    5  C   LIG     1      19.191  37.389  19.504  1.00  0.00     0.060 C 
ENDROOT
BRANCH   1   6
HETATM    6  O   LIG     1      17.441  37.617  21.143  1.00  0.00    -0.393 OA
HETATM    7  H   LIG     1      16.867  37.823  20.359  1.00  0.00     0.210 HD
ENDBRANCH   1   6
TORSDOF 1
ENDMDL
MODEL 14
REMARK VINA RESULT:      -3.1     11.101     11.808
REMARK  1 active torsions:
REMARK  status: ('A' for Active; 'I' for Inactive)
REMARK    1  A    between atoms: O_1  and  C_2 
ROOT
HETATM    1  C   LIG     1      16.284  32.567  15.678  1.00  0.00     0.144 C 
HETATM    2  C   LIG     1      17.485  32.883  14.803  1.00  0.00     0.199 C 
HETATM    3  O   LIG     1      17.157  32.626  13.458  1.00  0.00    -0.389 OA
HETATM    4  C   LIG     1      15.979  31.851  13.438  1.00  0.00     0.170 C 
HETATM    5  C   LIG     1      15.529  31.558  14.858  1.00  0.00     0.060 C 
ENDROOT
BRANCH   1   6
HETATM    6  O   LIG     1      15.507  33.715  15.927  1.00  0.00    -0.393 OA
HETATM    7  H   LIG     1      14.561  33.502  15.710  1.00  0.00     0.210 HD
ENDBRANCH   1   6
TORSDOF 1
ENDMDL
MODEL 15
REMARK VINA RESULT:      -3.1      3.678      4.382
REMARK  1 active torsions:
REMARK  status: ('A' for Active; 'I' for Inactive)
REMARK    1  A    between atoms: O_1  and  C_2 
ROOT
HETATM    1  C   LIG     1      16.396  35.965  22.135  1.00  0.00     0.144 C 
HETATM    2  C   LIG     1      17.145  35.955  20.813  1.00  0.00     0.199 C 
HETATM    3  O   LIG     1      18.000  37.074  20.759  1.00  0.00    -0.389 OA
HETATM    4  C   LIG     1      17.605  37.973  21.773  1.00  0.00     0.170 C 
HETATM    5  C   LIG     1      16.399  37.421  22.512  1.00  0.00     0.060 C 
ENDROOT
BRANCH   1   6
HETATM    6  O   LIG     1      17.047  35.179  23.106  1.00  0.00    -0.393 OA
HETATM    7  H   LIG     1      17.005  34.230  22.816  1.00  0.00     0.210 HD
ENDBRANCH   1   6
TORSDOF 1
ENDMDL
MODEL 16
REMARK VINA RESULT:      -3.0     11.303     12.164
REMARK  1 active torsions:
REMARK  status: ('A' for Active; 'I' for Inactive)
REMARK    1  A    between atoms: O_1  and  C_2 
ROOT
HETATM    1  C   LIG     1      16.366  32.603  14.896  1.00  0.00     0.144 C 
HETATM    2  C   LIG     1      15.240  31.935  15.667  1.00  0.00     0.199 C 
HETATM    3  O   LIG     1      14.844  30.767  14.986  1.00  0.00    -0.389 OA
HETATM    4  C   LIG     1      15.378  30.822  13.681  1.00  0.00     0.170 C 
HETATM    5  C   LIG     1      16.142  32.120  13.489  1.00  0.00     0.060 C 
ENDROOT
BRANCH   1   6
HETATM    6  O   LIG     1      17.629  32.213  15.380  1.00  0.00    -0.393 OA
HETATM    7  H   LIG     1      17.551  31.292  15.744  1.00  0.00     0.210 HD
ENDBRANCH   1   6
TORSDOF 1
ENDMDL
MODEL 17
REMARK VINA RESULT:      -3.0     11.743     12.519
REMARK  1 active torsions:
REMARK  status: ('A' for Active; 'I' for Inactive)
REMARK    1  A    between atoms: O_1  and  C_2 
ROOT
HETATM    1  C   LIG     1      14.994  30.382  14.060  1.00  0.00     0.144 C 
HETATM    2  C   LIG     1      15.681  31.582  13.431  1.00  0.00     0.199 C 
HETATM    3  O   LIG     1      16.034  32.496  14.443  1.00  0.00    -0.389 OA
HETATM    4  C   LIG     1      15.327  32.144  15.613  1.00  0.00     0.170 C 
HETATM    5  C   LIG     1      14.434  30.947  15.336  1.00  0.00     0.060 C 
ENDROOT
BRANCH   1   6
HETATM    6  O   LIG     1      15.904  29.338  14.314  1.00  0.00    -0.393 OA
HETATM    7  H   LIG     1      16.041  29.277  15.296  1.00  0.00     0.210 HD
ENDBRANCH   1   6
TORSDOF 1
ENDMDL
MODEL 18
REMARK VINA RESULT:      -3.0      4.394      5.162
REMARK  1 active torsions:
REMARK  status: ('A' for Active; 'I' for Inactive)
REMARK    1  A    between atoms: O_1  and  C_2 
ROOT
HETATM    1  C   LIG     1      16.933  35.422  21.181  1.00  0.00     0.144 C 
HETATM    2  C   LIG     1      15.472  35.029  21.046  1.00  0.00     0.199 C 
HETATM    3  O   LIG     1      14.665  36.086  21.511  1.00  0.00    -0.389 OA
HETATM    4  C   LIG     1      15.484  36.969  22.245  1.00  0.00     0.170 C 
HETATM    5  C   LIG     1      16.906  36.439  22.289  1.00  0.00     0.060 C 
ENDROOT
BRANCH   1   6
HETATM    6  O   LIG     1      17.434  35.975  19.986  1.00  0.00    -0.393 OA
HETATM    7  H   LIG     1      17.936  35.266  19.503  1.00  0.00     0.210 HD
ENDBRANCH   1   6
TORSDOF 1
ENDMDL
MODEL 19
REMARK VINA RESULT:      -3.0     14.002     14.630
REMARK  1 active torsions:
REMARK  status: ('A' for Active; 'I' for Inactive)
REMARK    1  A    between atoms: O_1  and  C_2 
ROOT
HETATM    1  C   LIG     1      18.824  33.960  12.162  1.00  0.00     0.144 C 
HETATM    2  C   LIG     1      18.818  34.810  10.903  1.00  0.00     0.199 C 
HETATM    3  O   LIG     1      20.125  34.873  10.382  1.00  0.00    -0.389 OA
HETATM    4  C   LIG     1      21.015  34.429  11.383  1.00  0.00     0.170 C 
HETATM    5  C   LIG     1      20.243  34.087  12.645  1.00  0.00     0.060 C 
ENDROOT
BRANCH   1   6
HETATM    6  O   LIG     1      18.491  32.620  11.885  1.00  0.00    -0.393 OA
HETATM    7  H   LIG     1      19.285  32.179  11.483  1.00  0.00     0.210 HD
ENDBRANCH   1   6
TORSDOF 1
ENDMDL
