MODEL 1
REMARK VINA RESULT:      -6.2      0.000      0.000
REMARK  2 active torsions:
REMARK  status: ('A' for Active; 'I' for Inactive)
REMARK    1  A    between atoms: C_2  and  C_3 
REMARK    2  A    between atoms: C_3  and  C_4 
ROOT
HETATM    1  C   LIG     1      16.977  37.346  24.679  1.00  0.00     0.220 C 
HETATM    2  N   LIG     1      17.451  37.569  26.064  1.00  0.00     0.088 N 
HETATM    3  C   LIG     1      18.625  36.752  26.406  1.00  0.00     0.270 C 
HETATM    4  C   LIG     1      18.297  35.246  26.371  1.00  0.00     0.030 C 
HETATM    5  C   LIG     1      17.220  34.904  25.328  1.00  0.00     0.004 C 
HETATM    6  C   LIG     1      17.241  35.901  24.170  1.00  0.00     0.035 C 
HETATM    7  H   LIG     1      16.680  37.335  26.735  1.00  0.00     0.316 HD
ENDROOT
BRANCH   1   8
HETATM    8  C   LIG     1      17.602  38.408  23.752  1.00  0.00     0.035 C 
BRANCH   8   9
HETATM    9  C   LIG     1      17.433  38.061  22.265  1.00  0.00    -0.002 C 
HETATM   10  C   LIG     1      18.324  38.940  21.391  1.00  0.00     0.005 C 
ENDBRANCH   8   9
ENDBRANCH   1   8
TORSDOF 2
ENDMDL
MODEL 2
REMARK VINA RESULT:      -5.7      1.334      4.002
REMARK  2 active torsions:
REMARK  status: ('A' for Active; 'I' for Inactive)
REMARK    1  A    between atoms: C_2  and  C_3 
REMARK    2  A    between atoms: C_3  and  C_4 
ROOT
HETATM    1  C   LIG     1      17.235  38.460  24.655  1.00  0.00     0.220 C 
HETATM    2  N   LIG     1      16.076  37.967  23.875  1.00  0.00     0.088 N 
HETATM    3  C   LIG     1      16.452  36.980  22.852  1.00  0.00     0.270 C 
HETATM    4  C   LIG     1      17.375  37.597  21.783  1.00  0.00     0.030 C 
HETATM    5  C   LIG     1      18.274  38.707  22.352  1.00  0.00     0.004 C 
HETATM    6  C   LIG     1      18.557  38.478  23.836  1.00  0.00     0.035 C 
HETATM    7  H   LIG     1      15.613  38.777  23.398  1.00  0.00     0.316 HD
ENDROOT
BRANCH   1   8
HETATM    8  C   LIG     1      17.368  37.628  25.946  1.00  0.00     0.035 C 
BRANCH   8   9
HETATM    9  C   LIG     1      18.588  36.693  25.919  1.00  0.00    -0.002 C 
HETATM   10  C   LIG     1      18.172  35.242  26.139  1.00  0.00     0.005 C 
ENDBRANCH   8   9
ENDBRANCH   1   8
TORSDOF 2
ENDMDL
MODEL 3
REMARK VINA RESULT:      -5.7      1.497      1.711
REMARK  2 active torsions:
REMARK  status: ('A' for Active; 'I' for Inactive)
REMARK    1  A    between atoms: C_2  and  C_3 
REMARK    2  A    between atoms: C_3  and  C_4 
ROOT
HETATM    1  C   LIG     1      16.542  36.701  23.298  1.00  0.00     0.220 C 
HETATM    2  N   LIG     1      16.643  37.685  24.400  1.00  0.00     0.088 N 
HETATM    3  C   LIG     1      17.884  37.548  25.177  1.00  0.00     0.270 C 
HETATM    4  C   LIG     1      17.953  36.187  25.897  1.00  0.00     0.030 C 
HETATM    5  C   LIG     1      17.241  35.072  25.115  1.00  0.00     0.004 C 
HETATM    6  C   LIG     1      17.257  35.357  23.613  1.00  0.00     0.035 C 
HETATM    7  H   LIG     1      15.831  37.559  25.050  1.00  0.00     0.316 HD
ENDROOT
BRANCH   1   8
HETATM    8  C   LIG     1      17.065  37.341  21.996  1.00  0.00     0.035 C 
BRANCH   8   9
HETATM    9  C   LIG     1      17.455  36.293  20.942  1.00  0.00    -0.002 C 
HETATM   10  C   LIG     1      18.542  36.826  20.013  1.00  0.00     0.005 C 
ENDBRANCH   8   9
ENDBRANCH   1   8
TORSDOF 2
ENDMDL
MODEL 4
REMARK VINA RESULT:      -5.6      1.532      2.010
REMARK  2 active torsions:
REMARK  status: ('A' for Active; 'I' for Inactive)
REMARK    1  A    between atoms: C_2  and  C_3 
REMARK    2  A    between atoms: C_3  and  C_4 
ROOT
HETATM    1  C   LIG     1      16.732  36.236  24.398  1.00  0.00     0.220 C 
HETATM    2  N   LIG     1      17.081  37.380  25.271  1.00  0.00     0.088 N 
HETATM    3  C   LIG     1      18.429  37.271  25.847  1.00  0.00     0.270 C 
HETATM    4  C   LIG     1      18.549  36.050  26.781  1.00  0.00     0.030 C 
HETATM    5  C   LIG     1      17.648  34.884  26.342  1.00  0.00     0.004 C 
HETATM    6  C   LIG     1      17.415  34.908  24.831  1.00  0.00     0.035 C 
HETATM    7  H   LIG     1      16.390  37.437  26.058  1.00  0.00     0.316 HD
ENDROOT
BRANCH   1   8
HETATM    8  C   LIG     1      17.052  36.598  22.934  1.00  0.00     0.035 C 
BRANCH   8   9
HETATM    9  C   LIG     1      16.889  35.402  21.984  1.00  0.00    -0.002 C 
HETATM   10  C   LIG     1      15.682  35.587  21.069  1.00  0.00     0.005 C 
ENDBRANCH   8   9
ENDBRANCH   1   8
TORSDOF 2
ENDMDL
MODEL 5
REMARK VINA RESULT:      -5.4      1.644      4.459
REMARK  2 active torsions:
REMARK  status: ('A' for Active; 'I' for Inactive)
REMARK    1  A    between atoms: C_2  and  C_3 
REMARK    2  A    between atoms: C_3  and  C_4 
ROOT
HETATM    1  C   LIG     1      16.742  37.116  23.554  1.00  0.00     0.220 C 
HETATM    2  N   LIG     1      16.448  36.760  22.147  1.00  0.00     0.088 N 
HETATM    3  C   LIG     1      17.608  36.927  21.259  1.00  0.00     0.270 C 
HETATM    4  C   LIG     1      18.051  38.401  21.177  1.00  0.00     0.030 C 
HETATM    5  C   LIG     1      17.784  39.168  22.483  1.00  0.00     0.004 C 
HETATM    6  C   LIG     1      17.819  38.229  23.688  1.00  0.00     0.035 C 
HETATM    7  H   LIG     1      15.671  37.368  21.791  1.00  0.00     0.316 HD
ENDROOT
BRANCH   1   8
HETATM    8  C   LIG     1      17.130  35.841  24.329  1.00  0.00     0.035 C 
BRANCH   8   9
HETATM    9  C   LIG     1      17.837  36.155  25.657  1.00  0.00    -0.002 C 
HETATM   10  C   LIG     1      18.317  34.876  26.338  1.00  0.00     0.005 C 
ENDBRANCH   8   9
ENDBRANCH   1   8
TORSDOF 2
ENDMDL
MODEL 6
REMARK VINA RESULT:      -5.4      1.837      2.799
REMARK  2 active torsions:
REMARK  status: ('A' for Active; 'I' for Inactive)
REMARK    1  A    between atoms: C_2  and  C_3 
REMARK    2  A    between atoms: C_3  and  C_4 
ROOT
HETATM    1  C   LIG     1      17.325  38.552  21.979  1.00  0.00     0.220 C 
HETATM    2  N   LIG     1      16.965  38.864  23.381  1.00  0.00     0.088 N 
HETATM    3  C   LIG     1      17.557  37.926  24.347  1.00  0.00     0.270 C 
HETATM    4  C   LIG     1      17.025  36.494  24.144  1.00  0.00     0.030 C 
HETATM    5  C   LIG     1      16.686  36.196  22.674  1.00  0.00     0.004 C 
HETATM    6  C   LIG     1      17.548  37.034  21.731  1.00  0.00     0.035 C 
HETATM    7  H   LIG     1      15.922  38.830  23.486  1.00  0.00     0.316 HD
ENDROOT
BRANCH   1   8
HETATM    8  C   LIG     1      18.554  39.390  21.572  1.00  0.00     0.035 C 
BRANCH   8   9
HETATM    9  C   LIG     1      18.791  39.385  20.054  1.00  0.00    -0.002 C 
HETATM   10  C   LIG     1      20.162  38.806  19.715  1.00  0.00     0.005 C 
ENDBRANCH   8   9
ENDBRANCH   1   8
TORSDOF 2
ENDMDL
MODEL 7
REMARK VINA RESULT:      -5.3      2.574      4.958
REMARK  2 active torsions:
REMARK  status: ('A' for Active; 'I' for Inactive)
REMARK    1  A    between atoms: C_2  and  C_3 
REMARK    2  A    between atoms: C_3  and  C_4 
ROOT
HETATM    1  C   LIG     1      18.182  38.135  21.875  1.00  0.00     0.220 C 
HETATM    2  N   LIG     1      19.057  39.214  21.362  1.00  0.00     0.088 N 
HETATM    3  C   LIG     1      18.846  39.492  19.934  1.00  0.00     0.270 C 
HETATM    4  C   LIG     1      19.216  38.278  19.060  1.00  0.00     0.030 C 
HETATM    5  C   LIG     1      18.962  36.941  19.775  1.00  0.00     0.004 C 
HETATM    6  C   LIG     1      17.833  37.070  20.797  1.00  0.00     0.035 C 
HETATM    7  H   LIG     1      20.060  38.940  21.500  1.00  0.00     0.316 HD
ENDROOT
BRANCH   1   8
HETATM    8  C   LIG     1      16.918  38.760  22.498  1.00  0.00     0.035 C 
BRANCH   8   9
HETATM    9  C   LIG     1      16.258  37.839  23.536  1.00  0.00    -0.002 C 
HETATM   10  C   LIG     1      17.089  37.769  24.814  1.00  0.00     0.005 C 
ENDBRANCH   8   9
ENDBRANCH   1   8
TORSDOF 2
ENDMDL
MODEL 8
REMARK VINA RESULT:      -5.0      2.934      4.641
REMARK  2 active torsions:
REMARK  status: ('A' for Active; 'I' for Inactive)
REMARK    1  A    between atoms: C_2  and  C_3 
REMARK    2  A    between atoms: C_3  and  C_4 
ROOT
HETATM    1  C   LIG     1      17.149  35.773  22.048  1.00  0.00     0.220 C 
HETATM    2  N   LIG     1      16.840  36.653  23.198  1.00  0.00     0.088 N 
HETATM    3  C   LIG     1      16.285  37.952  22.792  1.00  0.00     0.270 C 
HETATM    4  C   LIG     1      17.301  38.770  21.971  1.00  0.00     0.030 C 
HETATM    5  C   LIG     1      18.236  37.878  21.137  1.00  0.00     0.004 C 
HETATM    6  C   LIG     1      17.555  36.560  20.770  1.00  0.00     0.035 C 
HETATM    7  H   LIG     1      17.718  36.826  23.746  1.00  0.00     0.316 HD
ENDROOT
BRANCH   1   8
HETATM    8  C   LIG     1      15.952  34.835  21.791  1.00  0.00     0.035 C 
BRANCH   8   9
HETATM    9  C   LIG     1      15.739  34.552  20.296  1.00  0.00    -0.002 C 
HETATM   10  C   LIG     1      15.486  33.067  20.049  1.00  0.00     0.005 C 
ENDBRANCH   8   9
ENDBRANCH   1   8
TORSDOF 2
ENDMDL
MODEL 9
REMARK VINA RESULT:      -4.9      1.719      2.452
REMARK  2 active torsions:
REMARK  status: ('A' for Active; 'I' for Inactive)
REMARK    1  A    between atoms: C_2  and  C_3 
REMARK    2  A    between atoms: C_3  and  C_4 
ROOT
HETATM    1  C   LIG     1      17.303  37.035  24.099  1.00  0.00     0.220 C 
HETATM    2  N   LIG     1      17.480  35.567  24.020  1.00  0.00     0.088 N 
HETATM    3  C   LIG     1      17.078  34.875  25.253  1.00  0.00     0.270 C 
HETATM    4  C   LIG     1      17.963  35.284  26.446  1.00  0.00     0.030 C 
HETATM    5  C   LIG     1      18.463  36.734  26.337  1.00  0.00     0.004 C 
HETATM    6  C   LIG     1      17.483  37.594  25.538  1.00  0.00     0.035 C 
HETATM    7  H   LIG     1      18.489  35.350  23.834  1.00  0.00     0.316 HD
ENDROOT
BRANCH   1   8
HETATM    8  C   LIG     1      15.934  37.414  23.500  1.00  0.00     0.035 C 
BRANCH   8   9
HETATM    9  C   LIG     1      15.867  37.170  21.985  1.00  0.00    -0.002 C 
HETATM   10  C   LIG     1      14.929  36.012  21.656  1.00  0.00     0.005 C 
ENDBRANCH   8   9
ENDBRANCH   1   8
TORSDOF 2
ENDMDL
MODEL 10
REMARK VINA RESULT:      -4.7      2.269      4.151
REMARK  2 active torsions:
REMARK  status: ('A' for Active; 'I' for Inactive)
REMARK    1  A    between atoms: C_2  and  C_3 
REMARK    2  A    between atoms: C_3  and  C_4 
ROOT
HETATM    1  C   LIG     1      17.094  36.551  23.417  1.00  0.00     0.220 C 
HETATM    2  N   LIG     1      16.102  37.481  22.831  1.00  0.00     0.088 N 
HETATM    3  C   LIG     1      14.873  36.804  22.391  1.00  0.00     0.270 C 
HETATM    4  C   LIG     1      15.153  35.805  21.252  1.00  0.00     0.030 C 
HETATM    5  C   LIG     1      16.553  35.177  21.353  1.00  0.00     0.004 C 
HETATM    6  C   LIG     1      17.028  35.124  22.804  1.00  0.00     0.035 C 
HETATM    7  H   LIG     1      16.528  37.962  22.002  1.00  0.00     0.316 HD
ENDROOT
BRANCH   1   8
HETATM    8  C   LIG     1      16.925  36.529  24.949  1.00  0.00     0.035 C 
BRANCH   8   9
HETATM    9  C   LIG     1      18.097  37.203  25.680  1.00  0.00    -0.002 C 
HETATM   10  C   LIG     1      18.533  36.383  26.891  1.00  0.00     0.005 C 
ENDBRANCH   8   9
ENDBRANCH   1   8
TORSDOF 2
ENDMDL
MODEL 11
REMARK VINA RESULT:      -4.7      3.306      4.285
REMARK  2 active torsions:
REMARK  status: ('A' for Active; 'I' for Inactive)
REMARK    1  A    between atoms: C_2  and  C_3 
REMARK    2  A    between atoms: C_3  and  C_4 
ROOT
HETATM    1  C   LIG     1      18.207  37.260  21.205  1.00  0.00     0.220 C 
HETATM    2  N   LIG     1      17.357  36.128  21.642  1.00  0.00     0.088 N 
HETATM    3  C   LIG     1      15.925  36.461  21.661  1.00  0.00     0.270 C 
HETATM    4  C   LIG     1      15.615  37.567  22.689  1.00  0.00     0.030 C 
HETATM    5  C   LIG     1      16.783  38.552  22.862  1.00  0.00     0.004 C 
HETATM    6  C   LIG     1      17.616  38.647  21.584  1.00  0.00     0.035 C 
HETATM    7  H   LIG     1      17.641  35.836  22.608  1.00  0.00     0.316 HD
ENDROOT
BRANCH   1   8
HETATM    8  C   LIG     1      18.473  37.140  19.691  1.00  0.00     0.035 C 
BRANCH   8   9
HETATM    9  C   LIG     1      19.003  38.448  19.083  1.00  0.00    -0.002 C 
HETATM   10  C   LIG     1      20.471  38.664  19.441  1.00  0.00     0.005 C 
ENDBRANCH   8   9
ENDBRANCH   1   8
TORSDOF 2
ENDMDL
MODEL 12
REMARK VINA RESULT:      -4.6      2.701      4.200
REMARK  2 active torsions:
REMARK  status: ('A' for Active; 'I' for Inactive)
REMARK    1  A    between atoms: C_2  and  C_3 
REMARK    2  A    between atoms: C_3  and  C_4 
ROOT
HETATM    1  C   LIG     1      16.533  36.799  22.760  1.00  0.00     0.220 C 
HETATM    2  N   LIG     1      17.491  35.945  22.021  1.00  0.00     0.088 N 
HETATM    3  C   LIG     1      17.245  35.930  20.572  1.00  0.00     0.270 C 
HETATM    4  C   LIG     1      15.873  35.312  20.237  1.00  0.00     0.030 C 
HETATM    5  C   LIG     1      14.829  35.569  21.336  1.00  0.00     0.004 C 
HETATM    6  C   LIG     1      15.132  36.865  22.089  1.00  0.00     0.035 C 
HETATM    7  H   LIG     1      17.422  34.962  22.378  1.00  0.00     0.316 HD
ENDROOT
BRANCH   1   8
HETATM    8  C   LIG     1      17.146  38.201  22.951  1.00  0.00     0.035 C 
BRANCH   8   9
HETATM    9  C   LIG     1      18.056  38.280  24.187  1.00  0.00    -0.002 C 
HETATM   10  C   LIG     1      17.335  37.772  25.433  1.00  0.00     0.005 C 
ENDBRANCH   8   9
ENDBRANCH   1   8
TORSDOF 2
ENDMDL
MODEL 13
REMARK VINA RESULT:      -4.4      9.897     10.825
REMARK  2 active torsions:
REMARK  status: ('A' for Active; 'I' for Inactive)
REMARK    1  A    between atoms: C_2  and  C_3 
REMARK    2  A    between atoms: C_3  and  C_4 
ROOT
HETATM    1  C   LIG     1      15.562  32.146  15.083  1.00  0.00     0.220 C 
HETATM    2  N   LIG     1      14.820  32.806  16.182  1.00  0.00     0.088 N 
HETATM    3  C   LIG     1      14.386  31.867  17.225  1.00  0.00     0.270 C 
HETATM    4  C   LIG     1      13.380  30.836  16.676  1.00  0.00     0.030 C 
HETATM    5  C   LIG     1      13.631  30.502  15.196  1.00  0.00     0.004 C 
HETATM    6  C   LIG     1      15.105  30.681  14.835  1.00  0.00     0.035 C 
HETATM    7  H   LIG     1      13.971  33.279  15.789  1.00  0.00     0.316 HD
ENDROOT
BRANCH   1   8
HETATM    8  C   LIG     1      17.075  32.238  15.365  1.00  0.00     0.035 C 
BRANCH   8   9
HETATM    9  C   LIG     1      17.736  33.421  14.641  1.00  0.00    -0.002 C 
HETATM   10  C   LIG     1      17.499  33.344  13.135  1.00  0.00     0.005 C 
ENDBRANCH   8   9
ENDBRANCH   1   8
TORSDOF 2
ENDMDL
MODEL 14
REMARK VINA RESULT:      -4.3     10.919     11.832
REMARK  2 active torsions:
REMARK  status: ('A' for Active; 'I' for Inactive)
REMARK    1  A    between atoms: C_2  and  C_3 
REMARK    2  A    between atoms: C_3  and  C_4 
ROOT
HETATM    1  C   LIG     1      14.558  31.028  14.829  1.00  0.00     0.220 C 
HETATM    2  N   LIG     1      15.421  32.217  15.021  1.00  0.00     0.088 N 
HETATM    3  C   LIG     1      15.861  32.386  16.413  1.00  0.00     0.270 C 
HETATM    4  C   LIG     1      14.670  32.646  17.356  1.00  0.00     0.030 C 
HETATM    5  C   LIG     1      13.385  31.944  16.885  1.00  0.00     0.004 C 
HETATM    6  C   LIG     1      13.709  30.683  16.084  1.00  0.00     0.035 C 
HETATM    7  H   LIG     1      14.893  33.076  14.735  1.00  0.00     0.316 HD
ENDROOT
BRANCH   1   8
HETATM    8  C   LIG     1      15.427  29.838  14.376  1.00  0.00     0.035 C 
BRANCH   8   9
HETATM    9  C   LIG     1      14.585  28.632  13.932  1.00  0.00    -0.002 C 
HETATM   10  C   LIG     1      15.475  27.493  13.442  1.00  0.00     0.005 C 
ENDBRANCH   8   9
ENDBRANCH   1   8
TORSDOF 2
ENDMDL
MODEL 15
REMARK VINA RESULT:      -4.3     10.696     12.096
REMARK  2 active torsions:
REMARK  status: ('A' for Active; 'I' for Inactive)
REMARK    1  A    between atoms: C_2  and  C_3 
REMARK    2  A    between atoms: C_3  and  C_4 
ROOT
HETATM    1  C   LIG     1      15.688  31.895  14.320  1.00  0.00     0.220 C 
HETATM    2  N   LIG     1      16.087  32.465  13.013  1.00  0.00     0.088 N 
HETATM    3  C   LIG     1      17.530  32.731  12.920  1.00  0.00     0.270 C 
HETATM    4  C   LIG     1      17.974  33.803  13.934  1.00  0.00     0.030 C 
HETATM    5  C   LIG     1      17.133  33.778  15.221  1.00  0.00     0.004 C 
HETATM    6  C   LIG     1      16.587  32.377  15.494  1.00  0.00     0.035 C 
HETATM    7  H   LIG     1      15.575  33.367  12.858  1.00  0.00     0.316 HD
ENDROOT
BRANCH   1   8
HETATM    8  C   LIG     1      15.653  30.358  14.214  1.00  0.00     0.035 C 
BRANCH   8   9
HETATM    9  C   LIG     1      14.228  29.794  14.318  1.00  0.00    -0.002 C 
HETATM   10  C   LIG     1      13.449  30.474  15.441  1.00  0.00     0.005 C 
ENDBRANCH   8   9
ENDBRANCH   1   8
TORSDOF 2
ENDMDL
MODEL 16
REMARK VINA RESULT:      -4.2      9.919     11.066
REMARK  2 active torsions:
REMARK  status: ('A' for Active; 'I' for Inactive)
REMARK    1  A    between atoms: C_2  and  C_3 
REMARK    2  A    between atoms: C_3  and  C_4 
ROOT
HETATM    1  C   LIG     1      14.951  31.504  16.243  1.00  0.00     0.220 C 
HETATM    2  N   LIG     1      16.160  31.828  15.451  1.00  0.00     0.088 N 
HETATM    3  C   LIG     1      15.880  31.986  14.016  1.00  0.00     0.270 C 
HETATM    4  C   LIG     1      15.376  30.671  13.390  1.00  0.00     0.030 C 
HETATM    5  C   LIG     1      14.577  29.814  14.386  1.00  0.00     0.004 C 
HETATM    6  C   LIG     1      13.899  30.688  15.441  1.00  0.00     0.035 C 
HETATM    7  H   LIG     1      16.864  31.060  15.567  1.00  0.00     0.316 HD
ENDROOT
BRANCH   1   8
HETATM    8  C   LIG     1      14.356  32.806  16.815  1.00  0.00     0.035 C 
BRANCH   8   9
HETATM    9  C   LIG     1      15.098  33.287  18.072  1.00  0.00    -0.002 C 
HETATM   10  C   LIG     1      15.175  32.182  19.122  1.00  0.00     0.005 C 
ENDBRANCH   8   9
ENDBRANCH   1   8
TORSDOF 2
ENDMDL
MODEL 17
REMARK VINA RESULT:      -4.2     10.121     11.534
REMARK  2 active torsions:
REMARK  status: ('A' for Active; 'I' for Inactive)
REMARK    1  A    between atoms: C_2  and  C_3 
REMARK    2  A    between atoms: C_3  and  C_4 
ROOT
HETATM    1  C   LIG     1      16.414  31.956  14.933  1.00  0.00     0.220 C 
HETATM    2  N   LIG     1      17.363  32.880  15.597  1.00  0.00     0.088 N 
HETATM    3  C   LIG     1      17.360  34.226  15.007  1.00  0.00     0.270 C 
HETATM    4  C   LIG     1      17.839  34.204  13.542  1.00  0.00     0.030 C 
HETATM    5  C   LIG     1      17.474  32.893  12.825  1.00  0.00     0.004 C 
HETATM    6  C   LIG     1      16.213  32.272  13.424  1.00  0.00     0.035 C 
HETATM    7  H   LIG     1      18.333  32.489  15.523  1.00  0.00     0.316 HD
ENDROOT
BRANCH   1   8
HETATM    8  C   LIG     1      15.080  31.958  15.705  1.00  0.00     0.035 C 
BRANCH   8   9
HETATM    9  C   LIG     1      14.221  30.722  15.395  1.00  0.00    -0.002 C 
HETATM   10  C   LIG     1      12.923  30.741  16.197  1.00  0.00     0.005 C 
ENDBRANCH   8   9
ENDBRANCH   1   8
TORSDOF 2
ENDMDL
MODEL 18
REMARK VINA RESULT:      -3.9      7.718      8.669
REMARK  2 active torsions:
REMARK  status: ('A' for Active; 'I' for Inactive)
REMARK    1  A    between atoms: C_2  and  C_3 
REMARK    2  A    between atoms: C_3  and  C_4 
ROOT
HETATM    1  C   LIG     1      15.199  32.873  17.747  1.00  0.00     0.220 C 
HETATM    2  N   LIG     1      15.637  32.126  18.948  1.00  0.00     0.088 N 
HETATM    3  C   LIG     1      15.091  32.678  20.197  1.00  0.00     0.270 C 
HETATM    4  C   LIG     1      15.601  34.109  20.453  1.00  0.00     0.030 C 
HETATM    5  C   LIG     1      15.857  34.884  19.149  1.00  0.00     0.004 C 
HETATM    6  C   LIG     1      14.951  34.382  18.025  1.00  0.00     0.035 C 
HETATM    7  H   LIG     1      16.684  32.150  19.007  1.00  0.00     0.316 HD
ENDROOT
BRANCH   1   8
HETATM    8  C   LIG     1      13.956  32.186  17.147  1.00  0.00     0.035 C 
BRANCH   8   9
HETATM    9  C   LIG     1      14.300  31.303  15.937  1.00  0.00    -0.002 C 
HETATM   10  C   LIG     1      13.119  30.418  15.549  1.00  0.00     0.005 C 
ENDBRANCH   8   9
ENDBRANCH   1   8
TORSDOF 2
ENDMDL
MODEL 19
REMARK VINA RESULT:      -3.7     14.639     15.546
REMARK  2 active torsions:
REMARK  status: ('A' for Active; 'I' for Inactive)
REMARK    1  A    between atoms: C_2  and  C_3 
REMARK    2  A    between atoms: C_3  and  C_4 
ROOT
HETATM    1  C   LIG     1      12.979  27.334  13.787  1.00  0.00     0.220 C 
HETATM    2  N   LIG     1      12.876  28.553  14.622  1.00  0.00     0.088 N 
HETATM    3  C   LIG     1      13.625  29.691  14.069  1.00  0.00     0.270 C 
HETATM    4  C   LIG     1      15.139  29.406  14.026  1.00  0.00     0.030 C 
HETATM    5  C   LIG     1      15.449  27.916  13.804  1.00  0.00     0.004 C 
HETATM    6  C   LIG     1      14.328  27.231  13.023  1.00  0.00     0.035 C 
HETATM    7  H   LIG     1      13.249  28.347  15.580  1.00  0.00     0.316 HD
ENDROOT
BRANCH   1   8
HETATM    8  C   LIG     1      11.769  27.271  12.833  1.00  0.00     0.035 C 
BRANCH   8   9
HETATM    9  C   LIG     1      11.282  25.832  12.597  1.00  0.00    -0.002 C 
HETATM   10  C   LIG     1      11.685  25.336  11.212  1.00  0.00     0.005 C 
ENDBRANCH   8   9
ENDBRANCH   1   8
TORSDOF 2
ENDMDL
MODEL 20
REMARK VINA RESULT:      -3.7      8.542     10.039
REMARK  2 active torsions:
REMARK  status: ('A' for Active; 'I' for Inactive)
REMARK    1  A    between atoms: C_2  and  C_3 
REMARK    2  A    between atoms: C_3  and  C_4 
ROOT
HETATM    1  C   LIG     1      14.617  32.728  16.427  1.00  0.00     0.220 C 
HETATM    2  N   LIG     1      15.104  31.826  15.358  1.00  0.00     0.088 N 
HETATM    3  C   LIG     1      16.569  31.707  15.332  1.00  0.00     0.270 C 
HETATM    4  C   LIG     1      17.240  33.055  15.004  1.00  0.00     0.030 C 
HETATM    5  C   LIG     1      16.432  34.256  15.523  1.00  0.00     0.004 C 
HETATM    6  C   LIG     1      15.614  33.875  16.757  1.00  0.00     0.035 C 
HETATM    7  H   LIG     1      14.786  32.189  14.428  1.00  0.00     0.316 HD
ENDROOT
BRANCH   1   8
HETATM    8  C   LIG     1      14.265  31.894  17.674  1.00  0.00     0.035 C 
BRANCH   8   9
HETATM    9  C   LIG     1      15.119  32.272  18.894  1.00  0.00    -0.002 C 
HETATM   10  C   LIG     1      14.874  31.313  20.055  1.00  0.00     0.005 C 
ENDBRANCH   8   9
ENDBRANCH   1   8
TORSDOF 2
ENDMDL
