REMARK  2 active torsions:
REMARK  status: ('A' for Active; 'I' for Inactive)
REMARK    1  A    between atoms: C_2  and  C_3 
REMARK    2  A    between atoms: C_3  and  C_4 
ROOT
HETATM    1  C   LIG     1      -0.004  -0.233  -0.796  1.00  0.00     0.220 C 
HETATM    2  N   LIG     1      -0.992   0.639  -1.472  1.00  0.00     0.088 N 
HETATM    3  C   LIG     1      -2.026   1.148  -0.559  1.00  0.00     0.270 C 
HETATM    4  C   LIG     1      -2.884   0.005   0.018  1.00  0.00     0.030 C 
HETATM    5  C   LIG     1      -2.090  -1.302   0.178  1.00  0.00     0.004 C 
HETATM    6  C   LIG     1      -0.605  -1.019   0.403  1.00  0.00     0.035 C 
HETATM    7  H   LIG     1      -1.464   0.098  -2.236  1.00  0.00     0.316 HD
ENDROOT
BRANCH   1   8
HETATM    8  C   LIG     1       1.216   0.612  -0.378  1.00  0.00     0.035 C 
BRANCH   8   9
HETATM    9  C   LIG     1       2.396  -0.253   0.092  1.00  0.00    -0.002 C 
HETATM   10  C   LIG     1       3.611   0.609   0.423  1.00  0.00     0.005 C 
ENDBRANCH   8   9
ENDBRANCH   1   8
TORSDOF 2
