REMARK  0 active torsions:
REMARK  status: ('A' for Active; 'I' for Inactive)
REMARK       I    between atoms: N_1  and  C_2 
REMARK       I    between atoms: C_2  and  N_6 
ROOT
HETATM    1  N   LIG     1      -0.658  -0.763  -0.691  1.00  0.00    -0.233 N 
HETATM    2  C   LIG     1      -0.061   0.317   0.041  1.00  0.00     0.701 C 
HETATM    3  N   LIG     1       0.999   0.140   0.775  1.00  0.00     0.014 NA
HETATM    4  C   LIG     1       1.657  -1.091   0.927  1.00  0.00     0.223 C 
HETATM    5  N   LIG     1       2.200  -2.105   1.054  1.00  0.00    -0.169 NA
HETATM    6  N   LIG     1      -0.641   1.619  -0.036  1.00  0.00    -0.233 N 
HETATM    7  H   LIG     1      -1.508  -0.590  -1.272  1.00  0.00     0.174 HD
HETATM    8  H   LIG     1      -0.272  -1.732  -0.668  1.00  0.00     0.174 HD
HETATM    9  H   LIG     1      -1.492   1.787  -0.618  1.00  0.00     0.174 HD
HETATM   10  H   LIG     1      -0.223   2.419   0.489  1.00  0.00     0.174 HD
ENDROOT
TORSDOF 0
