REMARK  0 active torsions:
REMARK  status: ('A' for Active; 'I' for Inactive)
ROOT
HETATM    1  O   LIG     1       2.122  -1.334   0.349  1.00  0.00    -0.247 OA
HETATM    2  C   LIG     1       1.090  -0.634   0.177  1.00  0.00     0.323 A 
HETATM    3  N   LIG     1       1.106   0.779   0.132  1.00  0.00    -0.278 N 
HETATM    4  C   LIG     1      -0.255   1.125  -0.075  1.00  0.00     0.243 A 
HETATM    5  C   LIG     1      -1.146  -0.077  -0.161  1.00  0.00     0.227 A 
HETATM    6  N   LIG     1      -0.209  -1.183   0.010  1.00  0.00    -0.334 N 
HETATM    7  O   LIG     1      -0.654   2.314  -0.172  1.00  0.00    -0.271 OA
HETATM    8  H   LIG     1       1.926   1.418   0.227  1.00  0.00     0.173 HD
HETATM    9  H   LIG     1      -0.452  -2.198   0.010  1.00  0.00     0.164 HD
ENDROOT
TORSDOF 0
