MODEL 1
REMARK VINA RESULT:      -4.5      0.000      0.000
REMARK  0 active torsions:
REMARK  status: ('A' for Active; 'I' for Inactive)
ROOT
HETATM    1  O   LIG     1      16.788  39.025  23.602  1.00  0.00    -0.247 OA
HETATM    2  C   LIG     1      17.126  38.072  24.352  1.00  0.00     0.323 A 
HETATM    3  N   LIG     1      16.958  36.711  24.005  1.00  0.00    -0.278 N 
HETATM    4  C   LIG     1      17.470  36.011  25.129  1.00  0.00     0.243 A 
HETATM    5  C   LIG     1      17.965  36.933  26.202  1.00  0.00     0.227 A 
HETATM    6  N   LIG     1      17.713  38.253  25.632  1.00  0.00    -0.334 N 
HETATM    7  O   LIG     1      17.495  34.756  25.202  1.00  0.00    -0.271 OA
HETATM    8  H   LIG     1      16.555  36.314  23.127  1.00  0.00     0.173 HD
HETATM    9  H   LIG     1      17.926  39.168  26.087  1.00  0.00     0.164 HD
ENDROOT
TORSDOF 0
ENDMDL
MODEL 2
REMARK VINA RESULT:      -4.4      1.256      3.361
REMARK  0 active torsions:
REMARK  status: ('A' for Active; 'I' for Inactive)
ROOT
HETATM    1  O   LIG     1      17.834  34.557  26.401  1.00  0.00    -0.247 OA
HETATM    2  C   LIG     1      17.545  35.519  25.642  1.00  0.00     0.323 A 
HETATM    3  N   LIG     1      17.460  36.860  26.083  1.00  0.00    -0.278 N 
HETATM    4  C   LIG     1      17.115  37.579  24.909  1.00  0.00     0.243 A 
HETATM    5  C   LIG     1      16.978  36.690  23.710  1.00  0.00     0.227 A 
HETATM    6  N   LIG     1      17.270  35.368  24.257  1.00  0.00    -0.334 N 
HETATM    7  O   LIG     1      16.945  38.825  24.892  1.00  0.00    -0.271 OA
HETATM    8  H   LIG     1      17.616  37.233  27.045  1.00  0.00     0.173 HD
HETATM    9  H   LIG     1      17.275  34.471  23.723  1.00  0.00     0.164 HD
ENDROOT
TORSDOF 0
ENDMDL
MODEL 3
REMARK VINA RESULT:      -4.4      4.175      5.319
REMARK  0 active torsions:
REMARK  status: ('A' for Active; 'I' for Inactive)
ROOT
HETATM    1  O   LIG     1      17.265  39.151  22.648  1.00  0.00    -0.247 OA
HETATM    2  C   LIG     1      17.997  38.853  21.668  1.00  0.00     0.323 A 
HETATM    3  N   LIG     1      18.953  39.735  21.114  1.00  0.00    -0.278 N 
HETATM    4  C   LIG     1      19.525  38.988  20.052  1.00  0.00     0.243 A 
HETATM    5  C   LIG     1      18.927  37.619  19.926  1.00  0.00     0.227 A 
HETATM    6  N   LIG     1      17.944  37.599  21.005  1.00  0.00    -0.334 N 
HETATM    7  O   LIG     1      20.432  39.438  19.306  1.00  0.00    -0.271 OA
HETATM    8  H   LIG     1      19.186  40.707  21.417  1.00  0.00     0.173 HD
HETATM    9  H   LIG     1      17.314  36.803  21.245  1.00  0.00     0.164 HD
ENDROOT
TORSDOF 0
ENDMDL
MODEL 4
REMARK VINA RESULT:      -4.3      4.209      5.137
REMARK  0 active torsions:
REMARK  status: ('A' for Active; 'I' for Inactive)
ROOT
HETATM    1  O   LIG     1      20.446  39.424  19.357  1.00  0.00    -0.247 OA
HETATM    2  C   LIG     1      19.533  38.994  20.110  1.00  0.00     0.323 A 
HETATM    3  N   LIG     1      18.951  39.762  21.145  1.00  0.00    -0.278 N 
HETATM    4  C   LIG     1      17.989  38.886  21.713  1.00  0.00     0.243 A 
HETATM    5  C   LIG     1      17.959  37.549  21.037  1.00  0.00     0.227 A 
HETATM    6  N   LIG     1      18.984  37.688  20.007  1.00  0.00    -0.334 N 
HETATM    7  O   LIG     1      17.252  39.211  22.679  1.00  0.00    -0.271 OA
HETATM    8  H   LIG     1      19.174  40.742  21.424  1.00  0.00     0.173 HD
HETATM    9  H   LIG     1      19.264  36.956  19.318  1.00  0.00     0.164 HD
ENDROOT
TORSDOF 0
ENDMDL
MODEL 5
REMARK VINA RESULT:      -4.3      8.598      9.348
REMARK  0 active torsions:
REMARK  status: ('A' for Active; 'I' for Inactive)
ROOT
HETATM    1  O   LIG     1      15.710  33.097  19.684  1.00  0.00    -0.247 OA
HETATM    2  C   LIG     1      15.193  32.632  18.635  1.00  0.00     0.323 A 
HETATM    3  N   LIG     1      14.050  31.800  18.632  1.00  0.00    -0.278 N 
HETATM    4  C   LIG     1      13.834  31.527  17.256  1.00  0.00     0.243 A 
HETATM    5  C   LIG     1      14.849  32.189  16.374  1.00  0.00     0.227 A 
HETATM    6  N   LIG     1      15.698  32.889  17.333  1.00  0.00    -0.334 N 
HETATM    7  O   LIG     1      12.892  30.806  16.839  1.00  0.00    -0.271 OA
HETATM    8  H   LIG     1      13.494  31.466  19.450  1.00  0.00     0.173 HD
HETATM    9  H   LIG     1      16.531  33.475  17.101  1.00  0.00     0.164 HD
ENDROOT
TORSDOF 0
ENDMDL
MODEL 6
REMARK VINA RESULT:      -4.1      7.443      8.194
REMARK  0 active torsions:
REMARK  status: ('A' for Active; 'I' for Inactive)
ROOT
HETATM    1  O   LIG     1      14.272  32.445  16.606  1.00  0.00    -0.247 OA
HETATM    2  C   LIG     1      14.576  32.450  17.828  1.00  0.00     0.323 A 
HETATM    3  N   LIG     1      15.294  33.499  18.447  1.00  0.00    -0.278 N 
HETATM    4  C   LIG     1      15.402  33.081  19.800  1.00  0.00     0.243 A 
HETATM    5  C   LIG     1      14.749  31.754  20.044  1.00  0.00     0.227 A 
HETATM    6  N   LIG     1      14.234  31.403  18.724  1.00  0.00    -0.334 N 
HETATM    7  O   LIG     1      15.985  33.759  20.683  1.00  0.00    -0.271 OA
HETATM    8  H   LIG     1      15.658  34.376  18.013  1.00  0.00     0.173 HD
HETATM    9  H   LIG     1      13.708  30.535  18.483  1.00  0.00     0.164 HD
ENDROOT
TORSDOF 0
ENDMDL
MODEL 7
REMARK VINA RESULT:      -4.1      1.301      1.971
REMARK  0 active torsions:
REMARK  status: ('A' for Active; 'I' for Inactive)
ROOT
HETATM    1  O   LIG     1      16.075  38.956  22.835  1.00  0.00    -0.247 OA
HETATM    2  C   LIG     1      16.560  38.075  23.594  1.00  0.00     0.323 A 
HETATM    3  N   LIG     1      17.023  38.343  24.902  1.00  0.00    -0.278 N 
HETATM    4  C   LIG     1      17.471  37.079  25.366  1.00  0.00     0.243 A 
HETATM    5  C   LIG     1      17.293  35.996  24.345  1.00  0.00     0.227 A 
HETATM    6  N   LIG     1      16.697  36.712  23.221  1.00  0.00    -0.334 N 
HETATM    7  O   LIG     1      17.962  36.903  26.511  1.00  0.00    -0.271 OA
HETATM    8  H   LIG     1      17.032  39.256  25.409  1.00  0.00     0.173 HD
HETATM    9  H   LIG     1      16.422  36.294  22.305  1.00  0.00     0.164 HD
ENDROOT
TORSDOF 0
ENDMDL
MODEL 8
REMARK VINA RESULT:      -4.0      2.875      3.689
REMARK  0 active torsions:
REMARK  status: ('A' for Active; 'I' for Inactive)
ROOT
HETATM    1  O   LIG     1      17.602  35.927  20.353  1.00  0.00    -0.247 OA
HETATM    2  C   LIG     1      17.374  36.790  21.240  1.00  0.00     0.323 A 
HETATM    3  N   LIG     1      16.493  36.578  22.325  1.00  0.00    -0.278 N 
HETATM    4  C   LIG     1      16.551  37.797  23.050  1.00  0.00     0.243 A 
HETATM    5  C   LIG     1      17.475  38.795  22.420  1.00  0.00     0.227 A 
HETATM    6  N   LIG     1      17.974  38.077  21.252  1.00  0.00    -0.334 N 
HETATM    7  O   LIG     1      15.892  38.002  24.101  1.00  0.00    -0.271 OA
HETATM    8  H   LIG     1      15.933  35.724  22.544  1.00  0.00     0.173 HD
HETATM    9  H   LIG     1      18.653  38.445  20.550  1.00  0.00     0.164 HD
ENDROOT
TORSDOF 0
ENDMDL
MODEL 9
REMARK VINA RESULT:      -4.0      9.615     10.453
REMARK  0 active torsions:
REMARK  status: ('A' for Active; 'I' for Inactive)
ROOT
HETATM    1  O   LIG     1      12.700  31.051  17.041  1.00  0.00    -0.247 OA
HETATM    2  C   LIG     1      13.691  31.731  16.668  1.00  0.00     0.323 A 
HETATM    3  N   LIG     1      13.969  33.031  17.148  1.00  0.00    -0.278 N 
HETATM    4  C   LIG     1      15.157  33.396  16.462  1.00  0.00     0.243 A 
HETATM    5  C   LIG     1      15.639  32.321  15.537  1.00  0.00     0.227 A 
HETATM    6  N   LIG     1      14.643  31.270  15.720  1.00  0.00    -0.334 N 
HETATM    7  O   LIG     1      15.729  34.505  16.624  1.00  0.00    -0.271 OA
HETATM    8  H   LIG     1      13.429  33.591  17.844  1.00  0.00     0.173 HD
HETATM    9  H   LIG     1      14.633  30.344  15.238  1.00  0.00     0.164 HD
ENDROOT
TORSDOF 0
ENDMDL
MODEL 10
REMARK VINA RESULT:      -3.7     11.377     11.838
REMARK  0 active torsions:
REMARK  status: ('A' for Active; 'I' for Inactive)
ROOT
HETATM    1  O   LIG     1      18.653  34.557  13.393  1.00  0.00    -0.247 OA
HETATM    2  C   LIG     1      17.816  33.695  13.767  1.00  0.00     0.323 A 
HETATM    3  N   LIG     1      17.036  32.927  12.872  1.00  0.00    -0.278 N 
HETATM    4  C   LIG     1      16.253  32.107  13.726  1.00  0.00     0.243 A 
HETATM    5  C   LIG     1      16.535  32.354  15.176  1.00  0.00     0.227 A 
HETATM    6  N   LIG     1      17.558  33.395  15.131  1.00  0.00    -0.334 N 
HETATM    7  O   LIG     1      15.418  31.270  13.297  1.00  0.00    -0.271 OA
HETATM    8  H   LIG     1      17.036  32.956  11.828  1.00  0.00     0.173 HD
HETATM    9  H   LIG     1      18.018  33.839  15.956  1.00  0.00     0.164 HD
ENDROOT
TORSDOF 0
ENDMDL
MODEL 11
REMARK VINA RESULT:      -3.7     13.753     14.474
REMARK  0 active torsions:
REMARK  status: ('A' for Active; 'I' for Inactive)
ROOT
HETATM    1  O   LIG     1      14.306  30.720  14.655  1.00  0.00    -0.247 OA
HETATM    2  C   LIG     1      14.086  29.548  14.251  1.00  0.00     0.323 A 
HETATM    3  N   LIG     1      12.797  28.971  14.198  1.00  0.00    -0.278 N 
HETATM    4  C   LIG     1      13.031  27.667  13.689  1.00  0.00     0.243 A 
HETATM    5  C   LIG     1      14.482  27.410  13.416  1.00  0.00     0.227 A 
HETATM    6  N   LIG     1      15.109  28.671  13.802  1.00  0.00    -0.334 N 
HETATM    7  O   LIG     1      12.113  26.830  13.495  1.00  0.00    -0.271 OA
HETATM    8  H   LIG     1      11.886  29.402  14.469  1.00  0.00     0.173 HD
HETATM    9  H   LIG     1      16.129  28.888  13.756  1.00  0.00     0.164 HD
ENDROOT
TORSDOF 0
ENDMDL
MODEL 12
REMARK VINA RESULT:      -3.7      7.408      8.155
REMARK  0 active torsions:
REMARK  status: ('A' for Active; 'I' for Inactive)
ROOT
HETATM    1  O   LIG     1      14.214  31.700  29.022  1.00  0.00    -0.247 OA
HETATM    2  C   LIG     1      13.584  31.301  28.008  1.00  0.00     0.323 A 
HETATM    3  N   LIG     1      13.262  32.135  26.912  1.00  0.00    -0.278 N 
HETATM    4  C   LIG     1      12.565  31.273  26.026  1.00  0.00     0.243 A 
HETATM    5  C   LIG     1      12.440  29.879  26.561  1.00  0.00     0.227 A 
HETATM    6  N   LIG     1      13.122  29.968  27.848  1.00  0.00    -0.334 N 
HETATM    7  O   LIG     1      12.108  31.653  24.917  1.00  0.00    -0.271 OA
HETATM    8  H   LIG     1      13.486  33.147  26.785  1.00  0.00     0.173 HD
HETATM    9  H   LIG     1      13.247  29.188  28.531  1.00  0.00     0.164 HD
ENDROOT
TORSDOF 0
ENDMDL
MODEL 13
REMARK VINA RESULT:      -3.7      3.451      4.363
REMARK  0 active torsions:
REMARK  status: ('A' for Active; 'I' for Inactive)
ROOT
HETATM    1  O   LIG     1      18.803  36.575  19.555  1.00  0.00    -0.247 OA
HETATM    2  C   LIG     1      18.053  36.825  20.535  1.00  0.00     0.323 A 
HETATM    3  N   LIG     1      18.014  38.079  21.186  1.00  0.00    -0.278 N 
HETATM    4  C   LIG     1      17.046  37.898  22.208  1.00  0.00     0.243 A 
HETATM    5  C   LIG     1      16.464  36.517  22.210  1.00  0.00     0.227 A 
HETATM    6  N   LIG     1      17.161  35.875  21.100  1.00  0.00    -0.334 N 
HETATM    7  O   LIG     1      16.723  38.806  23.017  1.00  0.00    -0.271 OA
HETATM    8  H   LIG     1      18.566  38.937  20.966  1.00  0.00     0.173 HD
HETATM    9  H   LIG     1      17.027  34.891  20.779  1.00  0.00     0.164 HD
ENDROOT
TORSDOF 0
ENDMDL
MODEL 14
REMARK VINA RESULT:      -3.6     10.928     11.565
REMARK  0 active torsions:
REMARK  status: ('A' for Active; 'I' for Inactive)
ROOT
HETATM    1  O   LIG     1      16.027  30.991  13.508  1.00  0.00    -0.247 OA
HETATM    2  C   LIG     1      15.373  31.209  14.562  1.00  0.00     0.323 A 
HETATM    3  N   LIG     1      14.286  30.409  14.983  1.00  0.00    -0.278 N 
HETATM    4  C   LIG     1      13.869  31.019  16.195  1.00  0.00     0.243 A 
HETATM    5  C   LIG     1      14.696  32.218  16.548  1.00  0.00     0.227 A 
HETATM    6  N   LIG     1      15.652  32.283  15.448  1.00  0.00    -0.334 N 
HETATM    7  O   LIG     1      12.908  30.590  16.884  1.00  0.00    -0.271 OA
HETATM    8  H   LIG     1      13.885  29.567  14.514  1.00  0.00     0.173 HD
HETATM    9  H   LIG     1      16.407  32.994  15.332  1.00  0.00     0.164 HD
ENDROOT
TORSDOF 0
ENDMDL
MODEL 15
REMARK VINA RESULT:      -3.6      3.907      4.773
REMARK  0 active torsions:
REMARK  status: ('A' for Active; 'I' for Inactive)
ROOT
HETATM    1  O   LIG     1      15.829  34.233  19.750  1.00  0.00    -0.247 OA
HETATM    2  C   LIG     1      16.093  35.217  20.490  1.00  0.00     0.323 A 
HETATM    3  N   LIG     1      15.172  35.769  21.409  1.00  0.00    -0.278 N 
HETATM    4  C   LIG     1      15.892  36.837  22.007  1.00  0.00     0.243 A 
HETATM    5  C   LIG     1      17.283  36.967  21.463  1.00  0.00     0.227 A 
HETATM    6  N   LIG     1      17.346  35.885  20.485  1.00  0.00    -0.334 N 
HETATM    7  O   LIG     1      15.403  37.584  22.893  1.00  0.00    -0.271 OA
HETATM    8  H   LIG     1      14.193  35.464  21.603  1.00  0.00     0.173 HD
HETATM    9  H   LIG     1      18.168  35.647  19.887  1.00  0.00     0.164 HD
ENDROOT
TORSDOF 0
ENDMDL
MODEL 16
REMARK VINA RESULT:      -3.5     10.305     11.086
REMARK  0 active torsions:
REMARK  status: ('A' for Active; 'I' for Inactive)
ROOT
HETATM    1  O   LIG     1      13.779  29.780  14.673  1.00  0.00    -0.247 OA
HETATM    2  C   LIG     1      14.060  30.669  15.519  1.00  0.00     0.323 A 
HETATM    3  N   LIG     1      15.109  31.601  15.350  1.00  0.00    -0.278 N 
HETATM    4  C   LIG     1      15.053  32.389  16.529  1.00  0.00     0.243 A 
HETATM    5  C   LIG     1      13.960  31.955  17.458  1.00  0.00     0.227 A 
HETATM    6  N   LIG     1      13.356  30.836  16.741  1.00  0.00    -0.334 N 
HETATM    7  O   LIG     1      15.841  33.343  16.756  1.00  0.00    -0.271 OA
HETATM    8  H   LIG     1      15.769  31.690  14.546  1.00  0.00     0.173 HD
HETATM    9  H   LIG     1      12.549  30.261  17.069  1.00  0.00     0.164 HD
ENDROOT
TORSDOF 0
ENDMDL
MODEL 17
REMARK VINA RESULT:      -3.3      9.878     10.377
REMARK  0 active torsions:
REMARK  status: ('A' for Active; 'I' for Inactive)
ROOT
HETATM    1  O   LIG     1      15.389  34.549  17.156  1.00  0.00    -0.247 OA
HETATM    2  C   LIG     1      15.929  33.814  16.289  1.00  0.00     0.323 A 
HETATM    3  N   LIG     1      15.413  32.555  15.904  1.00  0.00    -0.278 N 
HETATM    4  C   LIG     1      16.332  32.100  14.923  1.00  0.00     0.243 A 
HETATM    5  C   LIG     1      17.443  33.076  14.681  1.00  0.00     0.227 A 
HETATM    6  N   LIG     1      17.120  34.164  15.599  1.00  0.00    -0.334 N 
HETATM    7  O   LIG     1      16.213  30.997  14.331  1.00  0.00    -0.271 OA
HETATM    8  H   LIG     1      14.557  32.074  16.258  1.00  0.00     0.173 HD
HETATM    9  H   LIG     1      17.668  35.043  15.726  1.00  0.00     0.164 HD
ENDROOT
TORSDOF 0
ENDMDL
MODEL 18
REMARK VINA RESULT:      -3.3      7.243      7.837
REMARK  0 active torsions:
REMARK  status: ('A' for Active; 'I' for Inactive)
ROOT
HETATM    1  O   LIG     1      16.073  34.900  19.888  1.00  0.00    -0.247 OA
HETATM    2  C   LIG     1      15.569  33.831  19.453  1.00  0.00     0.323 A 
HETATM    3  N   LIG     1      15.204  33.635  18.102  1.00  0.00    -0.278 N 
HETATM    4  C   LIG     1      14.690  32.312  18.080  1.00  0.00     0.243 A 
HETATM    5  C   LIG     1      14.727  31.660  19.429  1.00  0.00     0.227 A 
HETATM    6  N   LIG     1      15.309  32.700  20.272  1.00  0.00    -0.334 N 
HETATM    7  O   LIG     1      14.254  31.762  17.036  1.00  0.00    -0.271 OA
HETATM    8  H   LIG     1      15.292  34.305  17.306  1.00  0.00     0.173 HD
HETATM    9  H   LIG     1      15.499  32.625  21.295  1.00  0.00     0.164 HD
ENDROOT
TORSDOF 0
ENDMDL
MODEL 19
REMARK VINA RESULT:      -3.3     11.784     12.602
REMARK  0 active torsions:
REMARK  status: ('A' for Active; 'I' for Inactive)
ROOT
HETATM    1  O   LIG     1      13.266  29.059  14.351  1.00  0.00    -0.247 OA
HETATM    2  C   LIG     1      14.109  29.992  14.408  1.00  0.00     0.323 A 
HETATM    3  N   LIG     1      14.260  30.838  15.530  1.00  0.00    -0.278 N 
HETATM    4  C   LIG     1      15.305  31.721  15.150  1.00  0.00     0.243 A 
HETATM    5  C   LIG     1      15.823  31.436  13.773  1.00  0.00     0.227 A 
HETATM    6  N   LIG     1      15.004  30.304  13.350  1.00  0.00    -0.334 N 
HETATM    7  O   LIG     1      15.736  32.636  15.897  1.00  0.00    -0.271 OA
HETATM    8  H   LIG     1      13.729  30.818  16.429  1.00  0.00     0.173 HD
HETATM    9  H   LIG     1      15.066  29.812  12.432  1.00  0.00     0.164 HD
ENDROOT
TORSDOF 0
ENDMDL
MODEL 20
REMARK VINA RESULT:      -3.3     10.879     11.592
REMARK  0 active torsions:
REMARK  status: ('A' for Active; 'I' for Inactive)
ROOT
HETATM    1  O   LIG     1      14.227  32.389  17.443  1.00  0.00    -0.247 OA
HETATM    2  C   LIG     1      14.532  31.833  16.356  1.00  0.00     0.323 A 
HETATM    3  N   LIG     1      15.546  32.311  15.494  1.00  0.00    -0.278 N 
HETATM    4  C   LIG     1      15.535  31.388  14.416  1.00  0.00     0.243 A 
HETATM    5  C   LIG     1      14.505  30.313  14.591  1.00  0.00     0.227 A 
HETATM    6  N   LIG     1      13.892  30.662  15.869  1.00  0.00    -0.334 N 
HETATM    7  O   LIG     1      16.310  31.476  13.429  1.00  0.00    -0.271 OA
HETATM    8  H   LIG     1      16.159  33.146  15.621  1.00  0.00     0.173 HD
HETATM    9  H   LIG     1      13.120  30.143  16.341  1.00  0.00     0.164 HD
ENDROOT
TORSDOF 0
ENDMDL
