MODEL 1
REMARK VINA RESULT:      -5.6      0.000      0.000
REMARK  1 active torsions:
REMARK  status: ('A' for Active; 'I' for Inactive)
REMARK    1  A    between atoms: C_4  and  N_5 
ROOT
HETATM    1  C   LIG     1      16.553  34.785  21.322  1.00  0.00     0.070 C 
HETATM    2  C   LIG     1      16.791  35.592  22.560  1.00  0.00     0.036 A 
HETATM    3  C   LIG     1      16.681  36.988  22.548  1.00  0.00     0.076 A 
HETATM    4  C   LIG     1      16.905  37.687  23.738  1.00  0.00     0.125 A 
HETATM    5  N   LIG     1      17.228  37.006  24.869  1.00  0.00    -0.217 NA
HETATM    6  C   LIG     1      17.345  35.651  24.863  1.00  0.00     0.124 A 
HETATM    7  C   LIG     1      17.662  34.923  26.126  1.00  0.00     0.093 C 
HETATM    8  N   LIG     1      17.115  34.956  23.717  1.00  0.00    -0.239 NA
ENDROOT
BRANCH   4   9
HETATM    9  N   LIG     1      16.797  39.110  23.774  1.00  0.00    -0.384 N 
HETATM   10  H   LIG     1      15.889  39.586  23.570  1.00  0.00     0.157 HD
HETATM   11  H   LIG     1      17.630  39.695  24.008  1.00  0.00     0.157 HD
ENDBRANCH   4   9
TORSDOF 1
ENDMDL
MODEL 2
REMARK VINA RESULT:      -5.5      0.913      2.816
REMARK  1 active torsions:
REMARK  status: ('A' for Active; 'I' for Inactive)
REMARK    1  A    between atoms: C_4  and  N_5 
ROOT
HETATM    1  C   LIG     1      17.847  35.210  26.203  1.00  0.00     0.070 C 
HETATM    2  C   LIG     1      17.387  35.843  24.927  1.00  0.00     0.036 A 
HETATM    3  C   LIG     1      17.220  37.230  24.826  1.00  0.00     0.076 A 
HETATM    4  C   LIG     1      16.797  37.765  23.605  1.00  0.00     0.125 A 
HETATM    5  N   LIG     1      16.554  36.937  22.555  1.00  0.00    -0.217 NA
HETATM    6  C   LIG     1      16.708  35.591  22.671  1.00  0.00     0.124 A 
HETATM    7  C   LIG     1      16.472  34.708  21.493  1.00  0.00     0.093 C 
HETATM    8  N   LIG     1      17.133  35.057  23.848  1.00  0.00    -0.239 NA
ENDROOT
BRANCH   4   9
HETATM    9  N   LIG     1      16.620  39.174  23.454  1.00  0.00    -0.384 N 
HETATM   10  H   LIG     1      15.994  39.560  22.713  1.00  0.00     0.157 HD
HETATM   11  H   LIG     1      17.120  39.837  24.088  1.00  0.00     0.157 HD
ENDBRANCH   4   9
TORSDOF 1
ENDMDL
MODEL 3
REMARK VINA RESULT:      -5.4      2.253      3.316
REMARK  1 active torsions:
REMARK  status: ('A' for Active; 'I' for Inactive)
REMARK    1  A    between atoms: C_4  and  N_5 
ROOT
HETATM    1  C   LIG     1      19.053  39.274  20.318  1.00  0.00     0.070 C 
HETATM    2  C   LIG     1      18.270  38.439  21.282  1.00  0.00     0.036 A 
HETATM    3  C   LIG     1      17.992  38.895  22.576  1.00  0.00     0.076 A 
HETATM    4  C   LIG     1      17.248  38.075  23.429  1.00  0.00     0.125 A 
HETATM    5  N   LIG     1      16.818  36.862  22.992  1.00  0.00    -0.217 NA
HETATM    6  C   LIG     1      17.106  36.426  21.736  1.00  0.00     0.124 A 
HETATM    7  C   LIG     1      16.590  35.107  21.267  1.00  0.00     0.093 C 
HETATM    8  N   LIG     1      17.816  37.219  20.890  1.00  0.00    -0.239 NA
ENDROOT
BRANCH   4   9
HETATM    9  N   LIG     1      16.935  38.502  24.755  1.00  0.00    -0.384 N 
HETATM   10  H   LIG     1      17.685  38.816  25.410  1.00  0.00     0.157 HD
HETATM   11  H   LIG     1      15.944  38.506  25.086  1.00  0.00     0.157 HD
ENDBRANCH   4   9
TORSDOF 1
ENDMDL
MODEL 4
REMARK VINA RESULT:      -5.4      1.959      3.213
REMARK  1 active torsions:
REMARK  status: ('A' for Active; 'I' for Inactive)
REMARK    1  A    between atoms: C_4  and  N_5 
ROOT
HETATM    1  C   LIG     1      16.498  35.085  21.783  1.00  0.00     0.070 C 
HETATM    2  C   LIG     1      17.000  36.420  22.236  1.00  0.00     0.036 A 
HETATM    3  C   LIG     1      16.882  36.824  23.571  1.00  0.00     0.076 A 
HETATM    4  C   LIG     1      17.378  38.079  23.936  1.00  0.00     0.125 A 
HETATM    5  N   LIG     1      17.955  38.875  22.997  1.00  0.00    -0.217 NA
HETATM    6  C   LIG     1      18.051  38.475  21.701  1.00  0.00     0.124 A 
HETATM    7  C   LIG     1      18.723  39.350  20.696  1.00  0.00     0.093 C 
HETATM    8  N   LIG     1      17.586  37.251  21.333  1.00  0.00    -0.239 NA
ENDROOT
BRANCH   4   9
HETATM    9  N   LIG     1      17.286  38.531  25.287  1.00  0.00    -0.384 N 
HETATM   10  H   LIG     1      16.362  38.595  25.771  1.00  0.00     0.157 HD
HETATM   11  H   LIG     1      18.148  38.803  25.810  1.00  0.00     0.157 HD
ENDBRANCH   4   9
TORSDOF 1
ENDMDL
MODEL 5
REMARK VINA RESULT:      -5.3      1.900      2.407
REMARK  1 active torsions:
REMARK  status: ('A' for Active; 'I' for Inactive)
REMARK    1  A    between atoms: C_4  and  N_5 
ROOT
HETATM    1  C   LIG     1      16.634  35.326  21.031  1.00  0.00     0.070 C 
HETATM    2  C   LIG     1      17.157  36.546  21.722  1.00  0.00     0.036 A 
HETATM    3  C   LIG     1      17.831  37.548  21.014  1.00  0.00     0.076 A 
HETATM    4  C   LIG     1      18.288  38.669  21.713  1.00  0.00     0.125 A 
HETATM    5  N   LIG     1      18.077  38.761  23.052  1.00  0.00    -0.217 NA
HETATM    6  C   LIG     1      17.433  37.774  23.730  1.00  0.00     0.124 A 
HETATM    7  C   LIG     1      17.178  37.915  25.194  1.00  0.00     0.093 C 
HETATM    8  N   LIG     1      16.969  36.684  23.062  1.00  0.00    -0.239 NA
ENDROOT
BRANCH   4   9
HETATM    9  N   LIG     1      18.974  39.719  21.030  1.00  0.00    -0.384 N 
HETATM   10  H   LIG     1      19.865  39.535  20.518  1.00  0.00     0.157 HD
HETATM   11  H   LIG     1      18.588  40.689  21.035  1.00  0.00     0.157 HD
ENDBRANCH   4   9
TORSDOF 1
ENDMDL
MODEL 6
REMARK VINA RESULT:      -5.3      6.739      8.775
REMARK  1 active torsions:
REMARK  status: ('A' for Active; 'I' for Inactive)
REMARK    1  A    between atoms: C_4  and  N_5 
ROOT
HETATM    1  C   LIG     1      16.530  32.647  14.798  1.00  0.00     0.070 C 
HETATM    2  C   LIG     1      15.600  32.241  15.898  1.00  0.00     0.036 A 
HETATM    3  C   LIG     1      14.488  31.429  15.644  1.00  0.00     0.076 A 
HETATM    4  C   LIG     1      13.661  31.075  16.714  1.00  0.00     0.125 A 
HETATM    5  N   LIG     1      13.946  31.525  17.964  1.00  0.00    -0.217 NA
HETATM    6  C   LIG     1      15.022  32.325  18.194  1.00  0.00     0.124 A 
HETATM    7  C   LIG     1      15.336  32.774  19.582  1.00  0.00     0.093 C 
HETATM    8  N   LIG     1      15.844  32.666  17.166  1.00  0.00    -0.239 NA
ENDROOT
BRANCH   4   9
HETATM    9  N   LIG     1      12.520  30.243  16.503  1.00  0.00    -0.384 N 
HETATM   10  H   LIG     1      11.560  30.650  16.444  1.00  0.00     0.157 HD
HETATM   11  H   LIG     1      12.635  29.209  16.405  1.00  0.00     0.157 HD
ENDBRANCH   4   9
TORSDOF 1
ENDMDL
MODEL 7
REMARK VINA RESULT:      -5.2      6.670      7.873
REMARK  1 active torsions:
REMARK  status: ('A' for Active; 'I' for Inactive)
REMARK    1  A    between atoms: C_4  and  N_5 
ROOT
HETATM    1  C   LIG     1      13.065  30.564  15.736  1.00  0.00     0.070 C 
HETATM    2  C   LIG     1      13.877  31.432  16.646  1.00  0.00     0.036 A 
HETATM    3  C   LIG     1      14.539  32.567  16.164  1.00  0.00     0.076 A 
HETATM    4  C   LIG     1      15.274  33.344  17.064  1.00  0.00     0.125 A 
HETATM    5  N   LIG     1      15.335  32.983  18.373  1.00  0.00    -0.217 NA
HETATM    6  C   LIG     1      14.698  31.870  18.824  1.00  0.00     0.124 A 
HETATM    7  C   LIG     1      14.749  31.516  20.273  1.00  0.00     0.093 C 
HETATM    8  N   LIG     1      13.967  31.112  17.964  1.00  0.00    -0.239 NA
ENDROOT
BRANCH   4   9
HETATM    9  N   LIG     1      15.960  34.515  16.619  1.00  0.00    -0.384 N 
HETATM   10  H   LIG     1      16.923  34.456  16.220  1.00  0.00     0.157 HD
HETATM   11  H   LIG     1      15.501  35.451  16.688  1.00  0.00     0.157 HD
ENDBRANCH   4   9
TORSDOF 1
ENDMDL
MODEL 8
REMARK VINA RESULT:      -5.1      1.876      3.257
REMARK  1 active torsions:
REMARK  status: ('A' for Active; 'I' for Inactive)
REMARK    1  A    between atoms: C_4  and  N_5 
ROOT
HETATM    1  C   LIG     1      18.683  39.320  20.856  1.00  0.00     0.070 C 
HETATM    2  C   LIG     1      18.036  38.319  21.762  1.00  0.00     0.036 A 
HETATM    3  C   LIG     1      17.534  37.111  21.265  1.00  0.00     0.076 A 
HETATM    4  C   LIG     1      16.949  36.211  22.162  1.00  0.00     0.125 A 
HETATM    5  N   LIG     1      16.876  36.527  23.481  1.00  0.00    -0.217 NA
HETATM    6  C   LIG     1      17.356  37.710  23.948  1.00  0.00     0.124 A 
HETATM    7  C   LIG     1      17.299  38.017  25.407  1.00  0.00     0.093 C 
HETATM    8  N   LIG     1      17.941  38.589  23.091  1.00  0.00    -0.239 NA
ENDROOT
BRANCH   4   9
HETATM    9  N   LIG     1      16.429  34.963  21.701  1.00  0.00    -0.384 N 
HETATM   10  H   LIG     1      17.023  34.303  21.151  1.00  0.00     0.157 HD
HETATM   11  H   LIG     1      15.442  34.696  21.912  1.00  0.00     0.157 HD
ENDBRANCH   4   9
TORSDOF 1
ENDMDL
MODEL 9
REMARK VINA RESULT:      -5.0      8.992     10.060
REMARK  1 active torsions:
REMARK  status: ('A' for Active; 'I' for Inactive)
REMARK    1  A    between atoms: C_4  and  N_5 
ROOT
HETATM    1  C   LIG     1      14.956  29.126  13.800  1.00  0.00     0.070 C 
HETATM    2  C   LIG     1      15.061  30.361  14.638  1.00  0.00     0.036 A 
HETATM    3  C   LIG     1      14.145  30.620  15.664  1.00  0.00     0.076 A 
HETATM    4  C   LIG     1      14.299  31.787  16.420  1.00  0.00     0.125 A 
HETATM    5  N   LIG     1      15.322  32.638  16.143  1.00  0.00    -0.217 NA
HETATM    6  C   LIG     1      16.196  32.380  15.134  1.00  0.00     0.124 A 
HETATM    7  C   LIG     1      17.333  33.311  14.875  1.00  0.00     0.093 C 
HETATM    8  N   LIG     1      16.068  31.243  14.400  1.00  0.00    -0.239 NA
ENDROOT
BRANCH   4   9
HETATM    9  N   LIG     1      13.393  32.088  17.481  1.00  0.00    -0.384 N 
HETATM   10  H   LIG     1      13.678  32.706  18.273  1.00  0.00     0.157 HD
HETATM   11  H   LIG     1      12.427  31.691  17.476  1.00  0.00     0.157 HD
ENDBRANCH   4   9
TORSDOF 1
ENDMDL
MODEL 10
REMARK VINA RESULT:      -4.9      1.345      3.245
REMARK  1 active torsions:
REMARK  status: ('A' for Active; 'I' for Inactive)
REMARK    1  A    between atoms: C_4  and  N_5 
ROOT
HETATM    1  C   LIG     1      17.190  39.275  22.761  1.00  0.00     0.070 C 
HETATM    2  C   LIG     1      17.138  37.828  23.143  1.00  0.00     0.036 A 
HETATM    3  C   LIG     1      17.350  37.420  24.465  1.00  0.00     0.076 A 
HETATM    4  C   LIG     1      17.280  36.055  24.762  1.00  0.00     0.125 A 
HETATM    5  N   LIG     1      17.017  35.162  23.772  1.00  0.00    -0.217 NA
HETATM    6  C   LIG     1      16.827  35.572  22.489  1.00  0.00     0.124 A 
HETATM    7  C   LIG     1      16.501  34.576  21.427  1.00  0.00     0.093 C 
HETATM    8  N   LIG     1      16.877  36.897  22.187  1.00  0.00    -0.239 NA
ENDROOT
BRANCH   4   9
HETATM    9  N   LIG     1      17.482  35.593  26.098  1.00  0.00    -0.384 N 
HETATM   10  H   LIG     1      18.140  36.085  26.744  1.00  0.00     0.157 HD
HETATM   11  H   LIG     1      16.969  34.753  26.446  1.00  0.00     0.157 HD
ENDBRANCH   4   9
TORSDOF 1
ENDMDL
MODEL 11
REMARK VINA RESULT:      -4.8      8.226     10.533
REMARK  1 active torsions:
REMARK  status: ('A' for Active; 'I' for Inactive)
REMARK    1  A    between atoms: C_4  and  N_5 
ROOT
HETATM    1  C   LIG     1      14.942  32.931  17.357  1.00  0.00     0.070 C 
HETATM    2  C   LIG     1      15.488  32.533  16.021  1.00  0.00     0.036 A 
HETATM    3  C   LIG     1      15.004  31.405  15.348  1.00  0.00     0.076 A 
HETATM    4  C   LIG     1      15.547  31.088  14.099  1.00  0.00     0.125 A 
HETATM    5  N   LIG     1      16.525  31.869  13.572  1.00  0.00    -0.217 NA
HETATM    6  C   LIG     1      16.995  32.954  14.243  1.00  0.00     0.124 A 
HETATM    7  C   LIG     1      18.043  33.819  13.625  1.00  0.00     0.093 C 
HETATM    8  N   LIG     1      16.467  33.284  15.452  1.00  0.00    -0.239 NA
ENDROOT
BRANCH   4   9
HETATM    9  N   LIG     1      15.079  29.950  13.373  1.00  0.00    -0.384 N 
HETATM   10  H   LIG     1      15.070  29.001  13.808  1.00  0.00     0.157 HD
HETATM   11  H   LIG     1      14.738  30.058  12.392  1.00  0.00     0.157 HD
ENDBRANCH   4   9
TORSDOF 1
ENDMDL
MODEL 12
REMARK VINA RESULT:      -4.8      8.173      9.908
REMARK  1 active torsions:
REMARK  status: ('A' for Active; 'I' for Inactive)
REMARK    1  A    between atoms: C_4  and  N_5 
ROOT
HETATM    1  C   LIG     1      15.226  30.408  13.898  1.00  0.00     0.070 C 
HETATM    2  C   LIG     1      15.858  31.683  14.363  1.00  0.00     0.036 A 
HETATM    3  C   LIG     1      15.399  32.344  15.508  1.00  0.00     0.076 A 
HETATM    4  C   LIG     1      16.036  33.526  15.898  1.00  0.00     0.125 A 
HETATM    5  N   LIG     1      17.073  34.007  15.163  1.00  0.00    -0.217 NA
HETATM    6  C   LIG     1      17.500  33.361  14.044  1.00  0.00     0.124 A 
HETATM    7  C   LIG     1      18.665  33.888  13.276  1.00  0.00     0.093 C 
HETATM    8  N   LIG     1      16.900  32.203  13.661  1.00  0.00    -0.239 NA
ENDROOT
BRANCH   4   9
HETATM    9  N   LIG     1      15.606  34.231  17.063  1.00  0.00    -0.384 N 
HETATM   10  H   LIG     1      15.881  33.909  18.018  1.00  0.00     0.157 HD
HETATM   11  H   LIG     1      15.008  35.082  16.971  1.00  0.00     0.157 HD
ENDBRANCH   4   9
TORSDOF 1
ENDMDL
MODEL 13
REMARK VINA RESULT:      -4.8      8.438     10.348
REMARK  1 active torsions:
REMARK  status: ('A' for Active; 'I' for Inactive)
REMARK    1  A    between atoms: C_4  and  N_5 
ROOT
HETATM    1  C   LIG     1      14.077  29.335  14.269  1.00  0.00     0.070 C 
HETATM    2  C   LIG     1      14.800  30.625  14.498  1.00  0.00     0.036 A 
HETATM    3  C   LIG     1      15.625  31.178  13.511  1.00  0.00     0.076 A 
HETATM    4  C   LIG     1      16.268  32.390  13.780  1.00  0.00     0.125 A 
HETATM    5  N   LIG     1      16.085  32.998  14.981  1.00  0.00    -0.217 NA
HETATM    6  C   LIG     1      15.292  32.443  15.935  1.00  0.00     0.124 A 
HETATM    7  C   LIG     1      15.076  33.149  17.232  1.00  0.00     0.093 C 
HETATM    8  N   LIG     1      14.648  31.272  15.684  1.00  0.00    -0.239 NA
ENDROOT
BRANCH   4   9
HETATM    9  N   LIG     1      17.114  32.995  12.800  1.00  0.00    -0.384 N 
HETATM   10  H   LIG     1      18.052  32.594  12.579  1.00  0.00     0.157 HD
HETATM   11  H   LIG     1      16.799  33.851  12.291  1.00  0.00     0.157 HD
ENDBRANCH   4   9
TORSDOF 1
ENDMDL
MODEL 14
REMARK VINA RESULT:      -4.7      6.924      9.299
REMARK  1 active torsions:
REMARK  status: ('A' for Active; 'I' for Inactive)
REMARK    1  A    between atoms: C_4  and  N_5 
ROOT
HETATM    1  C   LIG     1      15.184  32.713  19.430  1.00  0.00     0.070 C 
HETATM    2  C   LIG     1      15.017  32.297  18.002  1.00  0.00     0.036 A 
HETATM    3  C   LIG     1      13.945  31.490  17.603  1.00  0.00     0.076 A 
HETATM    4  C   LIG     1      13.837  31.141  16.254  1.00  0.00     0.125 A 
HETATM    5  N   LIG     1      14.767  31.583  15.367  1.00  0.00    -0.217 NA
HETATM    6  C   LIG     1      15.811  32.355  15.771  1.00  0.00     0.124 A 
HETATM    7  C   LIG     1      16.797  32.860  14.772  1.00  0.00     0.093 C 
HETATM    8  N   LIG     1      15.922  32.715  17.077  1.00  0.00    -0.239 NA
ENDROOT
BRANCH   4   9
HETATM    9  N   LIG     1      12.756  30.325  15.800  1.00  0.00    -0.384 N 
HETATM   10  H   LIG     1      12.314  30.488  14.868  1.00  0.00     0.157 HD
HETATM   11  H   LIG     1      12.394  29.551  16.401  1.00  0.00     0.157 HD
ENDBRANCH   4   9
TORSDOF 1
ENDMDL
MODEL 15
REMARK VINA RESULT:      -4.7      9.093     10.373
REMARK  1 active torsions:
REMARK  status: ('A' for Active; 'I' for Inactive)
REMARK    1  A    between atoms: C_4  and  N_5 
ROOT
HETATM    1  C   LIG     1      13.084  31.811  16.960  1.00  0.00     0.070 C 
HETATM    2  C   LIG     1      14.266  31.563  16.076  1.00  0.00     0.036 A 
HETATM    3  C   LIG     1      15.362  32.434  16.070  1.00  0.00     0.076 A 
HETATM    4  C   LIG     1      16.441  32.145  15.229  1.00  0.00     0.125 A 
HETATM    5  N   LIG     1      16.403  31.039  14.440  1.00  0.00    -0.217 NA
HETATM    6  C   LIG     1      15.326  30.209  14.446  1.00  0.00     0.124 A 
HETATM    7  C   LIG     1      15.325  28.981  13.599  1.00  0.00     0.093 C 
HETATM    8  N   LIG     1      14.275  30.469  15.269  1.00  0.00    -0.239 NA
ENDROOT
BRANCH   4   9
HETATM    9  N   LIG     1      17.583  33.002  15.195  1.00  0.00    -0.384 N 
HETATM   10  H   LIG     1      17.852  33.505  14.321  1.00  0.00     0.157 HD
HETATM   11  H   LIG     1      18.165  33.135  16.052  1.00  0.00     0.157 HD
ENDBRANCH   4   9
TORSDOF 1
ENDMDL
MODEL 16
REMARK VINA RESULT:      -4.6      8.444     10.552
REMARK  1 active torsions:
REMARK  status: ('A' for Active; 'I' for Inactive)
REMARK    1  A    between atoms: C_4  and  N_5 
ROOT
HETATM    1  C   LIG     1      17.388  33.284  13.209  1.00  0.00     0.070 C 
HETATM    2  C   LIG     1      16.387  32.498  13.997  1.00  0.00     0.036 A 
HETATM    3  C   LIG     1      15.806  31.335  13.476  1.00  0.00     0.076 A 
HETATM    4  C   LIG     1      14.884  30.638  14.263  1.00  0.00     0.125 A 
HETATM    5  N   LIG     1      14.570  31.100  15.501  1.00  0.00    -0.217 NA
HETATM    6  C   LIG     1      15.131  32.239  15.989  1.00  0.00     0.124 A 
HETATM    7  C   LIG     1      14.799  32.705  17.367  1.00  0.00     0.093 C 
HETATM    8  N   LIG     1      16.041  32.920  15.242  1.00  0.00    -0.239 NA
ENDROOT
BRANCH   4   9
HETATM    9  N   LIG     1      14.272  29.444  13.775  1.00  0.00    -0.384 N 
HETATM   10  H   LIG     1      14.063  28.646  14.416  1.00  0.00     0.157 HD
HETATM   11  H   LIG     1      14.025  29.355  12.764  1.00  0.00     0.157 HD
ENDBRANCH   4   9
TORSDOF 1
ENDMDL
MODEL 17
REMARK VINA RESULT:      -4.5      4.124      5.867
REMARK  1 active torsions:
REMARK  status: ('A' for Active; 'I' for Inactive)
REMARK    1  A    between atoms: C_4  and  N_5 
ROOT
HETATM    1  C   LIG     1      14.882  31.010  20.152  1.00  0.00     0.070 C 
HETATM    2  C   LIG     1      15.183  32.402  19.695  1.00  0.00     0.036 A 
HETATM    3  C   LIG     1      15.217  32.726  18.333  1.00  0.00     0.076 A 
HETATM    4  C   LIG     1      15.495  34.046  17.967  1.00  0.00     0.125 A 
HETATM    5  N   LIG     1      15.729  34.978  18.929  1.00  0.00    -0.217 NA
HETATM    6  C   LIG     1      15.706  34.646  20.247  1.00  0.00     0.124 A 
HETATM    7  C   LIG     1      15.928  35.694  21.285  1.00  0.00     0.093 C 
HETATM    8  N   LIG     1      15.423  33.369  20.620  1.00  0.00    -0.239 NA
ENDROOT
BRANCH   4   9
HETATM    9  N   LIG     1      15.533  34.424  16.590  1.00  0.00    -0.384 N 
HETATM   10  H   LIG     1      15.454  35.425  16.305  1.00  0.00     0.157 HD
HETATM   11  H   LIG     1      15.642  33.696  15.849  1.00  0.00     0.157 HD
ENDBRANCH   4   9
TORSDOF 1
ENDMDL
MODEL 18
REMARK VINA RESULT:      -4.2      4.444      6.370
REMARK  1 active torsions:
REMARK  status: ('A' for Active; 'I' for Inactive)
REMARK    1  A    between atoms: C_4  and  N_5 
ROOT
HETATM    1  C   LIG     1      15.338  33.641  16.304  1.00  0.00     0.070 C 
HETATM    2  C   LIG     1      15.319  33.426  17.785  1.00  0.00     0.036 A 
HETATM    3  C   LIG     1      15.012  32.174  18.332  1.00  0.00     0.076 A 
HETATM    4  C   LIG     1      15.019  32.033  19.723  1.00  0.00     0.125 A 
HETATM    5  N   LIG     1      15.315  33.102  20.507  1.00  0.00    -0.217 NA
HETATM    6  C   LIG     1      15.598  34.315  19.963  1.00  0.00     0.124 A 
HETATM    7  C   LIG     1      15.958  35.464  20.845  1.00  0.00     0.093 C 
HETATM    8  N   LIG     1      15.610  34.465  18.612  1.00  0.00    -0.239 NA
ENDROOT
BRANCH   4   9
HETATM    9  N   LIG     1      14.719  30.773  20.324  1.00  0.00    -0.384 N 
HETATM   10  H   LIG     1      14.640  30.677  21.361  1.00  0.00     0.157 HD
HETATM   11  H   LIG     1      14.573  29.928  19.728  1.00  0.00     0.157 HD
ENDBRANCH   4   9
TORSDOF 1
ENDMDL
MODEL 19
REMARK VINA RESULT:      -4.1      4.539      6.778
REMARK  1 active torsions:
REMARK  status: ('A' for Active; 'I' for Inactive)
REMARK    1  A    between atoms: C_4  and  N_5 
ROOT
HETATM    1  C   LIG     1      16.083  35.678  20.972  1.00  0.00     0.070 C 
HETATM    2  C   LIG     1      15.720  34.543  20.067  1.00  0.00     0.036 A 
HETATM    3  C   LIG     1      15.373  33.288  20.582  1.00  0.00     0.076 A 
HETATM    4  C   LIG     1      15.035  32.268  19.687  1.00  0.00     0.125 A 
HETATM    5  N   LIG     1      15.054  32.511  18.350  1.00  0.00    -0.217 NA
HETATM    6  C   LIG     1      15.406  33.731  17.863  1.00  0.00     0.124 A 
HETATM    7  C   LIG     1      15.382  33.983  16.393  1.00  0.00     0.093 C 
HETATM    8  N   LIG     1      15.724  34.737  18.721  1.00  0.00    -0.239 NA
ENDROOT
BRANCH   4   9
HETATM    9  N   LIG     1      14.668  30.975  20.168  1.00  0.00    -0.384 N 
HETATM   10  H   LIG     1      15.096  30.582  21.036  1.00  0.00     0.157 HD
HETATM   11  H   LIG     1      13.962  30.404  19.652  1.00  0.00     0.157 HD
ENDBRANCH   4   9
TORSDOF 1
ENDMDL
MODEL 20
REMARK VINA RESULT:      -4.1      4.052      5.927
REMARK  1 active torsions:
REMARK  status: ('A' for Active; 'I' for Inactive)
REMARK    1  A    between atoms: C_4  and  N_5 
ROOT
HETATM    1  C   LIG     1      15.882  35.670  21.597  1.00  0.00     0.070 C 
HETATM    2  C   LIG     1      15.662  34.704  20.476  1.00  0.00     0.036 A 
HETATM    3  C   LIG     1      15.752  35.111  19.140  1.00  0.00     0.076 A 
HETATM    4  C   LIG     1      15.544  34.160  18.135  1.00  0.00     0.125 A 
HETATM    5  N   LIG     1      15.258  32.875  18.473  1.00  0.00    -0.217 NA
HETATM    6  C   LIG     1      15.160  32.497  19.775  1.00  0.00     0.124 A 
HETATM    7  C   LIG     1      14.882  31.072  20.120  1.00  0.00     0.093 C 
HETATM    8  N   LIG     1      15.373  33.406  20.763  1.00  0.00    -0.239 NA
ENDROOT
BRANCH   4   9
HETATM    9  N   LIG     1      15.634  34.529  16.759  1.00  0.00    -0.384 N 
HETATM   10  H   LIG     1      15.227  33.922  16.012  1.00  0.00     0.157 HD
HETATM   11  H   LIG     1      16.110  35.416  16.483  1.00  0.00     0.157 HD
ENDBRANCH   4   9
TORSDOF 1
ENDMDL
