MODEL 1
REMARK VINA RESULT:      -4.2      0.000      0.000
REMARK  0 active torsions:
REMARK  status: ('A' for Active; 'I' for Inactive)
REMARK       I    between atoms: N_1  and  C_2 
REMARK       I    between atoms: C_2  and  N_6 
ROOT
HETATM    1  N   LIG     1      16.906  36.429  23.141  1.00  0.00    -0.233 N 
HETATM    2  C   LIG     1      16.338  37.597  23.751  1.00  0.00     0.701 C 
HETATM    3  N   LIG     1      16.715  38.003  24.929  1.00  0.00     0.014 NA
HETATM    4  C   LIG     1      17.690  37.362  25.710  1.00  0.00     0.223 C 
HETATM    5  N   LIG     1      18.493  36.835  26.355  1.00  0.00    -0.169 NA
HETATM    6  N   LIG     1      15.337  38.335  23.052  1.00  0.00    -0.233 N 
HETATM    7  H   LIG     1      16.583  36.128  22.195  1.00  0.00     0.174 HD
HETATM    8  H   LIG     1      17.640  35.856  23.611  1.00  0.00     0.174 HD
HETATM    9  H   LIG     1      15.017  38.030  22.105  1.00  0.00     0.174 HD
HETATM   10  H   LIG     1      14.910  39.188  23.477  1.00  0.00     0.174 HD
ENDROOT
TORSDOF 0
ENDMDL
MODEL 2
REMARK VINA RESULT:      -4.0      0.818      3.487
REMARK  0 active torsions:
REMARK  status: ('A' for Active; 'I' for Inactive)
REMARK       I    between atoms: N_1  and  C_2 
REMARK       I    between atoms: C_2  and  N_6 
ROOT
HETATM    1  N   LIG     1      17.274  38.939  25.847  1.00  0.00    -0.233 N 
HETATM    2  C   LIG     1      17.708  37.619  25.489  1.00  0.00     0.701 C 
HETATM    3  N   LIG     1      17.224  36.999  24.452  1.00  0.00     0.014 NA
HETATM    4  C   LIG     1      16.253  37.538  23.593  1.00  0.00     0.223 C 
HETATM    5  N   LIG     1      15.452  37.981  22.884  1.00  0.00    -0.169 NA
HETATM    6  N   LIG     1      18.694  36.966  26.289  1.00  0.00    -0.233 N 
HETATM    7  H   LIG     1      17.681  39.411  26.684  1.00  0.00     0.174 HD
HETATM    8  H   LIG     1      16.557  39.458  25.295  1.00  0.00     0.174 HD
HETATM    9  H   LIG     1      19.098  37.442  27.126  1.00  0.00     0.174 HD
HETATM   10  H   LIG     1      19.023  36.005  26.047  1.00  0.00     0.174 HD
ENDROOT
TORSDOF 0
ENDMDL
MODEL 3
REMARK VINA RESULT:      -4.0      1.532      2.032
REMARK  0 active torsions:
REMARK  status: ('A' for Active; 'I' for Inactive)
REMARK       I    between atoms: N_1  and  C_2 
REMARK       I    between atoms: C_2  and  N_6 
ROOT
HETATM    1  N   LIG     1      17.475  38.323  25.857  1.00  0.00    -0.233 N 
HETATM    2  C   LIG     1      16.986  37.651  24.687  1.00  0.00     0.701 C 
HETATM    3  N   LIG     1      17.079  36.360  24.553  1.00  0.00     0.014 NA
HETATM    4  C   LIG     1      17.652  35.506  25.510  1.00  0.00     0.223 C 
HETATM    5  N   LIG     1      18.124  34.802  26.297  1.00  0.00    -0.169 NA
HETATM    6  N   LIG     1      16.381  38.414  23.644  1.00  0.00    -0.233 N 
HETATM    7  H   LIG     1      17.386  39.360  25.936  1.00  0.00     0.174 HD
HETATM    8  H   LIG     1      17.925  37.811  26.647  1.00  0.00     0.174 HD
HETATM    9  H   LIG     1      16.294  39.452  23.727  1.00  0.00     0.174 HD
HETATM   10  H   LIG     1      16.019  37.945  22.784  1.00  0.00     0.174 HD
ENDROOT
TORSDOF 0
ENDMDL
MODEL 4
REMARK VINA RESULT:      -3.9      4.675      5.669
REMARK  0 active torsions:
REMARK  status: ('A' for Active; 'I' for Inactive)
REMARK       I    between atoms: N_1  and  C_2 
REMARK       I    between atoms: C_2  and  N_6 
ROOT
HETATM    1  N   LIG     1      19.340  39.319  21.020  1.00  0.00    -0.233 N 
HETATM    2  C   LIG     1      19.673  38.721  19.758  1.00  0.00     0.701 C 
HETATM    3  N   LIG     1      19.187  37.568  19.400  1.00  0.00     0.014 NA
HETATM    4  C   LIG     1      18.309  36.804  20.185  1.00  0.00     0.223 C 
HETATM    5  N   LIG     1      17.586  36.172  20.831  1.00  0.00    -0.169 NA
HETATM    6  N   LIG     1      20.558  39.406  18.872  1.00  0.00    -0.233 N 
HETATM    7  H   LIG     1      19.745  40.245  21.279  1.00  0.00     0.174 HD
HETATM    8  H   LIG     1      18.698  38.859  21.702  1.00  0.00     0.174 HD
HETATM    9  H   LIG     1      20.961  40.333  19.136  1.00  0.00     0.174 HD
HETATM   10  H   LIG     1      20.813  38.989  17.949  1.00  0.00     0.174 HD
ENDROOT
TORSDOF 0
ENDMDL
MODEL 5
REMARK VINA RESULT:      -3.9      7.071      8.536
REMARK  0 active torsions:
REMARK  status: ('A' for Active; 'I' for Inactive)
REMARK       I    between atoms: N_1  and  C_2 
REMARK       I    between atoms: C_2  and  N_6 
ROOT
HETATM    1  N   LIG     1      15.526  33.540  19.664  1.00  0.00    -0.233 N 
HETATM    2  C   LIG     1      14.939  32.491  18.881  1.00  0.00     0.701 C 
HETATM    3  N   LIG     1      14.883  32.559  17.582  1.00  0.00     0.014 NA
HETATM    4  C   LIG     1      15.377  33.633  16.826  1.00  0.00     0.223 C 
HETATM    5  N   LIG     1      15.783  34.518  16.201  1.00  0.00    -0.169 NA
HETATM    6  N   LIG     1      14.402  31.344  19.539  1.00  0.00    -0.233 N 
HETATM    7  H   LIG     1      15.557  33.457  20.704  1.00  0.00     0.174 HD
HETATM    8  H   LIG     1      15.932  34.398  19.230  1.00  0.00     0.174 HD
HETATM    9  H   LIG     1      14.434  31.266  20.580  1.00  0.00     0.174 HD
HETATM   10  H   LIG     1      13.969  30.569  18.988  1.00  0.00     0.174 HD
ENDROOT
TORSDOF 0
ENDMDL
MODEL 6
REMARK VINA RESULT:      -3.9      5.074      6.572
REMARK  0 active torsions:
REMARK  status: ('A' for Active; 'I' for Inactive)
REMARK       I    between atoms: N_1  and  C_2 
REMARK       I    between atoms: C_2  and  N_6 
ROOT
HETATM    1  N   LIG     1      14.185  34.174  21.541  1.00  0.00    -0.233 N 
HETATM    2  C   LIG     1      15.439  34.274  20.852  1.00  0.00     0.701 C 
HETATM    3  N   LIG     1      15.836  33.355  20.021  1.00  0.00     0.014 NA
HETATM    4  C   LIG     1      15.103  32.197  19.716  1.00  0.00     0.223 C 
HETATM    5  N   LIG     1      14.500  31.242  19.464  1.00  0.00    -0.169 NA
HETATM    6  N   LIG     1      16.275  35.409  21.079  1.00  0.00    -0.233 N 
HETATM    7  H   LIG     1      13.894  34.929  22.202  1.00  0.00     0.174 HD
HETATM    8  H   LIG     1      13.540  33.366  21.409  1.00  0.00     0.174 HD
HETATM    9  H   LIG     1      15.979  36.161  21.742  1.00  0.00     0.174 HD
HETATM   10  H   LIG     1      17.191  35.502  20.588  1.00  0.00     0.174 HD
ENDROOT
TORSDOF 0
ENDMDL
MODEL 7
REMARK VINA RESULT:      -3.8      1.397      3.004
REMARK  0 active torsions:
REMARK  status: ('A' for Active; 'I' for Inactive)
REMARK       I    between atoms: N_1  and  C_2 
REMARK       I    between atoms: C_2  and  N_6 
ROOT
HETATM    1  N   LIG     1      17.327  36.101  25.719  1.00  0.00    -0.233 N 
HETATM    2  C   LIG     1      17.191  37.304  24.948  1.00  0.00     0.701 C 
HETATM    3  N   LIG     1      16.993  37.273  23.663  1.00  0.00     0.014 NA
HETATM    4  C   LIG     1      16.892  36.092  22.909  1.00  0.00     0.223 C 
HETATM    5  N   LIG     1      16.809  35.121  22.286  1.00  0.00    -0.169 NA
HETATM    6  N   LIG     1      17.275  38.569  25.605  1.00  0.00    -0.233 N 
HETATM    7  H   LIG     1      17.485  36.159  26.749  1.00  0.00     0.174 HD
HETATM    8  H   LIG     1      17.273  35.154  25.286  1.00  0.00     0.174 HD
HETATM    9  H   LIG     1      17.434  38.621  26.637  1.00  0.00     0.174 HD
HETATM   10  H   LIG     1      17.179  39.457  25.064  1.00  0.00     0.174 HD
ENDROOT
TORSDOF 0
ENDMDL
MODEL 8
REMARK VINA RESULT:      -3.8      4.278      4.840
REMARK  0 active torsions:
REMARK  status: ('A' for Active; 'I' for Inactive)
REMARK       I    between atoms: N_1  and  C_2 
REMARK       I    between atoms: C_2  and  N_6 
ROOT
HETATM    1  N   LIG     1      15.587  34.758  19.287  1.00  0.00    -0.233 N 
HETATM    2  C   LIG     1      15.553  35.261  20.631  1.00  0.00     0.701 C 
HETATM    3  N   LIG     1      16.530  35.970  21.119  1.00  0.00     0.014 NA
HETATM    4  C   LIG     1      17.690  36.312  20.405  1.00  0.00     0.223 C 
HETATM    5  N   LIG     1      18.647  36.594  19.819  1.00  0.00    -0.169 NA
HETATM    6  N   LIG     1      14.423  34.979  21.455  1.00  0.00    -0.233 N 
HETATM    7  H   LIG     1      14.788  34.193  18.924  1.00  0.00     0.174 HD
HETATM    8  H   LIG     1      16.390  34.937  18.646  1.00  0.00     0.174 HD
HETATM    9  H   LIG     1      13.626  34.412  21.087  1.00  0.00     0.174 HD
HETATM   10  H   LIG     1      14.378  35.335  22.436  1.00  0.00     0.174 HD
ENDROOT
TORSDOF 0
ENDMDL
MODEL 9
REMARK VINA RESULT:      -3.8      8.426      9.571
REMARK  0 active torsions:
REMARK  status: ('A' for Active; 'I' for Inactive)
REMARK       I    between atoms: N_1  and  C_2 
REMARK       I    between atoms: C_2  and  N_6 
ROOT
HETATM    1  N   LIG     1      14.072  31.522  18.635  1.00  0.00    -0.233 N 
HETATM    2  C   LIG     1      13.660  31.594  17.262  1.00  0.00     0.701 C 
HETATM    3  N   LIG     1      14.058  32.556  16.480  1.00  0.00     0.014 NA
HETATM    4  C   LIG     1      14.910  33.598  16.882  1.00  0.00     0.223 C 
HETATM    5  N   LIG     1      15.611  34.457  17.211  1.00  0.00    -0.169 NA
HETATM    6  N   LIG     1      12.794  30.589  16.738  1.00  0.00    -0.233 N 
HETATM    7  H   LIG     1      13.736  30.738  19.237  1.00  0.00     0.174 HD
HETATM    8  H   LIG     1      14.704  32.232  19.065  1.00  0.00     0.174 HD
HETATM    9  H   LIG     1      12.460  29.807  17.345  1.00  0.00     0.174 HD
HETATM   10  H   LIG     1      12.482  30.623  15.742  1.00  0.00     0.174 HD
ENDROOT
TORSDOF 0
ENDMDL
MODEL 10
REMARK VINA RESULT:      -3.7      7.740      8.177
REMARK  0 active torsions:
REMARK  status: ('A' for Active; 'I' for Inactive)
REMARK       I    between atoms: N_1  and  C_2 
REMARK       I    between atoms: C_2  and  N_6 
ROOT
HETATM    1  N   LIG     1      13.780  32.851  17.028  1.00  0.00    -0.233 N 
HETATM    2  C   LIG     1      15.004  33.419  17.517  1.00  0.00     0.701 C 
HETATM    3  N   LIG     1      15.560  32.997  18.616  1.00  0.00     0.014 NA
HETATM    4  C   LIG     1      15.040  31.971  19.420  1.00  0.00     0.223 C 
HETATM    5  N   LIG     1      14.612  31.126  20.085  1.00  0.00    -0.169 NA
HETATM    6  N   LIG     1      15.630  34.470  16.783  1.00  0.00    -0.233 N 
HETATM    7  H   LIG     1      13.358  33.210  16.143  1.00  0.00     0.174 HD
HETATM    8  H   LIG     1      13.284  32.081  17.528  1.00  0.00     0.174 HD
HETATM    9  H   LIG     1      15.204  34.826  15.898  1.00  0.00     0.174 HD
HETATM   10  H   LIG     1      16.521  34.898  17.121  1.00  0.00     0.174 HD
ENDROOT
TORSDOF 0
ENDMDL
MODEL 11
REMARK VINA RESULT:      -3.7      3.417      4.629
REMARK  0 active torsions:
REMARK  status: ('A' for Active; 'I' for Inactive)
REMARK       I    between atoms: N_1  and  C_2 
REMARK       I    between atoms: C_2  and  N_6 
ROOT
HETATM    1  N   LIG     1      14.534  35.563  21.058  1.00  0.00    -0.233 N 
HETATM    2  C   LIG     1      15.648  35.081  20.292  1.00  0.00     0.701 C 
HETATM    3  N   LIG     1      16.838  35.594  20.421  1.00  0.00     0.014 NA
HETATM    4  C   LIG     1      17.153  36.644  21.299  1.00  0.00     0.223 C 
HETATM    5  N   LIG     1      17.415  37.510  22.020  1.00  0.00    -0.169 NA
HETATM    6  N   LIG     1      15.451  34.013  19.366  1.00  0.00    -0.233 N 
HETATM    7  H   LIG     1      13.592  35.132  20.933  1.00  0.00     0.174 HD
HETATM    8  H   LIG     1      14.627  36.341  21.747  1.00  0.00     0.174 HD
HETATM    9  H   LIG     1      14.506  33.585  19.244  1.00  0.00     0.174 HD
HETATM   10  H   LIG     1      16.247  33.648  18.799  1.00  0.00     0.174 HD
ENDROOT
TORSDOF 0
ENDMDL
MODEL 12
REMARK VINA RESULT:      -3.7     11.364     12.686
REMARK  0 active torsions:
REMARK  status: ('A' for Active; 'I' for Inactive)
REMARK       I    between atoms: N_1  and  C_2 
REMARK       I    between atoms: C_2  and  N_6 
ROOT
HETATM    1  N   LIG     1      12.836  28.864  14.089  1.00  0.00    -0.233 N 
HETATM    2  C   LIG     1      14.114  29.498  14.240  1.00  0.00     0.701 C 
HETATM    3  N   LIG     1      14.331  30.383  15.169  1.00  0.00     0.014 NA
HETATM    4  C   LIG     1      13.367  30.804  16.099  1.00  0.00     0.223 C 
HETATM    5  N   LIG     1      12.574  31.152  16.865  1.00  0.00    -0.169 NA
HETATM    6  N   LIG     1      15.177  29.150  13.352  1.00  0.00    -0.233 N 
HETATM    7  H   LIG     1      12.693  28.156  13.335  1.00  0.00     0.174 HD
HETATM    8  H   LIG     1      12.029  29.083  14.712  1.00  0.00     0.174 HD
HETATM    9  H   LIG     1      15.028  28.442  12.598  1.00  0.00     0.174 HD
HETATM   10  H   LIG     1      16.115  29.599  13.444  1.00  0.00     0.174 HD
ENDROOT
TORSDOF 0
ENDMDL
MODEL 13
REMARK VINA RESULT:      -3.7      4.525      5.202
REMARK  0 active torsions:
REMARK  status: ('A' for Active; 'I' for Inactive)
REMARK       I    between atoms: N_1  and  C_2 
REMARK       I    between atoms: C_2  and  N_6 
ROOT
HETATM    1  N   LIG     1      19.261  37.392  19.520  1.00  0.00    -0.233 N 
HETATM    2  C   LIG     1      19.573  38.782  19.694  1.00  0.00     0.701 C 
HETATM    3  N   LIG     1      18.991  39.503  20.607  1.00  0.00     0.014 NA
HETATM    4  C   LIG     1      18.021  39.016  21.498  1.00  0.00     0.223 C 
HETATM    5  N   LIG     1      17.220  38.616  22.232  1.00  0.00    -0.169 NA
HETATM    6  N   LIG     1      20.547  39.391  18.847  1.00  0.00    -0.233 N 
HETATM    7  H   LIG     1      19.745  36.839  18.779  1.00  0.00     0.174 HD
HETATM    8  H   LIG     1      18.557  36.901  20.114  1.00  0.00     0.174 HD
HETATM    9  H   LIG     1      21.029  38.834  18.106  1.00  0.00     0.174 HD
HETATM   10  H   LIG     1      20.790  40.401  18.956  1.00  0.00     0.174 HD
ENDROOT
TORSDOF 0
ENDMDL
MODEL 14
REMARK VINA RESULT:      -3.7      1.097      1.865
REMARK  0 active torsions:
REMARK  status: ('A' for Active; 'I' for Inactive)
REMARK       I    between atoms: N_1  and  C_2 
REMARK       I    between atoms: C_2  and  N_6 
ROOT
HETATM    1  N   LIG     1      15.218  38.183  22.993  1.00  0.00    -0.233 N 
HETATM    2  C   LIG     1      16.129  37.097  22.771  1.00  0.00     0.701 C 
HETATM    3  N   LIG     1      17.040  36.781  23.645  1.00  0.00     0.014 NA
HETATM    4  C   LIG     1      17.227  37.448  24.866  1.00  0.00     0.223 C 
HETATM    5  N   LIG     1      17.383  37.997  25.873  1.00  0.00    -0.169 NA
HETATM    6  N   LIG     1      16.035  36.342  21.563  1.00  0.00    -0.233 N 
HETATM    7  H   LIG     1      14.497  38.413  22.274  1.00  0.00     0.174 HD
HETATM    8  H   LIG     1      15.245  38.765  23.859  1.00  0.00     0.174 HD
HETATM    9  H   LIG     1      15.313  36.576  20.846  1.00  0.00     0.174 HD
HETATM   10  H   LIG     1      16.688  35.548  21.381  1.00  0.00     0.174 HD
ENDROOT
TORSDOF 0
ENDMDL
MODEL 15
REMARK VINA RESULT:      -3.7      8.391      9.939
REMARK  0 active torsions:
REMARK  status: ('A' for Active; 'I' for Inactive)
REMARK       I    between atoms: N_1  and  C_2 
REMARK       I    between atoms: C_2  and  N_6 
ROOT
HETATM    1  N   LIG     1      15.606  32.749  17.367  1.00  0.00    -0.233 N 
HETATM    2  C   LIG     1      14.655  32.119  18.237  1.00  0.00     0.701 C 
HETATM    3  N   LIG     1      13.788  31.257  17.791  1.00  0.00     0.014 NA
HETATM    4  C   LIG     1      13.691  30.859  16.448  1.00  0.00     0.223 C 
HETATM    5  N   LIG     1      13.608  30.531  15.341  1.00  0.00    -0.169 NA
HETATM    6  N   LIG     1      14.658  32.442  19.627  1.00  0.00    -0.233 N 
HETATM    7  H   LIG     1      16.289  33.437  17.754  1.00  0.00     0.174 HD
HETATM    8  H   LIG     1      15.644  32.546  16.344  1.00  0.00     0.174 HD
HETATM    9  H   LIG     1      15.343  33.131  20.010  1.00  0.00     0.174 HD
HETATM   10  H   LIG     1      13.974  31.996  20.279  1.00  0.00     0.174 HD
ENDROOT
TORSDOF 0
ENDMDL
MODEL 16
REMARK VINA RESULT:      -3.6      3.605      4.383
REMARK  0 active torsions:
REMARK  status: ('A' for Active; 'I' for Inactive)
REMARK       I    between atoms: N_1  and  C_2 
REMARK       I    between atoms: C_2  and  N_6 
ROOT
HETATM    1  N   LIG     1      17.580  37.230  21.289  1.00  0.00    -0.233 N 
HETATM    2  C   LIG     1      17.557  38.542  21.870  1.00  0.00     0.701 C 
HETATM    3  N   LIG     1      18.390  39.469  21.495  1.00  0.00     0.014 NA
HETATM    4  C   LIG     1      19.374  39.293  20.509  1.00  0.00     0.223 C 
HETATM    5  N   LIG     1      20.186  39.150  19.697  1.00  0.00    -0.169 NA
HETATM    6  N   LIG     1      16.598  38.842  22.884  1.00  0.00    -0.233 N 
HETATM    7  H   LIG     1      16.899  36.508  21.611  1.00  0.00     0.174 HD
HETATM    8  H   LIG     1      18.261  36.962  20.545  1.00  0.00     0.174 HD
HETATM    9  H   LIG     1      15.919  38.115  23.203  1.00  0.00     0.174 HD
HETATM   10  H   LIG     1      16.565  39.790  23.321  1.00  0.00     0.174 HD
ENDROOT
TORSDOF 0
ENDMDL
MODEL 17
REMARK VINA RESULT:      -3.6     10.169     11.569
REMARK  0 active torsions:
REMARK  status: ('A' for Active; 'I' for Inactive)
REMARK       I    between atoms: N_1  and  C_2 
REMARK       I    between atoms: C_2  and  N_6 
ROOT
HETATM    1  N   LIG     1      12.747  30.288  15.716  1.00  0.00    -0.233 N 
HETATM    2  C   LIG     1      13.654  31.227  16.311  1.00  0.00     0.701 C 
HETATM    3  N   LIG     1      14.794  31.521  15.756  1.00  0.00     0.014 NA
HETATM    4  C   LIG     1      15.249  30.968  14.548  1.00  0.00     0.223 C 
HETATM    5  N   LIG     1      15.625  30.513  13.553  1.00  0.00    -0.169 NA
HETATM    6  N   LIG     1      13.300  31.858  17.542  1.00  0.00    -0.233 N 
HETATM    7  H   LIG     1      11.839  30.074  16.185  1.00  0.00     0.174 HD
HETATM    8  H   LIG     1      12.959  29.802  14.818  1.00  0.00     0.174 HD
HETATM    9  H   LIG     1      12.391  31.639  18.008  1.00  0.00     0.174 HD
HETATM   10  H   LIG     1      13.946  32.544  17.993  1.00  0.00     0.174 HD
ENDROOT
TORSDOF 0
ENDMDL
MODEL 18
REMARK VINA RESULT:      -3.6      3.205      3.788
REMARK  0 active torsions:
REMARK  status: ('A' for Active; 'I' for Inactive)
REMARK       I    between atoms: N_1  and  C_2 
REMARK       I    between atoms: C_2  and  N_6 
ROOT
HETATM    1  N   LIG     1      19.561  39.325  22.518  1.00  0.00    -0.233 N 
HETATM    2  C   LIG     1      18.604  39.252  21.451  1.00  0.00     0.701 C 
HETATM    3  N   LIG     1      17.377  38.874  21.661  1.00  0.00     0.014 NA
HETATM    4  C   LIG     1      16.868  38.507  22.917  1.00  0.00     0.223 C 
HETATM    5  N   LIG     1      16.447  38.204  23.951  1.00  0.00    -0.169 NA
HETATM    6  N   LIG     1      19.005  39.603  20.127  1.00  0.00    -0.233 N 
HETATM    7  H   LIG     1      20.539  39.633  22.319  1.00  0.00     0.174 HD
HETATM    8  H   LIG     1      19.318  39.081  23.502  1.00  0.00     0.174 HD
HETATM    9  H   LIG     1      19.984  39.909  19.932  1.00  0.00     0.174 HD
HETATM   10  H   LIG     1      18.324  39.556  19.336  1.00  0.00     0.174 HD
ENDROOT
TORSDOF 0
ENDMDL
MODEL 19
REMARK VINA RESULT:      -3.6      8.394      9.886
REMARK  0 active torsions:
REMARK  status: ('A' for Active; 'I' for Inactive)
REMARK       I    between atoms: N_1  and  C_2 
REMARK       I    between atoms: C_2  and  N_6 
ROOT
HETATM    1  N   LIG     1      13.887  32.828  17.084  1.00  0.00    -0.233 N 
HETATM    2  C   LIG     1      15.077  33.620  16.967  1.00  0.00     0.701 C 
HETATM    3  N   LIG     1      15.954  33.401  16.030  1.00  0.00     0.014 NA
HETATM    4  C   LIG     1      15.835  32.395  15.058  1.00  0.00     0.223 C 
HETATM    5  N   LIG     1      15.739  31.566  14.256  1.00  0.00    -0.169 NA
HETATM    6  N   LIG     1      15.309  34.676  17.899  1.00  0.00    -0.233 N 
HETATM    7  H   LIG     1      13.202  33.027  17.846  1.00  0.00     0.174 HD
HETATM    8  H   LIG     1      13.672  32.045  16.427  1.00  0.00     0.174 HD
HETATM    9  H   LIG     1      14.621  34.872  18.660  1.00  0.00     0.174 HD
HETATM   10  H   LIG     1      16.169  35.265  17.833  1.00  0.00     0.174 HD
ENDROOT
TORSDOF 0
ENDMDL
MODEL 20
REMARK VINA RESULT:      -3.6      2.143      3.234
REMARK  0 active torsions:
REMARK  status: ('A' for Active; 'I' for Inactive)
REMARK       I    between atoms: N_1  and  C_2 
REMARK       I    between atoms: C_2  and  N_6 
ROOT
HETATM    1  N   LIG     1      16.689  35.242  21.848  1.00  0.00    -0.233 N 
HETATM    2  C   LIG     1      17.283  36.414  21.271  1.00  0.00     0.701 C 
HETATM    3  N   LIG     1      17.206  37.575  21.853  1.00  0.00     0.014 NA
HETATM    4  C   LIG     1      16.552  37.803  23.075  1.00  0.00     0.223 C 
HETATM    5  N   LIG     1      16.013  37.993  24.081  1.00  0.00    -0.169 NA
HETATM    6  N   LIG     1      17.977  36.307  20.028  1.00  0.00    -0.233 N 
HETATM    7  H   LIG     1      16.769  34.324  21.357  1.00  0.00     0.174 HD
HETATM    8  H   LIG     1      16.172  35.268  22.753  1.00  0.00     0.174 HD
HETATM    9  H   LIG     1      18.053  35.386  19.541  1.00  0.00     0.174 HD
HETATM   10  H   LIG     1      18.416  37.147  19.591  1.00  0.00     0.174 HD
ENDROOT
TORSDOF 0
ENDMDL
