REMARK  0 active torsions:
REMARK  status: ('A' for Active; 'I' for Inactive)
ROOT
HETATM    1  F   LIG     1       2.698   0.434   0.005  1.00  0.00    -0.206 F 
HETATM    2  C   LIG     1       1.359   0.218   0.002  1.00  0.00     0.116 A 
HETATM    3  C   LIG     1       0.476   1.304   0.002  1.00  0.00     0.042 A 
HETATM    4  C   LIG     1      -0.905   1.082  -0.001  1.00  0.00     0.003 A 
HETATM    5  C   LIG     1      -1.404  -0.226  -0.003  1.00  0.00     0.000 A 
HETATM    6  C   LIG     1      -0.521  -1.311  -0.002  1.00  0.00     0.003 A 
HETATM    7  C   LIG     1       0.861  -1.089   0.001  1.00  0.00     0.042 A 
ENDROOT
TORSDOF 0
