MODEL 1
REMARK VINA RESULT:      -5.6      0.000      0.000
REMARK  0 active torsions:
REMARK  status: ('A' for Active; 'I' for Inactive)
ROOT
HETATM    1  F   LIG     1      16.698  36.933  23.041  1.00  0.00    -0.206 F 
HETATM    2  C   LIG     1      17.232  36.545  24.226  1.00  0.00     0.116 A 
HETATM    3  C   LIG     1      17.217  35.194  24.591  1.00  0.00     0.042 A 
HETATM    4  C   LIG     1      17.767  34.794  25.813  1.00  0.00     0.003 A 
HETATM    5  C   LIG     1      18.332  35.744  26.671  1.00  0.00     0.000 A 
HETATM    6  C   LIG     1      18.347  37.095  26.306  1.00  0.00     0.003 A 
HETATM    7  C   LIG     1      17.796  37.496  25.084  1.00  0.00     0.042 A 
ENDROOT
TORSDOF 0
ENDMDL
MODEL 2
REMARK VINA RESULT:      -5.6      0.046      1.832
REMARK  0 active torsions:
REMARK  status: ('A' for Active; 'I' for Inactive)
ROOT
HETATM    1  F   LIG     1      16.702  36.973  23.078  1.00  0.00    -0.206 F 
HETATM    2  C   LIG     1      17.244  36.561  24.251  1.00  0.00     0.116 A 
HETATM    3  C   LIG     1      17.850  37.490  25.105  1.00  0.00     0.042 A 
HETATM    4  C   LIG     1      18.409  37.066  26.315  1.00  0.00     0.003 A 
HETATM    5  C   LIG     1      18.364  35.713  26.671  1.00  0.00     0.000 A 
HETATM    6  C   LIG     1      17.759  34.785  25.817  1.00  0.00     0.003 A 
HETATM    7  C   LIG     1      17.199  35.209  24.606  1.00  0.00     0.042 A 
ENDROOT
TORSDOF 0
ENDMDL
MODEL 3
REMARK VINA RESULT:      -5.4      1.929      2.631
REMARK  0 active torsions:
REMARK  status: ('A' for Active; 'I' for Inactive)
ROOT
HETATM    1  F   LIG     1      18.481  34.278  26.730  1.00  0.00    -0.206 F 
HETATM    2  C   LIG     1      18.018  35.301  25.968  1.00  0.00     0.116 A 
HETATM    3  C   LIG     1      17.413  35.035  24.734  1.00  0.00     0.042 A 
HETATM    4  C   LIG     1      16.936  36.089  23.949  1.00  0.00     0.003 A 
HETATM    5  C   LIG     1      17.064  37.410  24.396  1.00  0.00     0.000 A 
HETATM    6  C   LIG     1      17.670  37.675  25.629  1.00  0.00     0.003 A 
HETATM    7  C   LIG     1      18.148  36.620  26.415  1.00  0.00     0.042 A 
ENDROOT
TORSDOF 0
ENDMDL
MODEL 4
REMARK VINA RESULT:      -5.4      1.920      3.194
REMARK  0 active torsions:
REMARK  status: ('A' for Active; 'I' for Inactive)
ROOT
HETATM    1  F   LIG     1      18.689  36.282  27.419  1.00  0.00    -0.206 F 
HETATM    2  C   LIG     1      18.129  36.240  26.185  1.00  0.00     0.116 A 
HETATM    3  C   LIG     1      17.925  37.425  25.469  1.00  0.00     0.042 A 
HETATM    4  C   LIG     1      17.347  37.382  24.196  1.00  0.00     0.003 A 
HETATM    5  C   LIG     1      16.971  36.155  23.639  1.00  0.00     0.000 A 
HETATM    6  C   LIG     1      17.173  34.970  24.355  1.00  0.00     0.003 A 
HETATM    7  C   LIG     1      17.752  35.013  25.629  1.00  0.00     0.042 A 
ENDROOT
TORSDOF 0
ENDMDL
MODEL 5
REMARK VINA RESULT:      -5.2      4.305      5.349
REMARK  0 active torsions:
REMARK  status: ('A' for Active; 'I' for Inactive)
ROOT
HETATM    1  F   LIG     1      17.351  35.605  20.779  1.00  0.00    -0.206 F 
HETATM    2  C   LIG     1      17.991  36.793  20.644  1.00  0.00     0.116 A 
HETATM    3  C   LIG     1      18.953  36.960  19.642  1.00  0.00     0.042 A 
HETATM    4  C   LIG     1      19.613  38.185  19.503  1.00  0.00     0.003 A 
HETATM    5  C   LIG     1      19.311  39.245  20.367  1.00  0.00     0.000 A 
HETATM    6  C   LIG     1      18.350  39.077  21.369  1.00  0.00     0.003 A 
HETATM    7  C   LIG     1      17.690  37.851  21.508  1.00  0.00     0.042 A 
ENDROOT
TORSDOF 0
ENDMDL
MODEL 6
REMARK VINA RESULT:      -5.2      4.314      5.463
REMARK  0 active torsions:
REMARK  status: ('A' for Active; 'I' for Inactive)
ROOT
HETATM    1  F   LIG     1      17.347  35.582  20.697  1.00  0.00    -0.206 F 
HETATM    2  C   LIG     1      17.992  36.772  20.601  1.00  0.00     0.116 A 
HETATM    3  C   LIG     1      17.681  37.808  21.489  1.00  0.00     0.042 A 
HETATM    4  C   LIG     1      18.345  39.035  21.391  1.00  0.00     0.003 A 
HETATM    5  C   LIG     1      19.320  39.227  20.405  1.00  0.00     0.000 A 
HETATM    6  C   LIG     1      19.630  38.191  19.517  1.00  0.00     0.003 A 
HETATM    7  C   LIG     1      18.965  36.963  19.615  1.00  0.00     0.042 A 
ENDROOT
TORSDOF 0
ENDMDL
MODEL 7
REMARK VINA RESULT:      -5.1      4.250      5.162
REMARK  0 active torsions:
REMARK  status: ('A' for Active; 'I' for Inactive)
ROOT
HETATM    1  F   LIG     1      16.971  38.949  22.658  1.00  0.00    -0.206 F 
HETATM    2  C   LIG     1      17.730  38.480  21.636  1.00  0.00     0.116 A 
HETATM    3  C   LIG     1      17.558  37.167  21.184  1.00  0.00     0.042 A 
HETATM    4  C   LIG     1      18.340  36.682  20.130  1.00  0.00     0.003 A 
HETATM    5  C   LIG     1      19.296  37.510  19.529  1.00  0.00     0.000 A 
HETATM    6  C   LIG     1      19.468  38.822  19.982  1.00  0.00     0.003 A 
HETATM    7  C   LIG     1      18.685  39.307  21.037  1.00  0.00     0.042 A 
ENDROOT
TORSDOF 0
ENDMDL
MODEL 8
REMARK VINA RESULT:      -5.1      1.664      2.841
REMARK  0 active torsions:
REMARK  status: ('A' for Active; 'I' for Inactive)
ROOT
HETATM    1  F   LIG     1      17.344  38.304  26.027  1.00  0.00    -0.206 F 
HETATM    2  C   LIG     1      17.233  37.294  25.128  1.00  0.00     0.116 A 
HETATM    3  C   LIG     1      16.896  37.576  23.799  1.00  0.00     0.042 A 
HETATM    4  C   LIG     1      16.782  36.535  22.872  1.00  0.00     0.003 A 
HETATM    5  C   LIG     1      17.002  35.212  23.273  1.00  0.00     0.000 A 
HETATM    6  C   LIG     1      17.338  34.931  24.601  1.00  0.00     0.003 A 
HETATM    7  C   LIG     1      17.453  35.973  25.530  1.00  0.00     0.042 A 
ENDROOT
TORSDOF 0
ENDMDL
MODEL 9
REMARK VINA RESULT:      -5.0      4.155      5.125
REMARK  0 active torsions:
REMARK  status: ('A' for Active; 'I' for Inactive)
ROOT
HETATM    1  F   LIG     1      18.840  40.196  21.091  1.00  0.00    -0.206 F 
HETATM    2  C   LIG     1      18.460  38.901  20.958  1.00  0.00     0.116 A 
HETATM    3  C   LIG     1      17.521  38.354  21.840  1.00  0.00     0.042 A 
HETATM    4  C   LIG     1      17.129  37.018  21.704  1.00  0.00     0.003 A 
HETATM    5  C   LIG     1      17.677  36.228  20.687  1.00  0.00     0.000 A 
HETATM    6  C   LIG     1      18.617  36.775  19.806  1.00  0.00     0.003 A 
HETATM    7  C   LIG     1      19.009  38.111  19.942  1.00  0.00     0.042 A 
ENDROOT
TORSDOF 0
ENDMDL
MODEL 10
REMARK VINA RESULT:      -5.0      4.262      5.006
REMARK  0 active torsions:
REMARK  status: ('A' for Active; 'I' for Inactive)
ROOT
HETATM    1  F   LIG     1      19.422  36.451  19.098  1.00  0.00    -0.206 F 
HETATM    2  C   LIG     1      18.820  37.229  20.032  1.00  0.00     0.116 A 
HETATM    3  C   LIG     1      17.820  36.691  20.850  1.00  0.00     0.042 A 
HETATM    4  C   LIG     1      17.199  37.493  21.813  1.00  0.00     0.003 A 
HETATM    5  C   LIG     1      17.578  38.833  21.960  1.00  0.00     0.000 A 
HETATM    6  C   LIG     1      18.578  39.370  21.141  1.00  0.00     0.003 A 
HETATM    7  C   LIG     1      19.199  38.567  20.177  1.00  0.00     0.042 A 
ENDROOT
TORSDOF 0
ENDMDL
MODEL 11
REMARK VINA RESULT:      -4.7      1.812      2.901
REMARK  0 active torsions:
REMARK  status: ('A' for Active; 'I' for Inactive)
ROOT
HETATM    1  F   LIG     1      17.501  37.413  26.114  1.00  0.00    -0.206 F 
HETATM    2  C   LIG     1      17.293  36.972  24.849  1.00  0.00     0.116 A 
HETATM    3  C   LIG     1      17.235  35.598  24.588  1.00  0.00     0.042 A 
HETATM    4  C   LIG     1      17.021  35.142  23.283  1.00  0.00     0.003 A 
HETATM    5  C   LIG     1      16.866  36.060  22.238  1.00  0.00     0.000 A 
HETATM    6  C   LIG     1      16.925  37.433  22.498  1.00  0.00     0.003 A 
HETATM    7  C   LIG     1      17.139  37.889  23.804  1.00  0.00     0.042 A 
ENDROOT
TORSDOF 0
ENDMDL
MODEL 12
REMARK VINA RESULT:      -4.7      3.390      4.580
REMARK  0 active torsions:
REMARK  status: ('A' for Active; 'I' for Inactive)
ROOT
HETATM    1  F   LIG     1      15.874  37.720  23.676  1.00  0.00    -0.206 F 
HETATM    2  C   LIG     1      16.691  37.596  22.601  1.00  0.00     0.116 A 
HETATM    3  C   LIG     1      17.485  38.677  22.198  1.00  0.00     0.042 A 
HETATM    4  C   LIG     1      18.328  38.550  21.089  1.00  0.00     0.003 A 
HETATM    5  C   LIG     1      18.377  37.343  20.381  1.00  0.00     0.000 A 
HETATM    6  C   LIG     1      17.583  36.264  20.783  1.00  0.00     0.003 A 
HETATM    7  C   LIG     1      16.739  36.391  21.893  1.00  0.00     0.042 A 
ENDROOT
TORSDOF 0
ENDMDL
MODEL 13
REMARK VINA RESULT:      -4.6      2.034      3.225
REMARK  0 active torsions:
REMARK  status: ('A' for Active; 'I' for Inactive)
ROOT
HETATM    1  F   LIG     1      17.206  38.930  21.730  1.00  0.00    -0.206 F 
HETATM    2  C   LIG     1      17.148  37.694  22.284  1.00  0.00     0.116 A 
HETATM    3  C   LIG     1      17.159  37.551  23.677  1.00  0.00     0.042 A 
HETATM    4  C   LIG     1      17.099  36.277  24.249  1.00  0.00     0.003 A 
HETATM    5  C   LIG     1      17.030  35.143  23.430  1.00  0.00     0.000 A 
HETATM    6  C   LIG     1      17.020  35.286  22.039  1.00  0.00     0.003 A 
HETATM    7  C   LIG     1      17.080  36.562  21.466  1.00  0.00     0.042 A 
ENDROOT
TORSDOF 0
ENDMDL
MODEL 14
REMARK VINA RESULT:      -4.6      2.233      3.423
REMARK  0 active torsions:
REMARK  status: ('A' for Active; 'I' for Inactive)
ROOT
HETATM    1  F   LIG     1      16.570  34.822  22.922  1.00  0.00    -0.206 F 
HETATM    2  C   LIG     1      16.965  36.117  22.842  1.00  0.00     0.116 A 
HETATM    3  C   LIG     1      17.257  36.683  21.596  1.00  0.00     0.042 A 
HETATM    4  C   LIG     1      17.664  38.019  21.513  1.00  0.00     0.003 A 
HETATM    5  C   LIG     1      17.780  38.789  22.676  1.00  0.00     0.000 A 
HETATM    6  C   LIG     1      17.489  38.223  23.922  1.00  0.00     0.003 A 
HETATM    7  C   LIG     1      17.082  36.886  24.005  1.00  0.00     0.042 A 
ENDROOT
TORSDOF 0
ENDMDL
MODEL 15
REMARK VINA RESULT:      -4.5     10.629     11.605
REMARK  0 active torsions:
REMARK  status: ('A' for Active; 'I' for Inactive)
ROOT
HETATM    1  F   LIG     1      15.284  30.193  13.317  1.00  0.00    -0.206 F 
HETATM    2  C   LIG     1      14.794  30.696  14.477  1.00  0.00     0.116 A 
HETATM    3  C   LIG     1      13.602  30.191  15.009  1.00  0.00     0.042 A 
HETATM    4  C   LIG     1      13.096  30.710  16.206  1.00  0.00     0.003 A 
HETATM    5  C   LIG     1      13.781  31.734  16.870  1.00  0.00     0.000 A 
HETATM    6  C   LIG     1      14.971  32.239  16.337  1.00  0.00     0.003 A 
HETATM    7  C   LIG     1      15.478  31.720  15.140  1.00  0.00     0.042 A 
ENDROOT
TORSDOF 0
ENDMDL
MODEL 16
REMARK VINA RESULT:      -4.5     10.457     11.561
REMARK  0 active torsions:
REMARK  status: ('A' for Active; 'I' for Inactive)
ROOT
HETATM    1  F   LIG     1      13.606  29.268  14.168  1.00  0.00    -0.206 F 
HETATM    2  C   LIG     1      13.961  30.301  14.971  1.00  0.00     0.116 A 
HETATM    3  C   LIG     1      15.148  31.001  14.725  1.00  0.00     0.042 A 
HETATM    4  C   LIG     1      15.516  32.067  15.553  1.00  0.00     0.003 A 
HETATM    5  C   LIG     1      14.696  32.433  16.628  1.00  0.00     0.000 A 
HETATM    6  C   LIG     1      13.510  31.733  16.873  1.00  0.00     0.003 A 
HETATM    7  C   LIG     1      13.143  30.666  16.045  1.00  0.00     0.042 A 
ENDROOT
TORSDOF 0
ENDMDL
MODEL 17
REMARK VINA RESULT:      -4.5     10.006     11.171
REMARK  0 active torsions:
REMARK  status: ('A' for Active; 'I' for Inactive)
ROOT
HETATM    1  F   LIG     1      15.494  33.232  17.022  1.00  0.00    -0.206 F 
HETATM    2  C   LIG     1      14.857  32.227  16.372  1.00  0.00     0.116 A 
HETATM    3  C   LIG     1      13.631  31.751  16.851  1.00  0.00     0.042 A 
HETATM    4  C   LIG     1      12.974  30.714  16.182  1.00  0.00     0.003 A 
HETATM    5  C   LIG     1      13.542  30.151  15.033  1.00  0.00     0.000 A 
HETATM    6  C   LIG     1      14.768  30.626  14.555  1.00  0.00     0.003 A 
HETATM    7  C   LIG     1      15.426  31.664  15.225  1.00  0.00     0.042 A 
ENDROOT
TORSDOF 0
ENDMDL
MODEL 18
REMARK VINA RESULT:      -4.4     10.200     11.337
REMARK  0 active torsions:
REMARK  status: ('A' for Active; 'I' for Inactive)
ROOT
HETATM    1  F   LIG     1      15.625  33.040  16.816  1.00  0.00    -0.206 F 
HETATM    2  C   LIG     1      14.902  32.063  16.214  1.00  0.00     0.116 A 
HETATM    3  C   LIG     1      15.375  31.466  15.040  1.00  0.00     0.042 A 
HETATM    4  C   LIG     1      14.630  30.459  14.418  1.00  0.00     0.003 A 
HETATM    5  C   LIG     1      13.410  30.048  14.970  1.00  0.00     0.000 A 
HETATM    6  C   LIG     1      12.937  30.646  16.143  1.00  0.00     0.003 A 
HETATM    7  C   LIG     1      13.683  31.654  16.765  1.00  0.00     0.042 A 
ENDROOT
TORSDOF 0
ENDMDL
MODEL 19
REMARK VINA RESULT:      -4.4     10.474     11.577
REMARK  0 active torsions:
REMARK  status: ('A' for Active; 'I' for Inactive)
ROOT
HETATM    1  F   LIG     1      13.427  31.932  17.504  1.00  0.00    -0.206 F 
HETATM    2  C   LIG     1      13.997  31.462  16.366  1.00  0.00     0.116 A 
HETATM    3  C   LIG     1      13.395  30.410  15.665  1.00  0.00     0.042 A 
HETATM    4  C   LIG     1      13.983  29.926  14.492  1.00  0.00     0.003 A 
HETATM    5  C   LIG     1      15.173  30.492  14.020  1.00  0.00     0.000 A 
HETATM    6  C   LIG     1      15.774  31.542  14.721  1.00  0.00     0.003 A 
HETATM    7  C   LIG     1      15.186  32.027  15.895  1.00  0.00     0.042 A 
ENDROOT
TORSDOF 0
ENDMDL
MODEL 20
REMARK VINA RESULT:      -4.4      9.937     11.007
REMARK  0 active torsions:
REMARK  status: ('A' for Active; 'I' for Inactive)
ROOT
HETATM    1  F   LIG     1      16.779  32.833  15.090  1.00  0.00    -0.206 F 
HETATM    2  C   LIG     1      15.649  32.171  15.442  1.00  0.00     0.116 A 
HETATM    3  C   LIG     1      15.217  31.075  14.687  1.00  0.00     0.042 A 
HETATM    4  C   LIG     1      14.051  30.392  15.050  1.00  0.00     0.003 A 
HETATM    5  C   LIG     1      13.317  30.804  16.168  1.00  0.00     0.000 A 
HETATM    6  C   LIG     1      13.750  31.900  16.922  1.00  0.00     0.003 A 
HETATM    7  C   LIG     1      14.916  32.584  16.559  1.00  0.00     0.042 A 
ENDROOT
TORSDOF 0
ENDMDL
