MODEL 1
REMARK VINA RESULT:      -4.7      0.000      0.000
REMARK  2 active torsions:
REMARK  status: ('A' for Active; 'I' for Inactive)
REMARK    1  A    between atoms: C_2  and  C_5 
REMARK    2  A    between atoms: C_5  and  O_6 
ROOT
HETATM    1  C   LIG     1      16.984  35.160  22.985  1.00  0.00     0.017 C 
HETATM    2  C   LIG     1      16.513  36.329  22.091  1.00  0.00    -0.026 C 
HETATM    3  C   LIG     1      15.137  35.949  21.498  1.00  0.00     0.017 C 
HETATM    4  C   LIG     1      17.529  36.502  20.938  1.00  0.00     0.017 C 
ENDROOT
BRANCH   2   5
HETATM    5  C   LIG     1      16.406  37.627  22.963  1.00  0.00     0.121 C 
HETATM    6  C   LIG     1      16.917  37.468  24.403  1.00  0.00     0.040 C 
BRANCH   5   7
HETATM    7  O   LIG     1      15.071  38.070  23.023  1.00  0.00    -0.395 OA
HETATM    8  H   LIG     1      14.515  37.406  22.536  1.00  0.00     0.210 HD
ENDBRANCH   5   7
ENDBRANCH   2   5
TORSDOF 2
ENDMDL
MODEL 2
REMARK VINA RESULT:      -4.7      0.028      1.639
REMARK  2 active torsions:
REMARK  status: ('A' for Active; 'I' for Inactive)
REMARK    1  A    between atoms: C_2  and  C_5 
REMARK    2  A    between atoms: C_5  and  O_6 
ROOT
HETATM    1  C   LIG     1      17.524  36.523  20.970  1.00  0.00     0.017 C 
HETATM    2  C   LIG     1      16.499  36.305  22.106  1.00  0.00    -0.026 C 
HETATM    3  C   LIG     1      16.988  35.118  22.966  1.00  0.00     0.017 C 
HETATM    4  C   LIG     1      15.137  35.941  21.471  1.00  0.00     0.017 C 
ENDROOT
BRANCH   2   5
HETATM    5  C   LIG     1      16.403  37.614  22.963  1.00  0.00     0.121 C 
HETATM    6  C   LIG     1      16.917  37.469  24.403  1.00  0.00     0.040 C 
BRANCH   5   7
HETATM    7  O   LIG     1      15.071  38.066  23.021  1.00  0.00    -0.395 OA
HETATM    8  H   LIG     1      14.495  37.340  22.665  1.00  0.00     0.210 HD
ENDBRANCH   5   7
ENDBRANCH   2   5
TORSDOF 2
ENDMDL
MODEL 3
REMARK VINA RESULT:      -4.5      1.607      3.039
REMARK  2 active torsions:
REMARK  status: ('A' for Active; 'I' for Inactive)
REMARK    1  A    between atoms: C_2  and  C_5 
REMARK    2  A    between atoms: C_5  and  O_6 
ROOT
HETATM    1  C   LIG     1      15.844  37.221  22.445  1.00  0.00     0.017 C 
HETATM    2  C   LIG     1      16.423  35.852  22.023  1.00  0.00    -0.026 C 
HETATM    3  C   LIG     1      17.101  35.221  23.260  1.00  0.00     0.017 C 
HETATM    4  C   LIG     1      17.490  36.089  20.929  1.00  0.00     0.017 C 
ENDROOT
BRANCH   2   5
HETATM    5  C   LIG     1      15.257  34.943  21.502  1.00  0.00     0.121 C 
HETATM    6  C   LIG     1      15.669  33.946  20.409  1.00  0.00     0.040 C 
BRANCH   5   7
HETATM    7  O   LIG     1      14.208  35.734  20.995  1.00  0.00    -0.395 OA
HETATM    8  H   LIG     1      14.616  36.451  20.443  1.00  0.00     0.210 HD
ENDBRANCH   5   7
ENDBRANCH   2   5
TORSDOF 2
ENDMDL
MODEL 4
REMARK VINA RESULT:      -4.4      1.414      2.197
REMARK  2 active torsions:
REMARK  status: ('A' for Active; 'I' for Inactive)
REMARK    1  A    between atoms: C_2  and  C_5 
REMARK    2  A    between atoms: C_5  and  O_6 
ROOT
HETATM    1  C   LIG     1      15.337  37.455  22.719  1.00  0.00     0.017 C 
HETATM    2  C   LIG     1      16.803  36.974  22.803  1.00  0.00    -0.026 C 
HETATM    3  C   LIG     1      17.622  37.759  21.754  1.00  0.00     0.017 C 
HETATM    4  C   LIG     1      16.845  35.469  22.453  1.00  0.00     0.017 C 
ENDROOT
BRANCH   2   5
HETATM    5  C   LIG     1      17.346  37.243  24.250  1.00  0.00     0.121 C 
HETATM    6  C   LIG     1      17.462  35.988  25.127  1.00  0.00     0.040 C 
BRANCH   5   7
HETATM    7  O   LIG     1      16.521  38.167  24.919  1.00  0.00    -0.395 OA
HETATM    8  H   LIG     1      17.088  38.941  25.177  1.00  0.00     0.210 HD
ENDBRANCH   5   7
ENDBRANCH   2   5
TORSDOF 2
ENDMDL
MODEL 5
REMARK VINA RESULT:      -4.4      1.436      1.674
REMARK  2 active torsions:
REMARK  status: ('A' for Active; 'I' for Inactive)
REMARK    1  A    between atoms: C_2  and  C_5 
REMARK    2  A    between atoms: C_5  and  O_6 
ROOT
HETATM    1  C   LIG     1      16.847  35.516  22.480  1.00  0.00     0.017 C 
HETATM    2  C   LIG     1      16.814  37.025  22.813  1.00  0.00    -0.026 C 
HETATM    3  C   LIG     1      15.348  37.501  22.711  1.00  0.00     0.017 C 
HETATM    4  C   LIG     1      17.663  37.776  21.762  1.00  0.00     0.017 C 
ENDROOT
BRANCH   2   5
HETATM    5  C   LIG     1      17.371  37.239  24.263  1.00  0.00     0.121 C 
HETATM    6  C   LIG     1      17.444  35.960  25.110  1.00  0.00     0.040 C 
BRANCH   5   7
HETATM    7  O   LIG     1      16.584  38.177  24.957  1.00  0.00    -0.395 OA
HETATM    8  H   LIG     1      15.974  38.600  24.298  1.00  0.00     0.210 HD
ENDBRANCH   5   7
ENDBRANCH   2   5
TORSDOF 2
ENDMDL
MODEL 6
REMARK VINA RESULT:      -4.2      3.694      5.017
REMARK  2 active torsions:
REMARK  status: ('A' for Active; 'I' for Inactive)
REMARK    1  A    between atoms: C_2  and  C_5 
REMARK    2  A    between atoms: C_5  and  O_6 
ROOT
HETATM    1  C   LIG     1      18.674  39.255  18.186  1.00  0.00     0.017 C 
HETATM    2  C   LIG     1      19.205  38.556  19.458  1.00  0.00    -0.026 C 
HETATM    3  C   LIG     1      18.638  39.305  20.684  1.00  0.00     0.017 C 
HETATM    4  C   LIG     1      20.747  38.667  19.468  1.00  0.00     0.017 C 
ENDROOT
BRANCH   2   5
HETATM    5  C   LIG     1      18.736  37.060  19.451  1.00  0.00     0.121 C 
HETATM    6  C   LIG     1      17.856  36.666  20.646  1.00  0.00     0.040 C 
BRANCH   5   7
HETATM    7  O   LIG     1      19.848  36.197  19.427  1.00  0.00    -0.395 OA
HETATM    8  H   LIG     1      20.652  36.741  19.638  1.00  0.00     0.210 HD
ENDBRANCH   5   7
ENDBRANCH   2   5
TORSDOF 2
ENDMDL
MODEL 7
REMARK VINA RESULT:      -4.2      1.899      2.860
REMARK  2 active torsions:
REMARK  status: ('A' for Active; 'I' for Inactive)
REMARK    1  A    between atoms: C_2  and  C_5 
REMARK    2  A    between atoms: C_5  and  O_6 
ROOT
HETATM    1  C   LIG     1      16.286  37.540  22.585  1.00  0.00     0.017 C 
HETATM    2  C   LIG     1      16.566  36.166  21.935  1.00  0.00    -0.026 C 
HETATM    3  C   LIG     1      15.257  35.676  21.277  1.00  0.00     0.017 C 
HETATM    4  C   LIG     1      16.974  35.173  23.048  1.00  0.00     0.017 C 
ENDROOT
BRANCH   2   5
HETATM    5  C   LIG     1      17.702  36.329  20.866  1.00  0.00     0.121 C 
HETATM    6  C   LIG     1      18.241  37.760  20.727  1.00  0.00     0.040 C 
BRANCH   5   7
HETATM    7  O   LIG     1      17.248  35.910  19.601  1.00  0.00    -0.395 OA
HETATM    8  H   LIG     1      17.559  34.976  19.467  1.00  0.00     0.210 HD
ENDBRANCH   5   7
ENDBRANCH   2   5
TORSDOF 2
ENDMDL
MODEL 8
REMARK VINA RESULT:      -4.2      3.258      4.215
REMARK  2 active torsions:
REMARK  status: ('A' for Active; 'I' for Inactive)
REMARK    1  A    between atoms: C_2  and  C_5 
REMARK    2  A    between atoms: C_5  and  O_6 
ROOT
HETATM    1  C   LIG     1      18.846  36.946  19.410  1.00  0.00     0.017 C 
HETATM    2  C   LIG     1      19.276  38.397  19.723  1.00  0.00    -0.026 C 
HETATM    3  C   LIG     1      18.539  39.334  18.740  1.00  0.00     0.017 C 
HETATM    4  C   LIG     1      20.800  38.517  19.486  1.00  0.00     0.017 C 
ENDROOT
BRANCH   2   5
HETATM    5  C   LIG     1      18.897  38.734  21.206  1.00  0.00     0.121 C 
HETATM    6  C   LIG     1      17.561  38.134  21.670  1.00  0.00     0.040 C 
BRANCH   5   7
HETATM    7  O   LIG     1      18.836  40.127  21.393  1.00  0.00    -0.395 OA
HETATM    8  H   LIG     1      17.876  40.383  21.418  1.00  0.00     0.210 HD
ENDBRANCH   5   7
ENDBRANCH   2   5
TORSDOF 2
ENDMDL
MODEL 9
REMARK VINA RESULT:      -4.0      1.704      2.970
REMARK  2 active torsions:
REMARK  status: ('A' for Active; 'I' for Inactive)
REMARK    1  A    between atoms: C_2  and  C_5 
REMARK    2  A    between atoms: C_5  and  O_6 
ROOT
HETATM    1  C   LIG     1      15.425  37.765  22.762  1.00  0.00     0.017 C 
HETATM    2  C   LIG     1      16.906  37.335  22.850  1.00  0.00    -0.026 C 
HETATM    3  C   LIG     1      17.387  37.580  24.298  1.00  0.00     0.017 C 
HETATM    4  C   LIG     1      17.730  38.222  21.888  1.00  0.00     0.017 C 
ENDROOT
BRANCH   2   5
HETATM    5  C   LIG     1      17.020  35.818  22.473  1.00  0.00     0.121 C 
HETATM    6  C   LIG     1      15.848  35.282  21.637  1.00  0.00     0.040 C 
BRANCH   5   7
HETATM    7  O   LIG     1      17.120  35.029  23.635  1.00  0.00    -0.395 OA
HETATM    8  H   LIG     1      16.793  34.120  23.407  1.00  0.00     0.210 HD
ENDBRANCH   5   7
ENDBRANCH   2   5
TORSDOF 2
ENDMDL
MODEL 10
REMARK VINA RESULT:      -4.0      1.943      3.078
REMARK  2 active torsions:
REMARK  status: ('A' for Active; 'I' for Inactive)
REMARK    1  A    between atoms: C_2  and  C_5 
REMARK    2  A    between atoms: C_5  and  O_6 
ROOT
HETATM    1  C   LIG     1      18.241  38.814  21.719  1.00  0.00     0.017 C 
HETATM    2  C   LIG     1      17.170  38.008  22.488  1.00  0.00    -0.026 C 
HETATM    3  C   LIG     1      15.879  38.856  22.534  1.00  0.00     0.017 C 
HETATM    4  C   LIG     1      17.675  37.779  23.931  1.00  0.00     0.017 C 
ENDROOT
BRANCH   2   5
HETATM    5  C   LIG     1      16.920  36.651  21.743  1.00  0.00     0.121 C 
HETATM    6  C   LIG     1      16.949  35.414  22.652  1.00  0.00     0.040 C 
BRANCH   5   7
HETATM    7  O   LIG     1      17.876  36.466  20.727  1.00  0.00    -0.395 OA
HETATM    8  H   LIG     1      18.176  35.520  20.769  1.00  0.00     0.210 HD
ENDBRANCH   5   7
ENDBRANCH   2   5
TORSDOF 2
ENDMDL
MODEL 11
REMARK VINA RESULT:      -4.0      1.526      2.358
REMARK  2 active torsions:
REMARK  status: ('A' for Active; 'I' for Inactive)
REMARK    1  A    between atoms: C_2  and  C_5 
REMARK    2  A    between atoms: C_5  and  O_6 
ROOT
HETATM    1  C   LIG     1      17.713  36.143  20.738  1.00  0.00     0.017 C 
HETATM    2  C   LIG     1      16.537  35.498  21.504  1.00  0.00    -0.026 C 
HETATM    3  C   LIG     1      17.027  35.157  22.929  1.00  0.00     0.017 C 
HETATM    4  C   LIG     1      16.141  34.191  20.780  1.00  0.00     0.017 C 
ENDROOT
BRANCH   2   5
HETATM    5  C   LIG     1      15.342  36.513  21.553  1.00  0.00     0.121 C 
HETATM    6  C   LIG     1      15.318  37.405  22.803  1.00  0.00     0.040 C 
BRANCH   5   7
HETATM    7  O   LIG     1      14.114  35.829  21.483  1.00  0.00    -0.395 OA
HETATM    8  H   LIG     1      13.735  35.803  22.401  1.00  0.00     0.210 HD
ENDBRANCH   5   7
ENDBRANCH   2   5
TORSDOF 2
ENDMDL
MODEL 12
REMARK VINA RESULT:      -3.9      1.814      2.518
REMARK  2 active torsions:
REMARK  status: ('A' for Active; 'I' for Inactive)
REMARK    1  A    between atoms: C_2  and  C_5 
REMARK    2  A    between atoms: C_5  and  O_6 
ROOT
HETATM    1  C   LIG     1      15.320  37.211  22.411  1.00  0.00     0.017 C 
HETATM    2  C   LIG     1      16.846  37.032  22.567  1.00  0.00    -0.026 C 
HETATM    3  C   LIG     1      17.421  36.632  21.190  1.00  0.00     0.017 C 
HETATM    4  C   LIG     1      17.104  35.887  23.573  1.00  0.00     0.017 C 
ENDROOT
BRANCH   2   5
HETATM    5  C   LIG     1      17.470  38.383  23.061  1.00  0.00     0.121 C 
HETATM    6  C   LIG     1      18.453  39.027  22.072  1.00  0.00     0.040 C 
BRANCH   5   7
HETATM    7  O   LIG     1      18.143  38.195  24.283  1.00  0.00    -0.395 OA
HETATM    8  H   LIG     1      18.848  37.512  24.132  1.00  0.00     0.210 HD
ENDBRANCH   5   7
ENDBRANCH   2   5
TORSDOF 2
ENDMDL
MODEL 13
REMARK VINA RESULT:      -3.8      1.992      2.378
REMARK  2 active torsions:
REMARK  status: ('A' for Active; 'I' for Inactive)
REMARK    1  A    between atoms: C_2  and  C_5 
REMARK    2  A    between atoms: C_5  and  O_6 
ROOT
HETATM    1  C   LIG     1      17.130  36.489  24.039  1.00  0.00     0.017 C 
HETATM    2  C   LIG     1      16.877  37.359  22.788  1.00  0.00    -0.026 C 
HETATM    3  C   LIG     1      15.372  37.708  22.748  1.00  0.00     0.017 C 
HETATM    4  C   LIG     1      17.236  36.528  21.535  1.00  0.00     0.017 C 
ENDROOT
BRANCH   2   5
HETATM    5  C   LIG     1      17.749  38.659  22.886  1.00  0.00     0.121 C 
HETATM    6  C   LIG     1      18.496  39.020  21.593  1.00  0.00     0.040 C 
BRANCH   5   7
HETATM    7  O   LIG     1      18.699  38.535  23.917  1.00  0.00    -0.395 OA
HETATM    8  H   LIG     1      19.585  38.772  23.535  1.00  0.00     0.210 HD
ENDBRANCH   5   7
ENDBRANCH   2   5
TORSDOF 2
ENDMDL
MODEL 14
REMARK VINA RESULT:      -3.7      1.271      2.616
REMARK  2 active torsions:
REMARK  status: ('A' for Active; 'I' for Inactive)
REMARK    1  A    between atoms: C_2  and  C_5 
REMARK    2  A    between atoms: C_5  and  O_6 
ROOT
HETATM    1  C   LIG     1      17.262  35.886  23.384  1.00  0.00     0.017 C 
HETATM    2  C   LIG     1      16.913  37.389  23.480  1.00  0.00    -0.026 C 
HETATM    3  C   LIG     1      17.867  38.159  22.539  1.00  0.00     0.017 C 
HETATM    4  C   LIG     1      17.153  37.854  24.934  1.00  0.00     0.017 C 
ENDROOT
BRANCH   2   5
HETATM    5  C   LIG     1      15.419  37.593  23.050  1.00  0.00     0.121 C 
HETATM    6  C   LIG     1      14.960  36.685  21.900  1.00  0.00     0.040 C 
BRANCH   5   7
HETATM    7  O   LIG     1      15.198  38.928  22.663  1.00  0.00    -0.395 OA
HETATM    8  H   LIG     1      15.828  39.496  23.181  1.00  0.00     0.210 HD
ENDBRANCH   5   7
ENDBRANCH   2   5
TORSDOF 2
ENDMDL
MODEL 15
REMARK VINA RESULT:      -3.7      5.823      6.750
REMARK  2 active torsions:
REMARK  status: ('A' for Active; 'I' for Inactive)
REMARK    1  A    between atoms: C_2  and  C_5 
REMARK    2  A    between atoms: C_5  and  O_6 
ROOT
HETATM    1  C   LIG     1      14.571  34.220  16.975  1.00  0.00     0.017 C 
HETATM    2  C   LIG     1      14.846  32.719  17.220  1.00  0.00    -0.026 C 
HETATM    3  C   LIG     1      15.849  32.239  16.147  1.00  0.00     0.017 C 
HETATM    4  C   LIG     1      13.518  31.945  17.051  1.00  0.00     0.017 C 
ENDROOT
BRANCH   2   5
HETATM    5  C   LIG     1      15.439  32.538  18.660  1.00  0.00     0.121 C 
HETATM    6  C   LIG     1      14.697  31.511  19.527  1.00  0.00     0.040 C 
BRANCH   5   7
HETATM    7  O   LIG     1      15.442  33.766  19.347  1.00  0.00    -0.395 OA
HETATM    8  H   LIG     1      16.119  34.349  18.912  1.00  0.00     0.210 HD
ENDBRANCH   5   7
ENDBRANCH   2   5
TORSDOF 2
ENDMDL
MODEL 16
REMARK VINA RESULT:      -3.6     10.608     12.093
REMARK  2 active torsions:
REMARK  status: ('A' for Active; 'I' for Inactive)
REMARK    1  A    between atoms: C_2  and  C_5 
REMARK    2  A    between atoms: C_5  and  O_6 
ROOT
HETATM    1  C   LIG     1      20.548  35.053  10.372  1.00  0.00     0.017 C 
HETATM    2  C   LIG     1      20.519  33.889  11.388  1.00  0.00    -0.026 C 
HETATM    3  C   LIG     1      21.420  34.277  12.581  1.00  0.00     0.017 C 
HETATM    4  C   LIG     1      21.100  32.630  10.704  1.00  0.00     0.017 C 
ENDROOT
BRANCH   2   5
HETATM    5  C   LIG     1      19.040  33.659  11.856  1.00  0.00     0.121 C 
HETATM    6  C   LIG     1      18.802  33.914  13.352  1.00  0.00     0.040 C 
BRANCH   5   7
HETATM    7  O   LIG     1      18.635  32.342  11.570  1.00  0.00    -0.395 OA
HETATM    8  H   LIG     1      17.820  32.157  12.108  1.00  0.00     0.210 HD
ENDBRANCH   5   7
ENDBRANCH   2   5
TORSDOF 2
ENDMDL
MODEL 17
REMARK VINA RESULT:      -3.5      1.242      2.767
REMARK  2 active torsions:
REMARK  status: ('A' for Active; 'I' for Inactive)
REMARK    1  A    between atoms: C_2  and  C_5 
REMARK    2  A    between atoms: C_5  and  O_6 
ROOT
HETATM    1  C   LIG     1      16.966  39.491  22.313  1.00  0.00     0.017 C 
HETATM    2  C   LIG     1      17.288  38.002  22.572  1.00  0.00    -0.026 C 
HETATM    3  C   LIG     1      18.282  37.929  23.753  1.00  0.00     0.017 C 
HETATM    4  C   LIG     1      17.961  37.420  21.308  1.00  0.00     0.017 C 
ENDROOT
BRANCH   2   5
HETATM    5  C   LIG     1      15.958  37.245  22.915  1.00  0.00     0.121 C 
HETATM    6  C   LIG     1      15.442  36.330  21.795  1.00  0.00     0.040 C 
BRANCH   5   7
HETATM    7  O   LIG     1      14.938  38.163  23.231  1.00  0.00    -0.395 OA
HETATM    8  H   LIG     1      14.115  37.640  23.420  1.00  0.00     0.210 HD
ENDBRANCH   5   7
ENDBRANCH   2   5
TORSDOF 2
ENDMDL
MODEL 18
REMARK VINA RESULT:      -3.4      7.881      9.097
REMARK  2 active torsions:
REMARK  status: ('A' for Active; 'I' for Inactive)
REMARK    1  A    between atoms: C_2  and  C_5 
REMARK    2  A    between atoms: C_5  and  O_6 
ROOT
HETATM    1  C   LIG     1      12.651  32.488  16.602  1.00  0.00     0.017 C 
HETATM    2  C   LIG     1      14.025  31.787  16.694  1.00  0.00    -0.026 C 
HETATM    3  C   LIG     1      14.292  31.459  18.180  1.00  0.00     0.017 C 
HETATM    4  C   LIG     1      15.109  32.768  16.191  1.00  0.00     0.017 C 
ENDROOT
BRANCH   2   5
HETATM    5  C   LIG     1      13.989  30.478  15.830  1.00  0.00     0.121 C 
HETATM    6  C   LIG     1      14.861  30.527  14.568  1.00  0.00     0.040 C 
BRANCH   5   7
HETATM    7  O   LIG     1      12.669  30.188  15.436  1.00  0.00    -0.395 OA
HETATM    8  H   LIG     1      12.218  29.749  16.205  1.00  0.00     0.210 HD
ENDBRANCH   5   7
ENDBRANCH   2   5
TORSDOF 2
ENDMDL
MODEL 19
REMARK VINA RESULT:      -3.4      6.807      8.101
REMARK  2 active torsions:
REMARK  status: ('A' for Active; 'I' for Inactive)
REMARK    1  A    between atoms: C_2  and  C_5 
REMARK    2  A    between atoms: C_5  and  O_6 
ROOT
HETATM    1  C   LIG     1      13.275  32.201  16.819  1.00  0.00     0.017 C 
HETATM    2  C   LIG     1      14.707  32.776  16.909  1.00  0.00    -0.026 C 
HETATM    3  C   LIG     1      15.369  32.204  18.182  1.00  0.00     0.017 C 
HETATM    4  C   LIG     1      14.608  34.313  17.038  1.00  0.00     0.017 C 
ENDROOT
BRANCH   2   5
HETATM    5  C   LIG     1      15.506  32.356  15.627  1.00  0.00     0.121 C 
HETATM    6  C   LIG     1      15.094  30.999  15.038  1.00  0.00     0.040 C 
BRANCH   5   7
HETATM    7  O   LIG     1      16.886  32.310  15.902  1.00  0.00    -0.395 OA
HETATM    8  H   LIG     1      17.359  32.195  15.036  1.00  0.00     0.210 HD
ENDBRANCH   5   7
ENDBRANCH   2   5
TORSDOF 2
ENDMDL
MODEL 20
REMARK VINA RESULT:      -3.1     17.795     18.960
REMARK  2 active torsions:
REMARK  status: ('A' for Active; 'I' for Inactive)
REMARK    1  A    between atoms: C_2  and  C_5 
REMARK    2  A    between atoms: C_5  and  O_6 
ROOT
HETATM    1  C   LIG     1      28.270  31.117  36.146  1.00  0.00     0.017 C 
HETATM    2  C   LIG     1      26.917  31.190  36.890  1.00  0.00    -0.026 C 
HETATM    3  C   LIG     1      25.818  31.493  35.848  1.00  0.00     0.017 C 
HETATM    4  C   LIG     1      26.981  32.352  37.908  1.00  0.00     0.017 C 
ENDROOT
BRANCH   2   5
HETATM    5  C   LIG     1      26.652  29.817  37.599  1.00  0.00     0.121 C 
HETATM    6  C   LIG     1      26.989  28.586  36.746  1.00  0.00     0.040 C 
BRANCH   5   7
HETATM    7  O   LIG     1      25.302  29.719  37.989  1.00  0.00    -0.395 OA
HETATM    8  H   LIG     1      24.934  28.891  37.583  1.00  0.00     0.210 HD
ENDBRANCH   5   7
ENDBRANCH   2   5
TORSDOF 2
ENDMDL
