REMARK  2 active torsions:
REMARK  status: ('A' for Active; 'I' for Inactive)
REMARK    1  A    between atoms: C_18  and  O_19 
REMARK    2  A    between atoms: C_21  and  O_22 
ROOT
HETATM    1  O   LIG     1      -1.745   1.524   3.933  1.00  0.00    -0.293 OA
HETATM    2  C   LIG     1      -1.744   1.230   2.708  1.00  0.00     0.150 C 
HETATM    3  C   LIG     1      -3.007   1.162   1.981  1.00  0.00     0.049 C 
HETATM    4  C   LIG     1      -3.054   0.781   0.707  1.00  0.00     0.019 C 
HETATM    5  C   LIG     1      -0.447   1.033   1.990  1.00  0.00     0.100 C 
HETATM    6  C   LIG     1      -0.566   0.078   0.766  1.00  0.00     0.038 C 
HETATM    7  C   LIG     1      -1.819   0.397  -0.119  1.00  0.00     0.189 C 
HETATM    8  C   LIG     1      -1.526   1.558  -1.084  1.00  0.00     0.052 C 
HETATM    9  C   LIG     1      -0.409   1.208  -2.057  1.00  0.00     0.042 C 
HETATM   10  C   LIG     1      -0.861  -1.383   1.176  1.00  0.00     0.048 C 
HETATM   11  C   LIG     1      -1.719  -1.963   0.054  1.00  0.00     0.274 C 
HETATM   12  N   LIG     1      -2.044  -0.865  -0.863  1.00  0.00     0.098 N 
HETATM   13  C   LIG     1      -3.352  -1.043  -1.520  1.00  0.00     0.311 C 
HETATM   14  C   LIG     1       0.764   0.136  -0.037  1.00  0.00    -0.004 A 
HETATM   15  C   LIG     1       0.803   0.647  -1.364  1.00  0.00    -0.048 A 
HETATM   16  C   LIG     1       2.000   0.630  -2.091  1.00  0.00     0.011 A 
HETATM   17  C   LIG     1       3.176   0.165  -1.519  1.00  0.00     0.040 A 
HETATM   18  C   LIG     1       3.186  -0.295  -0.196  1.00  0.00     0.101 A 
HETATM   19  C   LIG     1       1.989  -0.306   0.545  1.00  0.00     0.106 A 
ENDROOT
BRANCH  18  20
HETATM   20  O   LIG     1       4.366  -0.752   0.415  1.00  0.00    -0.353 OA
HETATM   21  C   LIG     1       5.642  -0.796  -0.217  1.00  0.00     0.210 C 
ENDBRANCH  18  20
BRANCH  19  22
HETATM   22  O   LIG     1       2.016  -0.760   1.866  1.00  0.00    -0.357 OA
HETATM   23  H   LIG     1       2.862  -1.083   2.320  1.00  0.00     0.217 HD
ENDBRANCH  19  22
TORSDOF 2
