MODEL 1
REMARK VINA RESULT:      -5.0      0.000      0.000
REMARK  2 active torsions:
REMARK  status: ('A' for Active; 'I' for Inactive)
REMARK    1  A    between atoms: C_18  and  O_19 
REMARK    2  A    between atoms: C_21  and  O_22 
ROOT
HETATM    1  O   LIG     1      23.213  21.308  24.189  1.00  0.00    -0.293 OA
HETATM    2  C   LIG     1      23.503  21.192  22.969  1.00  0.00     0.150 C 
HETATM    3  C   LIG     1      23.018  20.039  22.218  1.00  0.00     0.049 C 
HETATM    4  C   LIG     1      23.366  19.842  20.949  1.00  0.00     0.019 C 
HETATM    5  C   LIG     1      24.272  22.274  22.280  1.00  0.00     0.100 C 
HETATM    6  C   LIG     1      25.101  21.756  21.067  1.00  0.00     0.038 C 
HETATM    7  C   LIG     1      24.277  20.787  20.153  1.00  0.00     0.189 C 
HETATM    8  C   LIG     1      23.389  21.577  19.178  1.00  0.00     0.052 C 
HETATM    9  C   LIG     1      24.220  22.433  18.232  1.00  0.00     0.042 C 
HETATM   10  C   LIG     1      26.269  20.837  21.492  1.00  0.00     0.048 C 
HETATM   11  C   LIG     1      26.431  19.824  20.361  1.00  0.00     0.274 C 
HETATM   12  N   LIG     1      25.323  20.032  19.423  1.00  0.00     0.098 N 
HETATM   13  C   LIG     1      24.915  18.789  18.742  1.00  0.00     0.311 C 
HETATM   14  C   LIG     1      25.658  22.982  20.290  1.00  0.00    -0.004 A 
HETATM   15  C   LIG     1      25.246  23.260  18.957  1.00  0.00    -0.048 A 
HETATM   16  C   LIG     1      25.809  24.333  18.255  1.00  0.00     0.011 A 
HETATM   17  C   LIG     1      26.736  25.172  18.856  1.00  0.00     0.040 A 
HETATM   18  C   LIG     1      27.124  24.961  20.186  1.00  0.00     0.101 A 
HETATM   19  C   LIG     1      26.586  23.876  20.903  1.00  0.00     0.106 A 
ENDROOT
BRANCH  18  20
HETATM   20  O   LIG     1      28.045  25.807  20.827  1.00  0.00    -0.353 OA
HETATM   21  C   LIG     1      29.450  25.806  20.589  1.00  0.00     0.210 C 
ENDBRANCH  18  20
BRANCH  19  22
HETATM   22  O   LIG     1      26.976  23.683  22.230  1.00  0.00    -0.357 OA
HETATM   23  H   LIG     1      27.136  22.766  22.629  1.00  0.00     0.217 HD
ENDBRANCH  19  22
TORSDOF 2
ENDMDL
MODEL 2
REMARK VINA RESULT:      -4.9      1.676      2.427
REMARK  2 active torsions:
REMARK  status: ('A' for Active; 'I' for Inactive)
REMARK    1  A    between atoms: C_18  and  O_19 
REMARK    2  A    between atoms: C_21  and  O_22 
ROOT
HETATM    1  O   LIG     1      22.127  22.392  21.651  1.00  0.00    -0.293 OA
HETATM    2  C   LIG     1      23.071  22.434  20.819  1.00  0.00     0.150 C 
HETATM    3  C   LIG     1      22.922  21.779  19.524  1.00  0.00     0.049 C 
HETATM    4  C   LIG     1      23.923  21.735  18.649  1.00  0.00     0.019 C 
HETATM    5  C   LIG     1      24.305  23.221  21.129  1.00  0.00     0.100 C 
HETATM    6  C   LIG     1      25.572  22.682  20.402  1.00  0.00     0.038 C 
HETATM    7  C   LIG     1      25.301  22.364  18.892  1.00  0.00     0.189 C 
HETATM    8  C   LIG     1      25.385  23.642  18.040  1.00  0.00     0.052 C 
HETATM    9  C   LIG     1      26.776  24.259  18.092  1.00  0.00     0.042 C 
HETATM   10  C   LIG     1      26.011  21.293  20.919  1.00  0.00     0.048 C 
HETATM   11  C   LIG     1      26.617  20.575  19.715  1.00  0.00     0.274 C 
HETATM   12  N   LIG     1      26.390  21.422  18.539  1.00  0.00     0.098 N 
HETATM   13  C   LIG     1      26.237  20.640  17.298  1.00  0.00     0.311 C 
HETATM   14  C   LIG     1      26.727  23.703  20.601  1.00  0.00    -0.004 A 
HETATM   15  C   LIG     1      27.287  24.408  19.500  1.00  0.00    -0.048 A 
HETATM   16  C   LIG     1      28.370  25.274  19.694  1.00  0.00     0.011 A 
HETATM   17  C   LIG     1      28.883  25.502  20.964  1.00  0.00     0.040 A 
HETATM   18  C   LIG     1      28.321  24.866  22.079  1.00  0.00     0.101 A 
HETATM   19  C   LIG     1      27.246  23.975  21.902  1.00  0.00     0.106 A 
ENDROOT
BRANCH  18  20
HETATM   20  O   LIG     1      28.807  25.094  23.377  1.00  0.00    -0.353 OA
HETATM   21  C   LIG     1      28.744  26.343  24.060  1.00  0.00     0.210 C 
ENDBRANCH  18  20
BRANCH  19  22
HETATM   22  O   LIG     1      26.690  23.355  23.024  1.00  0.00    -0.357 OA
HETATM   23  H   LIG     1      26.793  22.366  23.214  1.00  0.00     0.217 HD
ENDBRANCH  19  22
TORSDOF 2
ENDMDL
MODEL 3
REMARK VINA RESULT:      -4.7      3.796      6.756
REMARK  2 active torsions:
REMARK  status: ('A' for Active; 'I' for Inactive)
REMARK    1  A    between atoms: C_18  and  O_19 
REMARK    2  A    between atoms: C_21  and  O_22 
ROOT
HETATM    1  O   LIG     1      29.910  26.535  15.513  1.00  0.00    -0.293 OA
HETATM    2  C   LIG     1      29.261  26.177  16.532  1.00  0.00     0.150 C 
HETATM    3  C   LIG     1      29.108  27.099  17.652  1.00  0.00     0.049 C 
HETATM    4  C   LIG     1      28.496  26.730  18.774  1.00  0.00     0.019 C 
HETATM    5  C   LIG     1      28.586  24.842  16.553  1.00  0.00     0.100 C 
HETATM    6  C   LIG     1      28.416  24.267  17.990  1.00  0.00     0.038 C 
HETATM    7  C   LIG     1      27.888  25.340  19.003  1.00  0.00     0.189 C 
HETATM    8  C   LIG     1      26.359  25.480  18.904  1.00  0.00     0.052 C 
HETATM    9  C   LIG     1      25.655  24.181  19.270  1.00  0.00     0.042 C 
HETATM   10  C   LIG     1      29.764  23.887  18.643  1.00  0.00     0.048 C 
HETATM   11  C   LIG     1      29.588  24.144  20.138  1.00  0.00     0.274 C 
HETATM   12  N   LIG     1      28.285  24.792  20.321  1.00  0.00     0.098 N 
HETATM   13  C   LIG     1      28.266  25.712  21.474  1.00  0.00     0.311 C 
HETATM   14  C   LIG     1      27.500  23.013  17.915  1.00  0.00    -0.004 A 
HETATM   15  C   LIG     1      26.224  22.993  18.544  1.00  0.00    -0.048 A 
HETATM   16  C   LIG     1      25.444  21.830  18.518  1.00  0.00     0.011 A 
HETATM   17  C   LIG     1      25.873  20.697  17.839  1.00  0.00     0.040 A 
HETATM   18  C   LIG     1      27.100  20.700  17.163  1.00  0.00     0.101 A 
HETATM   19  C   LIG     1      27.909  21.852  17.195  1.00  0.00     0.106 A 
ENDROOT
BRANCH  18  20
HETATM   20  O   LIG     1      27.550  19.575  16.451  1.00  0.00    -0.353 OA
HETATM   21  C   LIG     1      27.041  19.158  15.188  1.00  0.00     0.210 C 
ENDBRANCH  18  20
BRANCH  19  22
HETATM   22  O   LIG     1      29.126  21.842  16.509  1.00  0.00    -0.357 OA
HETATM   23  H   LIG     1      29.277  21.305  15.663  1.00  0.00     0.217 HD
ENDBRANCH  19  22
TORSDOF 2
ENDMDL
MODEL 4
REMARK VINA RESULT:      -4.6      2.399      3.563
REMARK  2 active torsions:
REMARK  status: ('A' for Active; 'I' for Inactive)
REMARK    1  A    between atoms: C_18  and  O_19 
REMARK    2  A    between atoms: C_21  and  O_22 
ROOT
HETATM    1  O   LIG     1      21.313  22.802  21.254  1.00  0.00    -0.293 OA
HETATM    2  C   LIG     1      22.518  22.650  20.918  1.00  0.00     0.150 C 
HETATM    3  C   LIG     1      22.837  22.128  19.594  1.00  0.00     0.049 C 
HETATM    4  C   LIG     1      24.093  21.882  19.230  1.00  0.00     0.019 C 
HETATM    5  C   LIG     1      23.610  23.080  21.845  1.00  0.00     0.100 C 
HETATM    6  C   LIG     1      24.930  22.280  21.645  1.00  0.00     0.038 C 
HETATM    7  C   LIG     1      25.310  22.127  20.132  1.00  0.00     0.189 C 
HETATM    8  C   LIG     1      26.024  23.388  19.617  1.00  0.00     0.052 C 
HETATM    9  C   LIG     1      27.335  23.628  20.353  1.00  0.00     0.042 C 
HETATM   10  C   LIG     1      24.800  20.798  22.066  1.00  0.00     0.048 C 
HETATM   11  C   LIG     1      25.723  20.019  21.131  1.00  0.00     0.274 C 
HETATM   12  N   LIG     1      26.225  20.961  20.125  1.00  0.00     0.098 N 
HETATM   13  C   LIG     1      26.492  20.315  18.827  1.00  0.00     0.311 C 
HETATM   14  C   LIG     1      26.052  22.962  22.477  1.00  0.00    -0.004 A 
HETATM   15  C   LIG     1      27.177  23.563  21.847  1.00  0.00    -0.048 A 
HETATM   16  C   LIG     1      28.207  24.114  22.620  1.00  0.00     0.011 A 
HETATM   17  C   LIG     1      28.128  24.132  24.006  1.00  0.00     0.040 A 
HETATM   18  C   LIG     1      27.009  23.598  24.658  1.00  0.00     0.101 A 
HETATM   19  C   LIG     1      25.973  23.020  23.901  1.00  0.00     0.106 A 
ENDROOT
BRANCH  18  20
HETATM   20  O   LIG     1      26.894  23.621  26.058  1.00  0.00    -0.353 OA
HETATM   21  C   LIG     1      26.453  24.743  26.817  1.00  0.00     0.210 C 
ENDBRANCH  18  20
BRANCH  19  22
HETATM   22  O   LIG     1      24.860  22.499  24.565  1.00  0.00    -0.357 OA
HETATM   23  H   LIG     1      24.382  21.658  24.263  1.00  0.00     0.217 HD
ENDBRANCH  19  22
TORSDOF 2
ENDMDL
MODEL 5
REMARK VINA RESULT:      -4.5      3.589      5.686
REMARK  2 active torsions:
REMARK  status: ('A' for Active; 'I' for Inactive)
REMARK    1  A    between atoms: C_18  and  O_19 
REMARK    2  A    between atoms: C_21  and  O_22 
ROOT
HETATM    1  O   LIG     1      26.343  25.049  26.990  1.00  0.00    -0.293 OA
HETATM    2  C   LIG     1      25.877  23.895  26.791  1.00  0.00     0.150 C 
HETATM    3  C   LIG     1      25.813  22.942  27.893  1.00  0.00     0.049 C 
HETATM    4  C   LIG     1      25.399  21.692  27.706  1.00  0.00     0.019 C 
HETATM    5  C   LIG     1      25.319  23.539  25.450  1.00  0.00     0.100 C 
HETATM    6  C   LIG     1      25.402  22.015  25.140  1.00  0.00     0.038 C 
HETATM    7  C   LIG     1      24.941  21.135  26.352  1.00  0.00     0.189 C 
HETATM    8  C   LIG     1      23.408  21.018  26.391  1.00  0.00     0.052 C 
HETATM    9  C   LIG     1      22.867  20.328  25.147  1.00  0.00     0.042 C 
HETATM   10  C   LIG     1      26.855  21.522  24.956  1.00  0.00     0.048 C 
HETATM   11  C   LIG     1      26.875  20.086  25.474  1.00  0.00     0.274 C 
HETATM   12  N   LIG     1      25.564  19.818  26.076  1.00  0.00     0.098 N 
HETATM   13  C   LIG     1      25.637  18.854  27.190  1.00  0.00     0.311 C 
HETATM   14  C   LIG     1      24.586  21.728  23.848  1.00  0.00    -0.004 A 
HETATM   15  C   LIG     1      23.419  20.916  23.877  1.00  0.00    -0.048 A 
HETATM   16  C   LIG     1      22.737  20.619  22.690  1.00  0.00     0.011 A 
HETATM   17  C   LIG     1      23.153  21.148  21.476  1.00  0.00     0.040 A 
HETATM   18  C   LIG     1      24.266  21.996  21.418  1.00  0.00     0.101 A 
HETATM   19  C   LIG     1      24.978  22.290  22.597  1.00  0.00     0.106 A 
ENDROOT
BRANCH  18  20
HETATM   20  O   LIG     1      24.697  22.563  20.207  1.00  0.00    -0.353 OA
HETATM   21  C   LIG     1      24.261  22.146  18.916  1.00  0.00     0.210 C 
ENDBRANCH  18  20
BRANCH  19  22
HETATM   22  O   LIG     1      26.082  23.144  22.524  1.00  0.00    -0.357 OA
HETATM   23  H   LIG     1      26.920  23.008  23.077  1.00  0.00     0.217 HD
ENDBRANCH  19  22
TORSDOF 2
ENDMDL
MODEL 6
REMARK VINA RESULT:      -4.5      3.002      5.364
REMARK  2 active torsions:
REMARK  status: ('A' for Active; 'I' for Inactive)
REMARK    1  A    between atoms: C_18  and  O_19 
REMARK    2  A    between atoms: C_21  and  O_22 
ROOT
HETATM    1  O   LIG     1      22.009  18.001  18.247  1.00  0.00    -0.293 OA
HETATM    2  C   LIG     1      22.496  19.060  18.726  1.00  0.00     0.150 C 
HETATM    3  C   LIG     1      22.653  20.232  17.872  1.00  0.00     0.049 C 
HETATM    4  C   LIG     1      23.233  21.343  18.320  1.00  0.00     0.019 C 
HETATM    5  C   LIG     1      22.833  19.133  20.181  1.00  0.00     0.100 C 
HETATM    6  C   LIG     1      23.970  20.150  20.493  1.00  0.00     0.038 C 
HETATM    7  C   LIG     1      23.771  21.513  19.747  1.00  0.00     0.189 C 
HETATM    8  C   LIG     1      22.787  22.416  20.510  1.00  0.00     0.052 C 
HETATM    9  C   LIG     1      23.313  22.772  21.894  1.00  0.00     0.042 C 
HETATM   10  C   LIG     1      25.340  19.705  19.930  1.00  0.00     0.048 C 
HETATM   11  C   LIG     1      26.074  20.992  19.563  1.00  0.00     0.274 C 
HETATM   12  N   LIG     1      25.132  22.102  19.740  1.00  0.00     0.098 N 
HETATM   13  C   LIG     1      25.385  23.216  18.807  1.00  0.00     0.311 C 
HETATM   14  C   LIG     1      24.071  20.320  22.035  1.00  0.00    -0.004 A 
HETATM   15  C   LIG     1      23.781  21.565  22.660  1.00  0.00    -0.048 A 
HETATM   16  C   LIG     1      23.940  21.713  24.044  1.00  0.00     0.011 A 
HETATM   17  C   LIG     1      24.332  20.642  24.836  1.00  0.00     0.040 A 
HETATM   18  C   LIG     1      24.573  19.388  24.261  1.00  0.00     0.101 A 
HETATM   19  C   LIG     1      24.439  19.223  22.869  1.00  0.00     0.106 A 
ENDROOT
BRANCH  18  20
HETATM   20  O   LIG     1      24.950  18.282  25.041  1.00  0.00    -0.353 OA
HETATM   21  C   LIG     1      24.367  17.936  26.294  1.00  0.00     0.210 C 
ENDBRANCH  18  20
BRANCH  19  22
HETATM   22  O   LIG     1      24.675  17.964  22.312  1.00  0.00    -0.357 OA
HETATM   23  H   LIG     1      23.935  17.299  22.122  1.00  0.00     0.217 HD
ENDBRANCH  19  22
TORSDOF 2
ENDMDL
MODEL 7
REMARK VINA RESULT:      -4.5      3.122      5.198
REMARK  2 active torsions:
REMARK  status: ('A' for Active; 'I' for Inactive)
REMARK    1  A    between atoms: C_18  and  O_19 
REMARK    2  A    between atoms: C_21  and  O_22 
ROOT
HETATM    1  O   LIG     1      26.812  24.983  19.027  1.00  0.00    -0.293 OA
HETATM    2  C   LIG     1      26.093  23.981  19.281  1.00  0.00     0.150 C 
HETATM    3  C   LIG     1      25.371  23.912  20.547  1.00  0.00     0.049 C 
HETATM    4  C   LIG     1      24.663  22.837  20.884  1.00  0.00     0.019 C 
HETATM    5  C   LIG     1      25.919  22.909  18.253  1.00  0.00     0.100 C 
HETATM    6  C   LIG     1      25.607  21.515  18.872  1.00  0.00     0.038 C 
HETATM    7  C   LIG     1      24.519  21.593  19.997  1.00  0.00     0.189 C 
HETATM    8  C   LIG     1      23.106  21.614  19.392  1.00  0.00     0.052 C 
HETATM    9  C   LIG     1      22.810  20.338  18.617  1.00  0.00     0.042 C 
HETATM   10  C   LIG     1      26.802  20.930  19.658  1.00  0.00     0.048 C 
HETATM   11  C   LIG     1      26.190  20.117  20.797  1.00  0.00     0.274 C 
HETATM   12  N   LIG     1      24.742  20.352  20.776  1.00  0.00     0.098 N 
HETATM   13  C   LIG     1      24.135  20.273  22.118  1.00  0.00     0.311 C 
HETATM   14  C   LIG     1      25.211  20.542  17.725  1.00  0.00    -0.004 A 
HETATM   15  C   LIG     1      23.903  19.989  17.645  1.00  0.00    -0.048 A 
HETATM   16  C   LIG     1      23.589  19.065  16.639  1.00  0.00     0.011 A 
HETATM   17  C   LIG     1      24.524  18.712  15.677  1.00  0.00     0.040 A 
HETATM   18  C   LIG     1      25.805  19.279  15.693  1.00  0.00     0.101 A 
HETATM   19  C   LIG     1      26.148  20.193  16.707  1.00  0.00     0.106 A 
ENDROOT
BRANCH  18  20
HETATM   20  O   LIG     1      26.765  18.956  14.719  1.00  0.00    -0.353 OA
HETATM   21  C   LIG     1      26.843  19.553  13.428  1.00  0.00     0.210 C 
ENDBRANCH  18  20
BRANCH  19  22
HETATM   22  O   LIG     1      27.426  20.757  16.705  1.00  0.00    -0.357 OA
HETATM   23  H   LIG     1      27.618  21.688  17.055  1.00  0.00     0.217 HD
ENDBRANCH  19  22
TORSDOF 2
ENDMDL
MODEL 8
REMARK VINA RESULT:      -4.4      2.814      5.583
REMARK  2 active torsions:
REMARK  status: ('A' for Active; 'I' for Inactive)
REMARK    1  A    between atoms: C_18  and  O_19 
REMARK    2  A    between atoms: C_21  and  O_22 
ROOT
HETATM    1  O   LIG     1      27.886  25.163  17.935  1.00  0.00    -0.293 OA
HETATM    2  C   LIG     1      27.217  24.476  18.752  1.00  0.00     0.150 C 
HETATM    3  C   LIG     1      27.244  24.814  20.171  1.00  0.00     0.049 C 
HETATM    4  C   LIG     1      26.613  24.068  21.074  1.00  0.00     0.019 C 
HETATM    5  C   LIG     1      26.337  23.374  18.254  1.00  0.00     0.100 C 
HETATM    6  C   LIG     1      26.118  22.247  19.306  1.00  0.00     0.038 C 
HETATM    7  C   LIG     1      25.796  22.815  20.730  1.00  0.00     0.189 C 
HETATM    8  C   LIG     1      24.308  23.183  20.849  1.00  0.00     0.052 C 
HETATM    9  C   LIG     1      23.414  21.962  20.678  1.00  0.00     0.042 C 
HETATM   10  C   LIG     1      27.405  21.442  19.595  1.00  0.00     0.048 C 
HETATM   11  C   LIG     1      27.314  21.027  21.062  1.00  0.00     0.274 C 
HETATM   12  N   LIG     1      26.136  21.690  21.633  1.00  0.00     0.098 N 
HETATM   13  C   LIG     1      26.297  21.994  23.067  1.00  0.00     0.311 C 
HETATM   14  C   LIG     1      25.011  21.290  18.780  1.00  0.00    -0.004 A 
HETATM   15  C   LIG     1      23.766  21.159  19.456  1.00  0.00    -0.048 A 
HETATM   16  C   LIG     1      22.810  20.243  19.000  1.00  0.00     0.011 A 
HETATM   17  C   LIG     1      23.033  19.486  17.858  1.00  0.00     0.040 A 
HETATM   18  C   LIG     1      24.225  19.628  17.137  1.00  0.00     0.101 A 
HETATM   19  C   LIG     1      25.209  20.528  17.590  1.00  0.00     0.106 A 
ENDROOT
BRANCH  18  20
HETATM   20  O   LIG     1      24.469  18.890  15.967  1.00  0.00    -0.353 OA
HETATM   21  C   LIG     1      23.483  18.148  15.255  1.00  0.00     0.210 C 
ENDBRANCH  18  20
BRANCH  19  22
HETATM   22  O   LIG     1      26.389  20.665  16.855  1.00  0.00    -0.357 OA
HETATM   23  H   LIG     1      26.771  21.565  16.590  1.00  0.00     0.217 HD
ENDBRANCH  19  22
TORSDOF 2
ENDMDL
MODEL 9
REMARK VINA RESULT:      -4.3      2.596      4.171
REMARK  2 active torsions:
REMARK  status: ('A' for Active; 'I' for Inactive)
REMARK    1  A    between atoms: C_18  and  O_19 
REMARK    2  A    between atoms: C_21  and  O_22 
ROOT
HETATM    1  O   LIG     1      23.408  21.486  20.213  1.00  0.00    -0.293 OA
HETATM    2  C   LIG     1      24.389  22.215  19.907  1.00  0.00     0.150 C 
HETATM    3  C   LIG     1      24.644  22.533  18.507  1.00  0.00     0.049 C 
HETATM    4  C   LIG     1      25.712  23.236  18.138  1.00  0.00     0.019 C 
HETATM    5  C   LIG     1      25.235  22.815  20.985  1.00  0.00     0.100 C 
HETATM    6  C   LIG     1      26.696  23.100  20.526  1.00  0.00     0.038 C 
HETATM    7  C   LIG     1      26.755  23.787  19.120  1.00  0.00     0.189 C 
HETATM    8  C   LIG     1      26.524  25.303  19.241  1.00  0.00     0.052 C 
HETATM    9  C   LIG     1      27.609  25.969  20.075  1.00  0.00     0.042 C 
HETATM   10  C   LIG     1      27.498  21.807  20.255  1.00  0.00     0.048 C 
HETATM   11  C   LIG     1      28.466  22.149  19.124  1.00  0.00     0.274 C 
HETATM   12  N   LIG     1      28.133  23.498  18.654  1.00  0.00     0.098 N 
HETATM   13  C   LIG     1      28.419  23.686  17.220  1.00  0.00     0.311 C 
HETATM   14  C   LIG     1      27.407  23.932  21.630  1.00  0.00    -0.004 A 
HETATM   15  C   LIG     1      27.845  25.263  21.383  1.00  0.00    -0.048 A 
HETATM   16  C   LIG     1      28.540  25.971  22.371  1.00  0.00     0.011 A 
HETATM   17  C   LIG     1      28.770  25.413  23.621  1.00  0.00     0.040 A 
HETATM   18  C   LIG     1      28.305  24.125  23.917  1.00  0.00     0.101 A 
HETATM   19  C   LIG     1      27.623  23.389  22.931  1.00  0.00     0.106 A 
ENDROOT
BRANCH  18  20
HETATM   20  O   LIG     1      28.506  23.543  25.181  1.00  0.00    -0.353 OA
HETATM   21  C   LIG     1      29.703  23.655  25.944  1.00  0.00     0.210 C 
ENDBRANCH  18  20
BRANCH  19  22
HETATM   22  O   LIG     1      27.158  22.109  23.244  1.00  0.00    -0.357 OA
HETATM   23  H   LIG     1      27.498  21.578  24.037  1.00  0.00     0.217 HD
ENDBRANCH  19  22
TORSDOF 2
ENDMDL
MODEL 10
REMARK VINA RESULT:      -4.3      2.229      3.723
REMARK  2 active torsions:
REMARK  status: ('A' for Active; 'I' for Inactive)
REMARK    1  A    between atoms: C_18  and  O_19 
REMARK    2  A    between atoms: C_21  and  O_22 
ROOT
HETATM    1  O   LIG     1      25.442  19.821  16.215  1.00  0.00    -0.293 OA
HETATM    2  C   LIG     1      25.350  20.090  17.443  1.00  0.00     0.150 C 
HETATM    3  C   LIG     1      24.727  19.130  18.347  1.00  0.00     0.049 C 
HETATM    4  C   LIG     1      24.543  19.409  19.635  1.00  0.00     0.019 C 
HETATM    5  C   LIG     1      25.950  21.352  17.976  1.00  0.00     0.100 C 
HETATM    6  C   LIG     1      25.237  21.872  19.259  1.00  0.00     0.038 C 
HETATM    7  C   LIG     1      24.966  20.728  20.295  1.00  0.00     0.189 C 
HETATM    8  C   LIG     1      26.221  20.445  21.137  1.00  0.00     0.052 C 
HETATM    9  C   LIG     1      26.630  21.660  21.958  1.00  0.00     0.042 C 
HETATM   10  C   LIG     1      23.798  22.364  18.983  1.00  0.00     0.048 C 
HETATM   11  C   LIG     1      23.004  22.054  20.250  1.00  0.00     0.274 C 
HETATM   12  N   LIG     1      23.878  21.279  21.137  1.00  0.00     0.098 N 
HETATM   13  C   LIG     1      23.130  20.333  21.986  1.00  0.00     0.311 C 
HETATM   14  C   LIG     1      26.080  23.033  19.857  1.00  0.00    -0.004 A 
HETATM   15  C   LIG     1      26.700  22.915  21.131  1.00  0.00    -0.048 A 
HETATM   16  C   LIG     1      27.401  23.998  21.678  1.00  0.00     0.011 A 
HETATM   17  C   LIG     1      27.548  25.183  20.970  1.00  0.00     0.040 A 
HETATM   18  C   LIG     1      26.997  25.316  19.689  1.00  0.00     0.101 A 
HETATM   19  C   LIG     1      26.271  24.247  19.131  1.00  0.00     0.106 A 
ENDROOT
BRANCH  18  20
HETATM   20  O   LIG     1      27.148  26.496  18.943  1.00  0.00    -0.353 OA
HETATM   21  C   LIG     1      28.400  27.080  18.592  1.00  0.00     0.210 C 
ENDBRANCH  18  20
BRANCH  19  22
HETATM   22  O   LIG     1      25.734  24.391  17.849  1.00  0.00    -0.357 OA
HETATM   23  H   LIG     1      26.306  24.540  17.026  1.00  0.00     0.217 HD
ENDBRANCH  19  22
TORSDOF 2
ENDMDL
MODEL 11
REMARK VINA RESULT:      -4.3      1.842      2.400
REMARK  2 active torsions:
REMARK  status: ('A' for Active; 'I' for Inactive)
REMARK    1  A    between atoms: C_18  and  O_19 
REMARK    2  A    between atoms: C_21  and  O_22 
ROOT
HETATM    1  O   LIG     1      25.506  23.434  25.780  1.00  0.00    -0.293 OA
HETATM    2  C   LIG     1      25.036  22.773  24.817  1.00  0.00     0.150 C 
HETATM    3  C   LIG     1      24.079  21.702  25.074  1.00  0.00     0.049 C 
HETATM    4  C   LIG     1      23.619  20.932  24.092  1.00  0.00     0.019 C 
HETATM    5  C   LIG     1      25.398  23.141  23.413  1.00  0.00     0.100 C 
HETATM    6  C   LIG     1      25.324  21.938  22.428  1.00  0.00     0.038 C 
HETATM    7  C   LIG     1      24.020  21.091  22.619  1.00  0.00     0.189 C 
HETATM    8  C   LIG     1      22.835  21.737  21.881  1.00  0.00     0.052 C 
HETATM    9  C   LIG     1      23.076  21.794  20.379  1.00  0.00     0.042 C 
HETATM   10  C   LIG     1      26.409  20.872  22.705  1.00  0.00     0.048 C 
HETATM   11  C   LIG     1      25.780  19.533  22.329  1.00  0.00     0.274 C 
HETATM   12  N   LIG     1      24.369  19.783  22.016  1.00  0.00     0.098 N 
HETATM   13  C   LIG     1      23.504  18.633  22.338  1.00  0.00     0.311 C 
HETATM   14  C   LIG     1      25.481  22.476  20.978  1.00  0.00    -0.004 A 
HETATM   15  C   LIG     1      24.421  22.374  20.034  1.00  0.00    -0.048 A 
HETATM   16  C   LIG     1      24.607  22.808  18.715  1.00  0.00     0.011 A 
HETATM   17  C   LIG     1      25.803  23.389  18.317  1.00  0.00     0.040 A 
HETATM   18  C   LIG     1      26.849  23.556  19.234  1.00  0.00     0.101 A 
HETATM   19  C   LIG     1      26.689  23.107  20.559  1.00  0.00     0.106 A 
ENDROOT
BRANCH  18  20
HETATM   20  O   LIG     1      28.062  24.160  18.864  1.00  0.00    -0.353 OA
HETATM   21  C   LIG     1      28.220  25.542  18.558  1.00  0.00     0.210 C 
ENDBRANCH  18  20
BRANCH  19  22
HETATM   22  O   LIG     1      27.738  23.288  21.464  1.00  0.00    -0.357 OA
HETATM   23  H   LIG     1      27.644  23.116  22.458  1.00  0.00     0.217 HD
ENDBRANCH  19  22
TORSDOF 2
ENDMDL
MODEL 12
REMARK VINA RESULT:      -4.3      3.256      6.996
REMARK  2 active torsions:
REMARK  status: ('A' for Active; 'I' for Inactive)
REMARK    1  A    between atoms: C_18  and  O_19 
REMARK    2  A    between atoms: C_21  and  O_22 
ROOT
HETATM    1  O   LIG     1      22.826  22.154  20.138  1.00  0.00    -0.293 OA
HETATM    2  C   LIG     1      23.504  22.131  21.199  1.00  0.00     0.150 C 
HETATM    3  C   LIG     1      24.810  22.780  21.235  1.00  0.00     0.049 C 
HETATM    4  C   LIG     1      25.589  22.712  22.312  1.00  0.00     0.019 C 
HETATM    5  C   LIG     1      22.935  21.510  22.435  1.00  0.00     0.100 C 
HETATM    6  C   LIG     1      24.025  20.965  23.402  1.00  0.00     0.038 C 
HETATM    7  C   LIG     1      25.205  21.977  23.603  1.00  0.00     0.189 C 
HETATM    8  C   LIG     1      24.840  23.041  24.652  1.00  0.00     0.052 C 
HETATM    9  C   LIG     1      24.593  22.417  26.018  1.00  0.00     0.042 C 
HETATM   10  C   LIG     1      24.780  19.746  22.824  1.00  0.00     0.048 C 
HETATM   11  C   LIG     1      26.202  19.841  23.371  1.00  0.00     0.274 C 
HETATM   12  N   LIG     1      26.315  21.120  24.082  1.00  0.00     0.098 N 
HETATM   13  C   LIG     1      27.678  21.680  24.029  1.00  0.00     0.311 C 
HETATM   14  C   LIG     1      23.344  20.568  24.742  1.00  0.00    -0.004 A 
HETATM   15  C   LIG     1      23.646  21.248  25.954  1.00  0.00    -0.048 A 
HETATM   16  C   LIG     1      23.068  20.832  27.160  1.00  0.00     0.011 A 
HETATM   17  C   LIG     1      22.155  19.787  27.190  1.00  0.00     0.040 A 
HETATM   18  C   LIG     1      21.793  19.129  26.008  1.00  0.00     0.101 A 
HETATM   19  C   LIG     1      22.378  19.519  24.788  1.00  0.00     0.106 A 
ENDROOT
BRANCH  18  20
HETATM   20  O   LIG     1      20.856  18.082  26.006  1.00  0.00    -0.353 OA
HETATM   21  C   LIG     1      19.442  18.258  26.013  1.00  0.00     0.210 C 
ENDBRANCH  18  20
BRANCH  19  22
HETATM   22  O   LIG     1      22.000  18.859  23.616  1.00  0.00    -0.357 OA
HETATM   23  H   LIG     1      21.451  19.301  22.888  1.00  0.00     0.217 HD
ENDBRANCH  19  22
TORSDOF 2
ENDMDL
MODEL 13
REMARK VINA RESULT:      -4.2      3.985      5.660
REMARK  2 active torsions:
REMARK  status: ('A' for Active; 'I' for Inactive)
REMARK    1  A    between atoms: C_18  and  O_19 
REMARK    2  A    between atoms: C_21  and  O_22 
ROOT
HETATM    1  O   LIG     1      27.050  25.409  27.715  1.00  0.00    -0.293 OA
HETATM    2  C   LIG     1      26.517  24.318  27.378  1.00  0.00     0.150 C 
HETATM    3  C   LIG     1      26.182  23.332  28.399  1.00  0.00     0.049 C 
HETATM    4  C   LIG     1      25.690  22.139  28.077  1.00  0.00     0.019 C 
HETATM    5  C   LIG     1      26.158  24.075  25.946  1.00  0.00     0.100 C 
HETATM    6  C   LIG     1      26.149  22.565  25.567  1.00  0.00     0.038 C 
HETATM    7  C   LIG     1      25.413  21.687  26.636  1.00  0.00     0.189 C 
HETATM    8  C   LIG     1      23.891  21.726  26.422  1.00  0.00     0.052 C 
HETATM    9  C   LIG     1      23.502  21.146  25.069  1.00  0.00     0.042 C 
HETATM   10  C   LIG     1      27.560  21.935  25.592  1.00  0.00     0.048 C 
HETATM   11  C   LIG     1      27.359  20.484  26.024  1.00  0.00     0.274 C 
HETATM   12  N   LIG     1      25.947  20.327  26.390  1.00  0.00     0.098 N 
HETATM   13  C   LIG     1      25.744  19.316  27.444  1.00  0.00     0.311 C 
HETATM   14  C   LIG     1      25.536  22.416  24.146  1.00  0.00    -0.004 A 
HETATM   15  C   LIG     1      24.309  21.726  23.940  1.00  0.00    -0.048 A 
HETATM   16  C   LIG     1      23.809  21.549  22.644  1.00  0.00     0.011 A 
HETATM   17  C   LIG     1      24.469  22.082  21.546  1.00  0.00     0.040 A 
HETATM   18  C   LIG     1      25.651  22.814  21.716  1.00  0.00     0.101 A 
HETATM   19  C   LIG     1      26.181  22.986  23.009  1.00  0.00     0.106 A 
ENDROOT
BRANCH  18  20
HETATM   20  O   LIG     1      26.328  23.383  20.624  1.00  0.00    -0.353 OA
HETATM   21  C   LIG     1      25.916  24.563  19.940  1.00  0.00     0.210 C 
ENDBRANCH  18  20
BRANCH  19  22
HETATM   22  O   LIG     1      27.357  23.725  23.164  1.00  0.00    -0.357 OA
HETATM   23  H   LIG     1      27.425  24.707  22.924  1.00  0.00     0.217 HD
ENDBRANCH  19  22
TORSDOF 2
ENDMDL
MODEL 14
REMARK VINA RESULT:      -4.2      2.540      5.090
REMARK  2 active torsions:
REMARK  status: ('A' for Active; 'I' for Inactive)
REMARK    1  A    between atoms: C_18  and  O_19 
REMARK    2  A    between atoms: C_21  and  O_22 
ROOT
HETATM    1  O   LIG     1      22.434  21.809  18.491  1.00  0.00    -0.293 OA
HETATM    2  C   LIG     1      23.527  21.951  19.103  1.00  0.00     0.150 C 
HETATM    3  C   LIG     1      24.760  22.129  18.344  1.00  0.00     0.049 C 
HETATM    4  C   LIG     1      25.942  22.206  18.950  1.00  0.00     0.019 C 
HETATM    5  C   LIG     1      23.542  22.018  20.596  1.00  0.00     0.100 C 
HETATM    6  C   LIG     1      24.888  21.538  21.215  1.00  0.00     0.038 C 
HETATM    7  C   LIG     1      26.131  22.134  20.472  1.00  0.00     0.189 C 
HETATM    8  C   LIG     1      26.437  23.556  20.970  1.00  0.00     0.052 C 
HETATM    9  C   LIG     1      26.795  23.565  22.450  1.00  0.00     0.042 C 
HETATM   10  C   LIG     1      25.127  20.023  21.020  1.00  0.00     0.048 C 
HETATM   11  C   LIG     1      26.639  19.857  20.883  1.00  0.00     0.274 C 
HETATM   12  N   LIG     1      27.226  21.201  20.831  1.00  0.00     0.098 N 
HETATM   13  C   LIG     1      28.456  21.251  20.020  1.00  0.00     0.311 C 
HETATM   14  C   LIG     1      24.881  21.874  22.733  1.00  0.00    -0.004 A 
HETATM   15  C   LIG     1      25.801  22.807  23.287  1.00  0.00    -0.048 A 
HETATM   16  C   LIG     1      25.818  23.046  24.667  1.00  0.00     0.011 A 
HETATM   17  C   LIG     1      24.912  22.419  25.511  1.00  0.00     0.040 A 
HETATM   18  C   LIG     1      23.957  21.535  24.994  1.00  0.00     0.101 A 
HETATM   19  C   LIG     1      23.936  21.266  23.612  1.00  0.00     0.106 A 
ENDROOT
BRANCH  18  20
HETATM   20  O   LIG     1      23.015  20.903  25.822  1.00  0.00    -0.353 OA
HETATM   21  C   LIG     1      22.695  21.315  27.148  1.00  0.00     0.210 C 
ENDBRANCH  18  20
BRANCH  19  22
HETATM   22  O   LIG     1      22.972  20.388  23.109  1.00  0.00    -0.357 OA
HETATM   23  H   LIG     1      23.075  19.381  23.142  1.00  0.00     0.217 HD
ENDBRANCH  19  22
TORSDOF 2
ENDMDL
MODEL 15
REMARK VINA RESULT:      -4.2      2.601      5.401
REMARK  2 active torsions:
REMARK  status: ('A' for Active; 'I' for Inactive)
REMARK    1  A    between atoms: C_18  and  O_19 
REMARK    2  A    between atoms: C_21  and  O_22 
ROOT
HETATM    1  O   LIG     1      27.086  23.835  23.845  1.00  0.00    -0.293 OA
HETATM    2  C   LIG     1      27.397  23.858  22.625  1.00  0.00     0.150 C 
HETATM    3  C   LIG     1      28.510  24.689  22.179  1.00  0.00     0.049 C 
HETATM    4  C   LIG     1      28.821  24.798  20.890  1.00  0.00     0.019 C 
HETATM    5  C   LIG     1      26.678  22.974  21.656  1.00  0.00     0.100 C 
HETATM    6  C   LIG     1      26.668  23.540  20.206  1.00  0.00     0.038 C 
HETATM    7  C   LIG     1      28.073  24.072  19.763  1.00  0.00     0.189 C 
HETATM    8  C   LIG     1      28.968  22.918  19.281  1.00  0.00     0.052 C 
HETATM    9  C   LIG     1      28.381  22.229  18.057  1.00  0.00     0.042 C 
HETATM   10  C   LIG     1      25.814  24.821  20.072  1.00  0.00     0.048 C 
HETATM   11  C   LIG     1      26.496  25.663  18.996  1.00  0.00     0.274 C 
HETATM   12  N   LIG     1      27.756  24.996  18.649  1.00  0.00     0.098 N 
HETATM   13  C   LIG     1      28.804  25.945  18.233  1.00  0.00     0.311 C 
HETATM   14  C   LIG     1      26.116  22.443  19.252  1.00  0.00    -0.004 A 
HETATM   15  C   LIG     1      26.933  21.866  18.240  1.00  0.00    -0.048 A 
HETATM   16  C   LIG     1      26.396  20.926  17.351  1.00  0.00     0.011 A 
HETATM   17  C   LIG     1      25.079  20.503  17.469  1.00  0.00     0.040 A 
HETATM   18  C   LIG     1      24.261  21.010  18.487  1.00  0.00     0.101 A 
HETATM   19  C   LIG     1      24.776  21.971  19.378  1.00  0.00     0.106 A 
ENDROOT
BRANCH  18  20
HETATM   20  O   LIG     1      22.931  20.585  18.642  1.00  0.00    -0.353 OA
HETATM   21  C   LIG     1      22.436  19.308  18.249  1.00  0.00     0.210 C 
ENDBRANCH  18  20
BRANCH  19  22
HETATM   22  O   LIG     1      23.951  22.462  20.393  1.00  0.00    -0.357 OA
HETATM   23  H   LIG     1      22.960  22.258  20.444  1.00  0.00     0.217 HD
ENDBRANCH  19  22
TORSDOF 2
ENDMDL
MODEL 16
REMARK VINA RESULT:      -4.2      2.843      4.816
REMARK  2 active torsions:
REMARK  status: ('A' for Active; 'I' for Inactive)
REMARK    1  A    between atoms: C_18  and  O_19 
REMARK    2  A    between atoms: C_21  and  O_22 
ROOT
HETATM    1  O   LIG     1      21.208  17.937  17.645  1.00  0.00    -0.293 OA
HETATM    2  C   LIG     1      22.220  18.666  17.821  1.00  0.00     0.150 C 
HETATM    3  C   LIG     1      23.171  18.857  16.731  1.00  0.00     0.049 C 
HETATM    4  C   LIG     1      24.290  19.556  16.902  1.00  0.00     0.019 C 
HETATM    5  C   LIG     1      22.398  19.394  19.115  1.00  0.00     0.100 C 
HETATM    6  C   LIG     1      23.890  19.682  19.454  1.00  0.00     0.038 C 
HETATM    7  C   LIG     1      24.685  20.233  18.221  1.00  0.00     0.189 C 
HETATM    8  C   LIG     1      24.456  21.745  18.054  1.00  0.00     0.052 C 
HETATM    9  C   LIG     1      24.966  22.524  19.258  1.00  0.00     0.042 C 
HETATM   10  C   LIG     1      24.690  18.396  19.766  1.00  0.00     0.048 C 
HETATM   11  C   LIG     1      26.110  18.661  19.273  1.00  0.00     0.274 C 
HETATM   12  N   LIG     1      26.097  19.947  18.567  1.00  0.00     0.098 N 
HETATM   13  C   LIG     1      27.090  20.007  17.478  1.00  0.00     0.311 C 
HETATM   14  C   LIG     1      23.944  20.640  20.677  1.00  0.00    -0.004 A 
HETATM   15  C   LIG     1      24.474  21.955  20.562  1.00  0.00    -0.048 A 
HETATM   16  C   LIG     1      24.571  22.777  21.691  1.00  0.00     0.011 A 
HETATM   17  C   LIG     1      24.108  22.349  22.928  1.00  0.00     0.040 A 
HETATM   18  C   LIG     1      23.530  21.081  23.067  1.00  0.00     0.101 A 
HETATM   19  C   LIG     1      23.442  20.231  21.948  1.00  0.00     0.106 A 
ENDROOT
BRANCH  18  20
HETATM   20  O   LIG     1      23.034  20.630  24.302  1.00  0.00    -0.353 OA
HETATM   21  C   LIG     1      23.520  21.051  25.573  1.00  0.00     0.210 C 
ENDBRANCH  18  20
BRANCH  19  22
HETATM   22  O   LIG     1      22.856  18.972  22.100  1.00  0.00    -0.357 OA
HETATM   23  H   LIG     1      22.199  18.586  21.432  1.00  0.00     0.217 HD
ENDBRANCH  19  22
TORSDOF 2
ENDMDL
MODEL 17
REMARK VINA RESULT:      -4.1      3.340      5.127
REMARK  2 active torsions:
REMARK  status: ('A' for Active; 'I' for Inactive)
REMARK    1  A    between atoms: C_18  and  O_19 
REMARK    2  A    between atoms: C_21  and  O_22 
ROOT
HETATM    1  O   LIG     1      29.936  20.192  19.457  1.00  0.00    -0.293 OA
HETATM    2  C   LIG     1      29.167  21.163  19.691  1.00  0.00     0.150 C 
HETATM    3  C   LIG     1      28.122  21.029  20.700  1.00  0.00     0.049 C 
HETATM    4  C   LIG     1      27.244  22.003  20.921  1.00  0.00     0.019 C 
HETATM    5  C   LIG     1      29.382  22.468  18.994  1.00  0.00     0.100 C 
HETATM    6  C   LIG     1      28.077  23.304  18.847  1.00  0.00     0.038 C 
HETATM    7  C   LIG     1      27.242  23.343  20.173  1.00  0.00     0.189 C 
HETATM    8  C   LIG     1      27.790  24.412  21.133  1.00  0.00     0.052 C 
HETATM    9  C   LIG     1      27.684  25.808  20.535  1.00  0.00     0.042 C 
HETATM   10  C   LIG     1      27.059  22.656  17.880  1.00  0.00     0.048 C 
HETATM   11  C   LIG     1      25.680  23.025  18.421  1.00  0.00     0.274 C 
HETATM   12  N   LIG     1      25.879  23.696  19.710  1.00  0.00     0.098 N 
HETATM   13  C   LIG     1      24.763  23.469  20.647  1.00  0.00     0.311 C 
HETATM   14  C   LIG     1      28.453  24.723  18.335  1.00  0.00    -0.004 A 
HETATM   15  C   LIG     1      28.236  25.878  19.136  1.00  0.00    -0.048 A 
HETATM   16  C   LIG     1      28.523  27.151  18.630  1.00  0.00     0.011 A 
HETATM   17  C   LIG     1      29.069  27.309  17.363  1.00  0.00     0.040 A 
HETATM   18  C   LIG     1      29.347  26.190  16.568  1.00  0.00     0.101 A 
HETATM   19  C   LIG     1      29.046  24.903  17.050  1.00  0.00     0.106 A 
ENDROOT
BRANCH  18  20
HETATM   20  O   LIG     1      29.919  26.319  15.291  1.00  0.00    -0.353 OA
HETATM   21  C   LIG     1      29.184  26.554  14.093  1.00  0.00     0.210 C 
ENDBRANCH  18  20
BRANCH  19  22
HETATM   22  O   LIG     1      29.336  23.796  16.249  1.00  0.00    -0.357 OA
HETATM   23  H   LIG     1      29.241  22.841  16.573  1.00  0.00     0.217 HD
ENDBRANCH  19  22
TORSDOF 2
ENDMDL
MODEL 18
REMARK VINA RESULT:      -4.0      3.287      5.746
REMARK  2 active torsions:
REMARK  status: ('A' for Active; 'I' for Inactive)
REMARK    1  A    between atoms: C_18  and  O_19 
REMARK    2  A    between atoms: C_21  and  O_22 
ROOT
HETATM    1  O   LIG     1      28.805  26.064  17.693  1.00  0.00    -0.293 OA
HETATM    2  C   LIG     1      27.958  25.237  18.124  1.00  0.00     0.150 C 
HETATM    3  C   LIG     1      27.036  25.633  19.183  1.00  0.00     0.049 C 
HETATM    4  C   LIG     1      26.179  24.766  19.716  1.00  0.00     0.019 C 
HETATM    5  C   LIG     1      27.848  23.885  17.493  1.00  0.00     0.100 C 
HETATM    6  C   LIG     1      27.301  22.800  18.466  1.00  0.00     0.038 C 
HETATM    7  C   LIG     1      26.058  23.300  19.278  1.00  0.00     0.189 C 
HETATM    8  C   LIG     1      24.772  23.168  18.446  1.00  0.00     0.052 C 
HETATM    9  C   LIG     1      24.480  21.716  18.094  1.00  0.00     0.042 C 
HETATM   10  C   LIG     1      28.288  22.474  19.611  1.00  0.00     0.048 C 
HETATM   11  C   LIG     1      27.420  22.124  20.818  1.00  0.00     0.274 C 
HETATM   12  N   LIG     1      26.026  22.393  20.450  1.00  0.00     0.098 N 
HETATM   13  C   LIG     1      25.203  22.801  21.604  1.00  0.00     0.311 C 
HETATM   14  C   LIG     1      27.004  21.510  17.651  1.00  0.00    -0.004 A 
HETATM   15  C   LIG     1      25.678  21.013  17.514  1.00  0.00    -0.048 A 
HETATM   16  C   LIG     1      25.441  19.815  16.829  1.00  0.00     0.011 A 
HETATM   17  C   LIG     1      26.481  19.118  16.230  1.00  0.00     0.040 A 
HETATM   18  C   LIG     1      27.792  19.606  16.298  1.00  0.00     0.101 A 
HETATM   19  C   LIG     1      28.054  20.798  17.000  1.00  0.00     0.106 A 
ENDROOT
BRANCH  18  20
HETATM   20  O   LIG     1      28.861  18.932  15.683  1.00  0.00    -0.353 OA
HETATM   21  C   LIG     1      28.728  18.020  14.597  1.00  0.00     0.210 C 
ENDBRANCH  18  20
BRANCH  19  22
HETATM   22  O   LIG     1      29.366  21.277  17.052  1.00  0.00    -0.357 OA
HETATM   23  H   LIG     1      30.172  20.696  16.859  1.00  0.00     0.217 HD
ENDBRANCH  19  22
TORSDOF 2
ENDMDL
MODEL 19
REMARK VINA RESULT:      -4.0     11.463     13.697
REMARK  2 active torsions:
REMARK  status: ('A' for Active; 'I' for Inactive)
REMARK    1  A    between atoms: C_18  and  O_19 
REMARK    2  A    between atoms: C_21  and  O_22 
ROOT
HETATM    1  O   LIG     1      27.374  25.400  28.150  1.00  0.00    -0.293 OA
HETATM    2  C   LIG     1      27.475  25.975  29.267  1.00  0.00     0.150 C 
HETATM    3  C   LIG     1      27.634  27.424  29.320  1.00  0.00     0.049 C 
HETATM    4  C   LIG     1      27.820  28.059  30.475  1.00  0.00     0.019 C 
HETATM    5  C   LIG     1      27.349  25.181  30.528  1.00  0.00     0.100 C 
HETATM    6  C   LIG     1      28.114  25.815  31.727  1.00  0.00     0.038 C 
HETATM    7  C   LIG     1      27.870  27.359  31.839  1.00  0.00     0.189 C 
HETATM    8  C   LIG     1      26.544  27.652  32.561  1.00  0.00     0.052 C 
HETATM    9  C   LIG     1      26.558  27.129  33.990  1.00  0.00     0.042 C 
HETATM   10  C   LIG     1      29.648  25.774  31.545  1.00  0.00     0.048 C 
HETATM   11  C   LIG     1      30.182  27.027  32.234  1.00  0.00     0.274 C 
HETATM   12  N   LIG     1      29.024  27.831  32.641  1.00  0.00     0.098 N 
HETATM   13  C   LIG     1      29.308  29.278  32.637  1.00  0.00     0.311 C 
HETATM   14  C   LIG     1      27.721  25.052  33.023  1.00  0.00    -0.004 A 
HETATM   15  C   LIG     1      27.015  25.698  34.075  1.00  0.00    -0.048 A 
HETATM   16  C   LIG     1      26.729  25.008  35.260  1.00  0.00     0.011 A 
HETATM   17  C   LIG     1      27.080  23.674  35.411  1.00  0.00     0.040 A 
HETATM   18  C   LIG     1      27.728  22.990  34.374  1.00  0.00     0.101 A 
HETATM   19  C   LIG     1      28.044  23.671  33.184  1.00  0.00     0.106 A 
ENDROOT
BRANCH  18  20
HETATM   20  O   LIG     1      28.076  21.634  34.493  1.00  0.00    -0.353 OA
HETATM   21  C   LIG     1      27.182  20.545  34.281  1.00  0.00     0.210 C 
ENDBRANCH  18  20
BRANCH  19  22
HETATM   22  O   LIG     1      28.683  22.974  32.155  1.00  0.00    -0.357 OA
HETATM   23  H   LIG     1      28.373  23.009  31.191  1.00  0.00     0.217 HD
ENDBRANCH  19  22
TORSDOF 2
ENDMDL
MODEL 20
REMARK VINA RESULT:      -3.9      3.022      4.311
REMARK  2 active torsions:
REMARK  status: ('A' for Active; 'I' for Inactive)
REMARK    1  A    between atoms: C_18  and  O_19 
REMARK    2  A    between atoms: C_21  and  O_22 
ROOT
HETATM    1  O   LIG     1      28.880  25.558  25.880  1.00  0.00    -0.293 OA
HETATM    2  C   LIG     1      28.392  24.733  25.062  1.00  0.00     0.150 C 
HETATM    3  C   LIG     1      28.082  23.377  25.502  1.00  0.00     0.049 C 
HETATM    4  C   LIG     1      27.638  22.456  24.651  1.00  0.00     0.019 C 
HETATM    5  C   LIG     1      28.059  25.171  23.671  1.00  0.00     0.100 C 
HETATM    6  C   LIG     1      28.110  24.009  22.637  1.00  0.00     0.038 C 
HETATM    7  C   LIG     1      27.394  22.716  23.158  1.00  0.00     0.189 C 
HETATM    8  C   LIG     1      25.874  22.807  22.944  1.00  0.00     0.052 C 
HETATM    9  C   LIG     1      25.523  22.909  21.466  1.00  0.00     0.042 C 
HETATM   10  C   LIG     1      29.543  23.478  22.406  1.00  0.00     0.048 C 
HETATM   11  C   LIG     1      29.391  21.987  22.112  1.00  0.00     0.274 C 
HETATM   12  N   LIG     1      27.982  21.639  22.325  1.00  0.00     0.098 N 
HETATM   13  C   LIG     1      27.804  20.250  22.786  1.00  0.00     0.311 C 
HETATM   14  C   LIG     1      27.520  24.518  21.292  1.00  0.00    -0.004 A 
HETATM   15  C   LIG     1      26.322  23.969  20.756  1.00  0.00    -0.048 A 
HETATM   16  C   LIG     1      25.844  24.398  19.512  1.00  0.00     0.011 A 
HETATM   17  C   LIG     1      26.496  25.398  18.803  1.00  0.00     0.040 A 
HETATM   18  C   LIG     1      27.648  26.000  19.326  1.00  0.00     0.101 A 
HETATM   19  C   LIG     1      28.157  25.567  20.565  1.00  0.00     0.106 A 
ENDROOT
BRANCH  18  20
HETATM   20  O   LIG     1      28.316  27.028  18.640  1.00  0.00    -0.353 OA
HETATM   21  C   LIG     1      29.185  26.830  17.528  1.00  0.00     0.210 C 
ENDBRANCH  18  20
BRANCH  19  22
HETATM   22  O   LIG     1      29.302  26.182  21.077  1.00  0.00    -0.357 OA
HETATM   23  H   LIG     1      29.337  27.165  21.320  1.00  0.00     0.217 HD
ENDBRANCH  19  22
TORSDOF 2
ENDMDL
