REMARK  0 active torsions:
REMARK  status: ('A' for Active; 'I' for Inactive)
ROOT
HETATM    1  C   LIG     1      -2.301  -1.183   1.101  1.00  0.00     0.046 C 
HETATM    2  C   LIG     1      -1.181  -0.428   0.377  1.00  0.00     0.058 C 
HETATM    3  C   LIG     1      -1.334   1.105   0.595  1.00  0.00     0.038 C 
HETATM    4  C   LIG     1      -0.217   1.857  -0.170  1.00  0.00     0.010 C 
HETATM    5  C   LIG     1      -1.226  -0.729  -1.149  1.00  0.00     0.038 C 
HETATM    6  C   LIG     1      -0.112   0.066  -1.873  1.00  0.00     0.010 C 
HETATM    7  C   LIG     1       0.734   0.826  -0.823  1.00  0.00     0.020 C 
HETATM    8  C   LIG     1       1.195  -0.200   0.284  1.00  0.00     0.058 C 
HETATM    9  O   LIG     1       0.077  -0.854   0.902  1.00  0.00    -0.370 OA
HETATM   10  C   LIG     1       2.109  -1.285  -0.324  1.00  0.00     0.046 C 
HETATM   11  C   LIG     1       2.003   0.515   1.388  1.00  0.00     0.046 C 
ENDROOT
TORSDOF 0
