MODEL 1
REMARK VINA RESULT:      -5.3      0.000      0.000
REMARK  0 active torsions:
REMARK  status: ('A' for Active; 'I' for Inactive)
ROOT
HETATM    1  C   LIG     1      19.006  38.927  21.211  1.00  0.00     0.046 C 
HETATM    2  C   LIG     1      17.912  38.344  22.111  1.00  0.00     0.058 C 
HETATM    3  C   LIG     1      16.637  39.234  22.057  1.00  0.00     0.038 C 
HETATM    4  C   LIG     1      15.552  38.653  22.998  1.00  0.00     0.010 C 
HETATM    5  C   LIG     1      18.411  38.263  23.583  1.00  0.00     0.038 C 
HETATM    6  C   LIG     1      17.285  37.705  24.488  1.00  0.00     0.010 C 
HETATM    7  C   LIG     1      16.067  37.328  23.609  1.00  0.00     0.020 C 
HETATM    8  C   LIG     1      16.567  36.397  22.437  1.00  0.00     0.058 C 
HETATM    9  O   LIG     1      17.588  37.030  21.653  1.00  0.00    -0.370 OA
HETATM   10  C   LIG     1      17.140  35.077  22.995  1.00  0.00     0.046 C 
HETATM   11  C   LIG     1      15.399  36.030  21.497  1.00  0.00     0.046 C 
ENDROOT
TORSDOF 0
ENDMDL
MODEL 2
REMARK VINA RESULT:      -5.3      1.105      3.038
REMARK  0 active torsions:
REMARK  status: ('A' for Active; 'I' for Inactive)
ROOT
HETATM    1  C   LIG     1      16.747  35.021  21.968  1.00  0.00     0.046 C 
HETATM    2  C   LIG     1      16.875  36.518  22.269  1.00  0.00     0.058 C 
HETATM    3  C   LIG     1      15.467  37.177  22.345  1.00  0.00     0.038 C 
HETATM    4  C   LIG     1      15.613  38.695  22.615  1.00  0.00     0.010 C 
HETATM    5  C   LIG     1      17.704  37.224  21.157  1.00  0.00     0.038 C 
HETATM    6  C   LIG     1      17.797  38.740  21.454  1.00  0.00     0.010 C 
HETATM    7  C   LIG     1      17.109  39.035  22.809  1.00  0.00     0.020 C 
HETATM    8  C   LIG     1      17.707  38.058  23.895  1.00  0.00     0.058 C 
HETATM    9  O   LIG     1      17.538  36.682  23.523  1.00  0.00    -0.370 OA
HETATM   10  C   LIG     1      19.215  38.320  24.094  1.00  0.00     0.046 C 
HETATM   11  C   LIG     1      17.019  38.273  25.260  1.00  0.00     0.046 C 
ENDROOT
TORSDOF 0
ENDMDL
MODEL 3
REMARK VINA RESULT:      -5.0      1.067      2.418
REMARK  0 active torsions:
REMARK  status: ('A' for Active; 'I' for Inactive)
ROOT
HETATM    1  C   LIG     1      19.192  38.851  21.309  1.00  0.00     0.046 C 
HETATM    2  C   LIG     1      17.963  38.316  22.053  1.00  0.00     0.058 C 
HETATM    3  C   LIG     1      17.391  37.067  21.323  1.00  0.00     0.038 C 
HETATM    4  C   LIG     1      16.130  36.558  22.065  1.00  0.00     0.010 C 
HETATM    5  C   LIG     1      16.859  39.409  22.127  1.00  0.00     0.038 C 
HETATM    6  C   LIG     1      15.611  38.846  22.850  1.00  0.00     0.010 C 
HETATM    7  C   LIG     1      15.913  37.408  23.339  1.00  0.00     0.020 C 
HETATM    8  C   LIG     1      17.262  37.433  24.159  1.00  0.00     0.058 C 
HETATM    9  O   LIG     1      18.350  37.949  23.378  1.00  0.00    -0.370 OA
HETATM   10  C   LIG     1      17.118  38.312  25.420  1.00  0.00     0.046 C 
HETATM   11  C   LIG     1      17.640  36.013  24.630  1.00  0.00     0.046 C 
ENDROOT
TORSDOF 0
ENDMDL
MODEL 4
REMARK VINA RESULT:      -4.8      1.560      3.126
REMARK  0 active torsions:
REMARK  status: ('A' for Active; 'I' for Inactive)
ROOT
HETATM    1  C   LIG     1      15.652  38.526  22.751  1.00  0.00     0.046 C 
HETATM    2  C   LIG     1      16.236  37.190  22.278  1.00  0.00     0.058 C 
HETATM    3  C   LIG     1      16.650  36.319  23.498  1.00  0.00     0.038 C 
HETATM    4  C   LIG     1      17.270  34.988  23.006  1.00  0.00     0.010 C 
HETATM    5  C   LIG     1      17.485  37.433  21.382  1.00  0.00     0.038 C 
HETATM    6  C   LIG     1      18.085  36.077  20.940  1.00  0.00     0.010 C 
HETATM    7  C   LIG     1      17.186  34.929  21.462  1.00  0.00     0.020 C 
HETATM    8  C   LIG     1      15.698  35.225  21.030  1.00  0.00     0.058 C 
HETATM    9  O   LIG     1      15.244  36.496  21.520  1.00  0.00    -0.370 OA
HETATM   10  C   LIG     1      15.566  35.230  19.492  1.00  0.00     0.046 C 
HETATM   11  C   LIG     1      14.746  34.136  21.569  1.00  0.00     0.046 C 
ENDROOT
TORSDOF 0
ENDMDL
MODEL 5
REMARK VINA RESULT:      -4.6      0.938      3.306
REMARK  0 active torsions:
REMARK  status: ('A' for Active; 'I' for Inactive)
ROOT
HETATM    1  C   LIG     1      17.107  34.959  22.313  1.00  0.00     0.046 C 
HETATM    2  C   LIG     1      17.012  36.453  22.644  1.00  0.00     0.058 C 
HETATM    3  C   LIG     1      17.115  36.674  24.181  1.00  0.00     0.038 C 
HETATM    4  C   LIG     1      16.984  38.183  24.503  1.00  0.00     0.010 C 
HETATM    5  C   LIG     1      15.659  37.033  22.139  1.00  0.00     0.038 C 
HETATM    6  C   LIG     1      15.562  38.533  22.510  1.00  0.00     0.010 C 
HETATM    7  C   LIG     1      16.884  38.978  23.180  1.00  0.00     0.020 C 
HETATM    8  C   LIG     1      18.084  38.551  22.248  1.00  0.00     0.058 C 
HETATM    9  O   LIG     1      18.086  37.138  21.998  1.00  0.00    -0.370 OA
HETATM   10  C   LIG     1      18.006  39.278  20.889  1.00  0.00     0.046 C 
HETATM   11  C   LIG     1      19.436  38.925  22.893  1.00  0.00     0.046 C 
ENDROOT
TORSDOF 0
ENDMDL
MODEL 6
REMARK VINA RESULT:      -4.5      1.219      2.810
REMARK  0 active torsions:
REMARK  status: ('A' for Active; 'I' for Inactive)
ROOT
HETATM    1  C   LIG     1      18.258  37.019  25.322  1.00  0.00     0.046 C 
HETATM    2  C   LIG     1      17.478  36.985  24.003  1.00  0.00     0.058 C 
HETATM    3  C   LIG     1      16.170  37.819  24.127  1.00  0.00     0.038 C 
HETATM    4  C   LIG     1      15.376  37.748  22.799  1.00  0.00     0.010 C 
HETATM    5  C   LIG     1      17.110  35.519  23.632  1.00  0.00     0.038 C 
HETATM    6  C   LIG     1      16.293  35.502  22.316  1.00  0.00     0.010 C 
HETATM    7  C   LIG     1      16.193  36.943  21.761  1.00  0.00     0.020 C 
HETATM    8  C   LIG     1      17.647  37.552  21.689  1.00  0.00     0.058 C 
HETATM    9  O   LIG     1      18.293  37.540  22.970  1.00  0.00    -0.370 OA
HETATM   10  C   LIG     1      18.525  36.754  20.702  1.00  0.00     0.046 C 
HETATM   11  C   LIG     1      17.603  39.011  21.187  1.00  0.00     0.046 C 
ENDROOT
TORSDOF 0
ENDMDL
MODEL 7
REMARK VINA RESULT:      -4.1     18.267     20.120
REMARK  0 active torsions:
REMARK  status: ('A' for Active; 'I' for Inactive)
ROOT
HETATM    1  C   LIG     1      23.731  22.940  35.509  1.00  0.00     0.046 C 
HETATM    2  C   LIG     1      22.237  22.603  35.439  1.00  0.00     0.058 C 
HETATM    3  C   LIG     1      21.390  23.783  35.995  1.00  0.00     0.038 C 
HETATM    4  C   LIG     1      19.886  23.415  35.950  1.00  0.00     0.010 C 
HETATM    5  C   LIG     1      21.933  21.324  36.272  1.00  0.00     0.038 C 
HETATM    6  C   LIG     1      20.417  21.014  36.221  1.00  0.00     0.010 C 
HETATM    7  C   LIG     1      19.722  22.029  35.281  1.00  0.00     0.020 C 
HETATM    8  C   LIG     1      20.494  22.044  33.904  1.00  0.00     0.058 C 
HETATM    9  O   LIG     1      21.881  22.370  34.075  1.00  0.00    -0.370 OA
HETATM   10  C   LIG     1      20.406  20.666  33.214  1.00  0.00     0.046 C 
HETATM   11  C   LIG     1      19.873  23.080  32.942  1.00  0.00     0.046 C 
ENDROOT
TORSDOF 0
ENDMDL
MODEL 8
REMARK VINA RESULT:      -4.0      1.335      3.283
REMARK  0 active torsions:
REMARK  status: ('A' for Active; 'I' for Inactive)
ROOT
HETATM    1  C   LIG     1      18.526  36.497  19.628  1.00  0.00     0.046 C 
HETATM    2  C   LIG     1      17.548  36.364  20.800  1.00  0.00     0.058 C 
HETATM    3  C   LIG     1      17.990  35.210  21.745  1.00  0.00     0.038 C 
HETATM    4  C   LIG     1      16.975  35.064  22.905  1.00  0.00     0.010 C 
HETATM    5  C   LIG     1      16.114  36.067  20.275  1.00  0.00     0.038 C 
HETATM    6  C   LIG     1      15.142  35.901  21.470  1.00  0.00     0.010 C 
HETATM    7  C   LIG     1      15.906  36.177  22.788  1.00  0.00     0.020 C 
HETATM    8  C   LIG     1      16.643  37.566  22.656  1.00  0.00     0.058 C 
HETATM    9  O   LIG     1      17.535  37.591  21.532  1.00  0.00    -0.370 OA
HETATM   10  C   LIG     1      15.623  38.712  22.484  1.00  0.00     0.046 C 
HETATM   11  C   LIG     1      17.465  37.870  23.927  1.00  0.00     0.046 C 
ENDROOT
TORSDOF 0
ENDMDL
MODEL 9
REMARK VINA RESULT:      -4.0     19.191     20.847
REMARK  0 active torsions:
REMARK  status: ('A' for Active; 'I' for Inactive)
ROOT
HETATM    1  C   LIG     1      21.063  19.775  35.240  1.00  0.00     0.046 C 
HETATM    2  C   LIG     1      21.327  21.278  35.372  1.00  0.00     0.058 C 
HETATM    3  C   LIG     1      20.124  21.981  36.064  1.00  0.00     0.038 C 
HETATM    4  C   LIG     1      20.390  23.503  36.159  1.00  0.00     0.010 C 
HETATM    5  C   LIG     1      21.544  21.913  33.967  1.00  0.00     0.038 C 
HETATM    6  C   LIG     1      21.776  23.437  34.111  1.00  0.00     0.010 C 
HETATM    7  C   LIG     1      21.806  23.807  35.614  1.00  0.00     0.020 C 
HETATM    8  C   LIG     1      22.835  22.857  36.341  1.00  0.00     0.058 C 
HETATM    9  O   LIG     1      22.502  21.473  36.160  1.00  0.00    -0.370 OA
HETATM   10  C   LIG     1      24.263  23.082  35.798  1.00  0.00     0.046 C 
HETATM   11  C   LIG     1      22.870  23.148  37.857  1.00  0.00     0.046 C 
ENDROOT
TORSDOF 0
ENDMDL
MODEL 10
REMARK VINA RESULT:      -3.8     17.589     18.993
REMARK  0 active torsions:
REMARK  status: ('A' for Active; 'I' for Inactive)
ROOT
HETATM    1  C   LIG     1      27.901  31.038  33.766  1.00  0.00     0.046 C 
HETATM    2  C   LIG     1      27.592  30.713  35.231  1.00  0.00     0.058 C 
HETATM    3  C   LIG     1      27.834  29.202  35.513  1.00  0.00     0.038 C 
HETATM    4  C   LIG     1      27.486  28.882  36.987  1.00  0.00     0.010 C 
HETATM    5  C   LIG     1      26.111  31.059  35.561  1.00  0.00     0.038 C 
HETATM    6  C   LIG     1      25.803  30.694  37.034  1.00  0.00     0.010 C 
HETATM    7  C   LIG     1      27.099  30.191  37.714  1.00  0.00     0.020 C 
HETATM    8  C   LIG     1      28.238  31.255  37.466  1.00  0.00     0.058 C 
HETATM    9  O   LIG     1      28.452  31.490  36.067  1.00  0.00    -0.370 OA
HETATM   10  C   LIG     1      27.881  32.603  38.129  1.00  0.00     0.046 C 
HETATM   11  C   LIG     1      29.572  30.780  38.082  1.00  0.00     0.046 C 
ENDROOT
TORSDOF 0
ENDMDL
MODEL 11
REMARK VINA RESULT:      -3.8     18.205     20.233
REMARK  0 active torsions:
REMARK  status: ('A' for Active; 'I' for Inactive)
ROOT
HETATM    1  C   LIG     1      19.742  23.096  32.703  1.00  0.00     0.046 C 
HETATM    2  C   LIG     1      20.456  22.496  33.919  1.00  0.00     0.058 C 
HETATM    3  C   LIG     1      21.320  21.275  33.491  1.00  0.00     0.038 C 
HETATM    4  C   LIG     1      22.007  20.657  34.733  1.00  0.00     0.010 C 
HETATM    5  C   LIG     1      19.416  22.033  34.980  1.00  0.00     0.038 C 
HETATM    6  C   LIG     1      20.148  21.397  36.188  1.00  0.00     0.010 C 
HETATM    7  C   LIG     1      21.676  21.517  35.976  1.00  0.00     0.020 C 
HETATM    8  C   LIG     1      22.018  23.023  35.648  1.00  0.00     0.058 C 
HETATM    9  O   LIG     1      21.302  23.491  34.495  1.00  0.00    -0.370 OA
HETATM   10  C   LIG     1      21.660  23.936  36.839  1.00  0.00     0.046 C 
HETATM   11  C   LIG     1      23.528  23.193  35.376  1.00  0.00     0.046 C 
ENDROOT
TORSDOF 0
ENDMDL
MODEL 12
REMARK VINA RESULT:      -3.8     15.733     17.511
REMARK  0 active torsions:
REMARK  status: ('A' for Active; 'I' for Inactive)
ROOT
HETATM    1  C   LIG     1      25.870  23.557  18.631  1.00  0.00     0.046 C 
HETATM    2  C   LIG     1      24.949  22.528  19.296  1.00  0.00     0.058 C 
HETATM    3  C   LIG     1      25.758  21.264  19.707  1.00  0.00     0.038 C 
HETATM    4  C   LIG     1      24.809  20.220  20.346  1.00  0.00     0.010 C 
HETATM    5  C   LIG     1      23.814  22.107  18.318  1.00  0.00     0.038 C 
HETATM    6  C   LIG     1      22.912  21.043  18.989  1.00  0.00     0.010 C 
HETATM    7  C   LIG     1      23.386  20.820  20.445  1.00  0.00     0.020 C 
HETATM    8  C   LIG     1      23.484  22.224  21.159  1.00  0.00     0.058 C 
HETATM    9  O   LIG     1      24.368  23.114  20.462  1.00  0.00    -0.370 OA
HETATM   10  C   LIG     1      22.096  22.893  21.240  1.00  0.00     0.046 C 
HETATM   11  C   LIG     1      24.003  22.067  22.604  1.00  0.00     0.046 C 
ENDROOT
TORSDOF 0
ENDMDL
MODEL 13
REMARK VINA RESULT:      -3.8     17.479     18.819
REMARK  0 active torsions:
REMARK  status: ('A' for Active; 'I' for Inactive)
ROOT
HETATM    1  C   LIG     1      26.310  31.966  38.129  1.00  0.00     0.046 C 
HETATM    2  C   LIG     1      26.727  30.923  37.086  1.00  0.00     0.058 C 
HETATM    3  C   LIG     1      25.809  31.016  35.833  1.00  0.00     0.038 C 
HETATM    4  C   LIG     1      26.218  29.934  34.803  1.00  0.00     0.010 C 
HETATM    5  C   LIG     1      26.624  29.491  37.685  1.00  0.00     0.038 C 
HETATM    6  C   LIG     1      27.014  28.445  36.611  1.00  0.00     0.010 C 
HETATM    7  C   LIG     1      27.465  29.181  35.326  1.00  0.00     0.020 C 
HETATM    8  C   LIG     1      28.563  30.244  35.718  1.00  0.00     0.058 C 
HETATM    9  O   LIG     1      28.078  31.173  36.698  1.00  0.00    -0.370 OA
HETATM   10  C   LIG     1      29.814  29.548  36.295  1.00  0.00     0.046 C 
HETATM   11  C   LIG     1      29.015  31.045  34.479  1.00  0.00     0.046 C 
ENDROOT
TORSDOF 0
ENDMDL
MODEL 14
REMARK VINA RESULT:      -3.7     15.856     17.368
REMARK  0 active torsions:
REMARK  status: ('A' for Active; 'I' for Inactive)
ROOT
HETATM    1  C   LIG     1      23.072  21.034  18.360  1.00  0.00     0.046 C 
HETATM    2  C   LIG     1      23.374  21.613  19.747  1.00  0.00     0.058 C 
HETATM    3  C   LIG     1      22.188  22.496  20.234  1.00  0.00     0.038 C 
HETATM    4  C   LIG     1      22.521  23.101  21.620  1.00  0.00     0.010 C 
HETATM    5  C   LIG     1      24.665  22.481  19.701  1.00  0.00     0.038 C 
HETATM    6  C   LIG     1      24.939  23.087  21.099  1.00  0.00     0.010 C 
HETATM    7  C   LIG     1      23.886  22.553  22.100  1.00  0.00     0.020 C 
HETATM    8  C   LIG     1      23.855  20.978  21.999  1.00  0.00     0.058 C 
HETATM    9  O   LIG     1      23.565  20.536  20.665  1.00  0.00    -0.370 OA
HETATM   10  C   LIG     1      25.213  20.378  22.419  1.00  0.00     0.046 C 
HETATM   11  C   LIG     1      22.782  20.392  22.942  1.00  0.00     0.046 C 
ENDROOT
TORSDOF 0
ENDMDL
MODEL 15
REMARK VINA RESULT:      -3.6     19.250     20.667
REMARK  0 active torsions:
REMARK  status: ('A' for Active; 'I' for Inactive)
ROOT
HETATM    1  C   LIG     1      21.552  19.950  32.713  1.00  0.00     0.046 C 
HETATM    2  C   LIG     1      21.012  20.842  33.836  1.00  0.00     0.058 C 
HETATM    3  C   LIG     1      20.158  20.002  34.830  1.00  0.00     0.038 C 
HETATM    4  C   LIG     1      19.590  20.921  35.939  1.00  0.00     0.010 C 
HETATM    5  C   LIG     1      20.128  21.978  33.245  1.00  0.00     0.038 C 
HETATM    6  C   LIG     1      19.560  22.851  34.391  1.00  0.00     0.010 C 
HETATM    7  C   LIG     1      20.136  22.355  35.740  1.00  0.00     0.020 C 
HETATM    8  C   LIG     1      21.708  22.278  35.614  1.00  0.00     0.058 C 
HETATM    9  O   LIG     1      22.114  21.421  34.536  1.00  0.00    -0.370 OA
HETATM   10  C   LIG     1      22.304  23.679  35.362  1.00  0.00     0.046 C 
HETATM   11  C   LIG     1      22.334  21.740  36.918  1.00  0.00     0.046 C 
ENDROOT
TORSDOF 0
ENDMDL
MODEL 16
REMARK VINA RESULT:      -3.6     19.075     20.530
REMARK  0 active torsions:
REMARK  status: ('A' for Active; 'I' for Inactive)
ROOT
HETATM    1  C   LIG     1      23.922  22.623  36.094  1.00  0.00     0.046 C 
HETATM    2  C   LIG     1      22.445  22.594  35.684  1.00  0.00     0.058 C 
HETATM    3  C   LIG     1      22.285  23.053  34.206  1.00  0.00     0.038 C 
HETATM    4  C   LIG     1      20.786  23.052  33.817  1.00  0.00     0.010 C 
HETATM    5  C   LIG     1      21.612  23.537  36.600  1.00  0.00     0.038 C 
HETATM    6  C   LIG     1      20.130  23.525  36.155  1.00  0.00     0.010 C 
HETATM    7  C   LIG     1      19.954  22.507  35.002  1.00  0.00     0.020 C 
HETATM    8  C   LIG     1      20.573  21.128  35.456  1.00  0.00     0.058 C 
HETATM    9  O   LIG     1      21.955  21.259  35.818  1.00  0.00    -0.370 OA
HETATM   10  C   LIG     1      19.810  20.561  36.672  1.00  0.00     0.046 C 
HETATM   11  C   LIG     1      20.471  20.085  34.322  1.00  0.00     0.046 C 
ENDROOT
TORSDOF 0
ENDMDL
MODEL 17
REMARK VINA RESULT:      -3.6     15.791     17.614
REMARK  0 active torsions:
REMARK  status: ('A' for Active; 'I' for Inactive)
ROOT
HETATM    1  C   LIG     1      22.059  22.808  21.258  1.00  0.00     0.046 C 
HETATM    2  C   LIG     1      23.229  22.212  20.467  1.00  0.00     0.058 C 
HETATM    3  C   LIG     1      22.811  21.959  18.990  1.00  0.00     0.038 C 
HETATM    4  C   LIG     1      23.991  21.326  18.212  1.00  0.00     0.010 C 
HETATM    5  C   LIG     1      23.681  20.866  21.103  1.00  0.00     0.038 C 
HETATM    6  C   LIG     1      24.840  20.258  20.276  1.00  0.00     0.010 C 
HETATM    7  C   LIG     1      25.224  21.240  19.142  1.00  0.00     0.020 C 
HETATM    8  C   LIG     1      25.471  22.663  19.777  1.00  0.00     0.058 C 
HETATM    9  O   LIG     1      24.321  23.133  20.495  1.00  0.00    -0.370 OA
HETATM   10  C   LIG     1      26.664  22.625  20.756  1.00  0.00     0.046 C 
HETATM   11  C   LIG     1      25.810  23.698  18.683  1.00  0.00     0.046 C 
ENDROOT
TORSDOF 0
ENDMDL
MODEL 18
REMARK VINA RESULT:      -3.6     15.992     18.143
REMARK  0 active torsions:
REMARK  status: ('A' for Active; 'I' for Inactive)
ROOT
HETATM    1  C   LIG     1      23.066  18.397  20.078  1.00  0.00     0.046 C 
HETATM    2  C   LIG     1      23.486  19.864  19.931  1.00  0.00     0.058 C 
HETATM    3  C   LIG     1      22.834  20.488  18.664  1.00  0.00     0.038 C 
HETATM    4  C   LIG     1      23.294  21.959  18.509  1.00  0.00     0.010 C 
HETATM    5  C   LIG     1      25.034  19.973  19.809  1.00  0.00     0.038 C 
HETATM    6  C   LIG     1      25.442  21.455  19.627  1.00  0.00     0.010 C 
HETATM    7  C   LIG     1      24.178  22.345  19.718  1.00  0.00     0.020 C 
HETATM    8  C   LIG     1      23.403  21.977  21.043  1.00  0.00     0.058 C 
HETATM    9  O   LIG     1      23.055  20.585  21.086  1.00  0.00    -0.370 OA
HETATM   10  C   LIG     1      24.263  22.295  22.285  1.00  0.00     0.046 C 
HETATM   11  C   LIG     1      22.103  22.801  21.161  1.00  0.00     0.046 C 
ENDROOT
TORSDOF 0
ENDMDL
MODEL 19
REMARK VINA RESULT:      -3.5     15.587     17.399
REMARK  0 active torsions:
REMARK  status: ('A' for Active; 'I' for Inactive)
ROOT
HETATM    1  C   LIG     1      26.536  23.221  21.693  1.00  0.00     0.046 C 
HETATM    2  C   LIG     1      25.297  22.319  21.698  1.00  0.00     0.058 C 
HETATM    3  C   LIG     1      24.733  22.182  23.141  1.00  0.00     0.038 C 
HETATM    4  C   LIG     1      23.503  21.242  23.136  1.00  0.00     0.010 C 
HETATM    5  C   LIG     1      25.657  20.905  21.159  1.00  0.00     0.038 C 
HETATM    6  C   LIG     1      24.405  19.994  21.200  1.00  0.00     0.010 C 
HETATM    7  C   LIG     1      23.190  20.823  21.680  1.00  0.00     0.020 C 
HETATM    8  C   LIG     1      23.094  22.126  20.795  1.00  0.00     0.058 C 
HETATM    9  O   LIG     1      24.300  22.902  20.857  1.00  0.00    -0.370 OA
HETATM   10  C   LIG     1      22.831  21.765  19.318  1.00  0.00     0.046 C 
HETATM   11  C   LIG     1      21.925  23.019  21.264  1.00  0.00     0.046 C 
ENDROOT
TORSDOF 0
ENDMDL
