MODEL 1
REMARK VINA RESULT:      -6.0      0.000      0.000
REMARK  1 active torsions:
REMARK  status: ('A' for Active; 'I' for Inactive)
REMARK    1  A    between atoms: O_1  and  C_2 
ROOT
HETATM    1  C   LIG     1      28.239  27.605  29.696  1.00  0.00     0.066 A 
HETATM    2  C   LIG     1      27.325  27.251  30.695  1.00  0.00     0.044 A 
HETATM    3  C   LIG     1      27.468  27.757  31.995  1.00  0.00    -0.045 A 
HETATM    4  C   LIG     1      26.505  27.338  33.080  1.00  0.00     0.066 C 
HETATM    5  C   LIG     1      26.299  28.458  34.063  1.00  0.00    -0.018 C 
HETATM    6  C   LIG     1      27.321  29.269  34.398  1.00  0.00    -0.070 C 
HETATM    7  C   LIG     1      28.703  29.083  33.759  1.00  0.00     0.048 C 
HETATM    8  C   LIG     1      29.590  30.365  33.921  1.00  0.00     0.015 C 
HETATM    9  C   LIG     1      29.576  31.037  35.332  1.00  0.00     0.018 C 
HETATM   10  C   LIG     1      28.342  30.655  36.191  1.00  0.00     0.024 C 
HETATM   11  C   LIG     1      28.648  29.412  37.068  1.00  0.00     0.024 C 
HETATM   12  C   LIG     1      27.134  30.485  35.265  1.00  0.00     0.031 C 
HETATM   13  C   LIG     1      25.902  30.651  36.160  1.00  0.00     0.018 C 
HETATM   14  C   LIG     1      26.324  31.751  37.147  1.00  0.00     0.080 C 
HETATM   15  C   LIG     1      27.820  31.719  37.101  1.00  0.00     0.136 C 
HETATM   16  O   LIG     1      28.531  32.446  37.778  1.00  0.00    -0.297 OA
HETATM   17  C   LIG     1      28.545  28.619  32.310  1.00  0.00    -0.043 A 
HETATM   18  C   LIG     1      29.468  28.948  31.297  1.00  0.00     0.011 A 
HETATM   19  C   LIG     1      29.306  28.452  30.001  1.00  0.00     0.037 A 
ENDROOT
BRANCH   1  20
HETATM   20  O   LIG     1      28.099  27.115  28.400  1.00  0.00    -0.361 OA
HETATM   21  H   LIG     1      27.524  26.305  28.198  1.00  0.00     0.217 HD
ENDBRANCH   1  20
TORSDOF 1
ENDMDL
MODEL 2
REMARK VINA RESULT:      -5.8      0.994      6.584
REMARK  1 active torsions:
REMARK  status: ('A' for Active; 'I' for Inactive)
REMARK    1  A    between atoms: O_1  and  C_2 
ROOT
HETATM    1  C   LIG     1      27.212  31.597  37.121  1.00  0.00     0.066 A 
HETATM    2  C   LIG     1      28.427  31.444  36.443  1.00  0.00     0.044 A 
HETATM    3  C   LIG     1      28.552  30.491  35.422  1.00  0.00    -0.045 A 
HETATM    4  C   LIG     1      29.876  30.299  34.724  1.00  0.00     0.066 C 
HETATM    5  C   LIG     1      29.663  29.905  33.288  1.00  0.00    -0.018 C 
HETATM    6  C   LIG     1      28.641  29.096  32.947  1.00  0.00    -0.070 C 
HETATM    7  C   LIG     1      27.660  28.591  34.012  1.00  0.00     0.048 C 
HETATM    8  C   LIG     1      26.328  28.071  33.369  1.00  0.00     0.015 C 
HETATM    9  C   LIG     1      26.483  27.170  32.102  1.00  0.00     0.018 C 
HETATM   10  C   LIG     1      27.850  27.330  31.387  1.00  0.00     0.024 C 
HETATM   11  C   LIG     1      28.875  26.300  31.930  1.00  0.00     0.024 C 
HETATM   12  C   LIG     1      28.301  28.788  31.513  1.00  0.00     0.031 C 
HETATM   13  C   LIG     1      29.314  29.004  30.384  1.00  0.00     0.018 C 
HETATM   14  C   LIG     1      28.735  28.180  29.223  1.00  0.00     0.080 C 
HETATM   15  C   LIG     1      27.833  27.194  29.899  1.00  0.00     0.136 C 
HETATM   16  O   LIG     1      27.202  26.338  29.300  1.00  0.00    -0.297 OA
HETATM   17  C   LIG     1      27.453  29.668  35.078  1.00  0.00    -0.043 A 
HETATM   18  C   LIG     1      26.243  29.822  35.786  1.00  0.00     0.011 A 
HETATM   19  C   LIG     1      26.125  30.786  36.789  1.00  0.00     0.037 A 
ENDROOT
BRANCH   1  20
HETATM   20  O   LIG     1      27.077  32.549  38.129  1.00  0.00    -0.361 OA
HETATM   21  H   LIG     1      27.693  33.352  38.187  1.00  0.00     0.217 HD
ENDBRANCH   1  20
TORSDOF 1
ENDMDL
MODEL 3
REMARK VINA RESULT:      -5.5      9.297     11.238
REMARK  1 active torsions:
REMARK  status: ('A' for Active; 'I' for Inactive)
REMARK    1  A    between atoms: O_1  and  C_2 
ROOT
HETATM    1  C   LIG     1      19.534  20.483  28.941  1.00  0.00     0.066 A 
HETATM    2  C   LIG     1      19.258  21.650  29.663  1.00  0.00     0.044 A 
HETATM    3  C   LIG     1      19.492  21.698  31.045  1.00  0.00    -0.045 A 
HETATM    4  C   LIG     1      19.151  22.944  31.826  1.00  0.00     0.066 C 
HETATM    5  C   LIG     1      20.110  23.127  32.972  1.00  0.00    -0.018 C 
HETATM    6  C   LIG     1      20.577  22.059  33.647  1.00  0.00    -0.070 C 
HETATM    7  C   LIG     1      20.164  20.639  33.240  1.00  0.00     0.048 C 
HETATM    8  C   LIG     1      21.143  19.564  33.826  1.00  0.00     0.015 C 
HETATM    9  C   LIG     1      21.555  19.752  35.321  1.00  0.00     0.018 C 
HETATM   10  C   LIG     1      21.354  21.197  35.845  1.00  0.00     0.024 C 
HETATM   11  C   LIG     1      19.947  21.359  36.480  1.00  0.00     0.024 C 
HETATM   12  C   LIG     1      21.642  22.177  34.704  1.00  0.00     0.031 C 
HETATM   13  C   LIG     1      21.957  23.515  35.380  1.00  0.00     0.018 C 
HETATM   14  C   LIG     1      22.742  23.105  36.636  1.00  0.00     0.080 C 
HETATM   15  C   LIG     1      22.350  21.676  36.852  1.00  0.00     0.136 C 
HETATM   16  O   LIG     1      22.757  20.999  37.783  1.00  0.00    -0.297 OA
HETATM   17  C   LIG     1      19.998  20.564  31.721  1.00  0.00    -0.043 A 
HETATM   18  C   LIG     1      20.251  19.390  30.982  1.00  0.00     0.011 A 
HETATM   19  C   LIG     1      20.030  19.359  29.603  1.00  0.00     0.037 A 
ENDROOT
BRANCH   1  20
HETATM   20  O   LIG     1      19.315  20.431  27.566  1.00  0.00    -0.361 OA
HETATM   21  H   LIG     1      19.312  21.269  26.997  1.00  0.00     0.217 HD
ENDBRANCH   1  20
TORSDOF 1
ENDMDL
MODEL 4
REMARK VINA RESULT:      -5.4      9.602     14.428
REMARK  1 active torsions:
REMARK  status: ('A' for Active; 'I' for Inactive)
REMARK    1  A    between atoms: O_1  and  C_2 
ROOT
HETATM    1  C   LIG     1      26.149  22.882  27.691  1.00  0.00     0.066 A 
HETATM    2  C   LIG     1      25.017  22.093  27.459  1.00  0.00     0.044 A 
HETATM    3  C   LIG     1      24.447  22.032  26.179  1.00  0.00    -0.045 A 
HETATM    4  C   LIG     1      23.201  21.214  25.943  1.00  0.00     0.066 C 
HETATM    5  C   LIG     1      23.201  20.641  24.552  1.00  0.00    -0.018 C 
HETATM    6  C   LIG     1      23.700  21.351  23.522  1.00  0.00    -0.070 C 
HETATM    7  C   LIG     1      24.305  22.742  23.756  1.00  0.00     0.048 C 
HETATM    8  C   LIG     1      25.216  23.182  22.559  1.00  0.00     0.015 C 
HETATM    9  C   LIG     1      24.647  22.918  21.128  1.00  0.00     0.018 C 
HETATM   10  C   LIG     1      23.535  21.838  21.090  1.00  0.00     0.024 C 
HETATM   11  C   LIG     1      22.134  22.487  21.249  1.00  0.00     0.024 C 
HETATM   12  C   LIG     1      23.852  20.770  22.142  1.00  0.00     0.031 C 
HETATM   13  C   LIG     1      23.079  19.522  21.707  1.00  0.00     0.018 C 
HETATM   14  C   LIG     1      23.186  19.551  20.174  1.00  0.00     0.080 C 
HETATM   15  C   LIG     1      23.490  20.985  19.864  1.00  0.00     0.136 C 
HETATM   16  O   LIG     1      23.625  21.414  18.729  1.00  0.00    -0.297 OA
HETATM   17  C   LIG     1      25.006  22.779  25.115  1.00  0.00    -0.043 A 
HETATM   18  C   LIG     1      26.134  23.585  25.371  1.00  0.00     0.011 A 
HETATM   19  C   LIG     1      26.703  23.624  26.646  1.00  0.00     0.037 A 
ENDROOT
BRANCH   1  20
HETATM   20  O   LIG     1      26.727  22.940  28.957  1.00  0.00    -0.361 OA
HETATM   21  H   LIG     1      26.353  22.410  29.735  1.00  0.00     0.217 HD
ENDBRANCH   1  20
TORSDOF 1
ENDMDL
MODEL 5
REMARK VINA RESULT:      -5.4     15.034     16.767
REMARK  1 active torsions:
REMARK  status: ('A' for Active; 'I' for Inactive)
REMARK    1  A    between atoms: O_1  and  C_2 
ROOT
HETATM    1  C   LIG     1      29.502  25.638  17.464  1.00  0.00     0.066 A 
HETATM    2  C   LIG     1      28.446  26.103  18.256  1.00  0.00     0.044 A 
HETATM    3  C   LIG     1      27.341  25.279  18.516  1.00  0.00    -0.045 A 
HETATM    4  C   LIG     1      26.185  25.800  19.334  1.00  0.00     0.066 C 
HETATM    5  C   LIG     1      25.557  24.688  20.130  1.00  0.00    -0.018 C 
HETATM    6  C   LIG     1      25.462  23.448  19.611  1.00  0.00    -0.070 C 
HETATM    7  C   LIG     1      26.020  23.144  18.215  1.00  0.00     0.048 C 
HETATM    8  C   LIG     1      26.224  21.605  17.998  1.00  0.00     0.015 C 
HETATM    9  C   LIG     1      25.059  20.682  18.484  1.00  0.00     0.018 C 
HETATM   10  C   LIG     1      24.131  21.351  19.531  1.00  0.00     0.024 C 
HETATM   11  C   LIG     1      22.938  22.057  18.833  1.00  0.00     0.024 C 
HETATM   12  C   LIG     1      24.974  22.273  20.416  1.00  0.00     0.031 C 
HETATM   13  C   LIG     1      24.165  22.463  21.702  1.00  0.00     0.018 C 
HETATM   14  C   LIG     1      23.528  21.083  21.929  1.00  0.00     0.080 C 
HETATM   15  C   LIG     1      23.560  20.447  20.574  1.00  0.00     0.136 C 
HETATM   16  O   LIG     1      23.113  19.334  20.342  1.00  0.00    -0.297 OA
HETATM   17  C   LIG     1      27.280  23.976  17.968  1.00  0.00    -0.043 A 
HETATM   18  C   LIG     1      28.342  23.531  17.155  1.00  0.00     0.011 A 
HETATM   19  C   LIG     1      29.446  24.354  16.918  1.00  0.00     0.037 A 
ENDROOT
BRANCH   1  20
HETATM   20  O   LIG     1      30.608  26.446  17.210  1.00  0.00    -0.361 OA
HETATM   21  H   LIG     1      31.172  26.825  17.962  1.00  0.00     0.217 HD
ENDBRANCH   1  20
TORSDOF 1
ENDMDL
MODEL 6
REMARK VINA RESULT:      -5.4     12.133     15.511
REMARK  1 active torsions:
REMARK  status: ('A' for Active; 'I' for Inactive)
REMARK    1  A    between atoms: O_1  and  C_2 
ROOT
HETATM    1  C   LIG     1      22.326  19.688  17.845  1.00  0.00     0.066 A 
HETATM    2  C   LIG     1      22.383  18.711  18.845  1.00  0.00     0.044 A 
HETATM    3  C   LIG     1      22.917  19.020  20.105  1.00  0.00    -0.045 A 
HETATM    4  C   LIG     1      23.017  17.951  21.166  1.00  0.00     0.066 C 
HETATM    5  C   LIG     1      22.840  18.549  22.536  1.00  0.00    -0.018 C 
HETATM    6  C   LIG     1      23.334  19.772  22.815  1.00  0.00    -0.070 C 
HETATM    7  C   LIG     1      24.055  20.585  21.732  1.00  0.00     0.048 C 
HETATM    8  C   LIG     1      24.134  22.104  22.110  1.00  0.00     0.015 C 
HETATM    9  C   LIG     1      24.535  22.426  23.586  1.00  0.00     0.018 C 
HETATM   10  C   LIG     1      24.308  21.244  24.564  1.00  0.00     0.024 C 
HETATM   11  C   LIG     1      25.589  20.373  24.676  1.00  0.00     0.024 C 
HETATM   12  C   LIG     1      23.063  20.471  24.120  1.00  0.00     0.031 C 
HETATM   13  C   LIG     1      22.591  19.704  25.358  1.00  0.00     0.018 C 
HETATM   14  C   LIG     1      22.865  20.684  26.511  1.00  0.00     0.080 C 
HETATM   15  C   LIG     1      23.901  21.610  25.954  1.00  0.00     0.136 C 
HETATM   16  O   LIG     1      24.397  22.526  26.591  1.00  0.00    -0.297 OA
HETATM   17  C   LIG     1      23.413  20.318  20.370  1.00  0.00    -0.043 A 
HETATM   18  C   LIG     1      23.366  21.284  19.344  1.00  0.00     0.011 A 
HETATM   19  C   LIG     1      22.817  20.971  18.098  1.00  0.00     0.037 A 
ENDROOT
BRANCH   1  20
HETATM   20  O   LIG     1      21.788  19.393  16.594  1.00  0.00    -0.361 OA
HETATM   21  H   LIG     1      21.651  18.437  16.288  1.00  0.00     0.217 HD
ENDBRANCH   1  20
TORSDOF 1
ENDMDL
MODEL 7
REMARK VINA RESULT:      -5.3     10.709     15.734
REMARK  1 active torsions:
REMARK  status: ('A' for Active; 'I' for Inactive)
REMARK    1  A    between atoms: O_1  and  C_2 
ROOT
HETATM    1  C   LIG     1      25.205  23.181  26.453  1.00  0.00     0.066 A 
HETATM    2  C   LIG     1      25.875  23.496  25.266  1.00  0.00     0.044 A 
HETATM    3  C   LIG     1      25.645  22.746  24.103  1.00  0.00    -0.045 A 
HETATM    4  C   LIG     1      26.403  23.061  22.837  1.00  0.00     0.066 C 
HETATM    5  C   LIG     1      25.554  22.774  21.628  1.00  0.00    -0.018 C 
HETATM    6  C   LIG     1      24.711  21.723  21.620  1.00  0.00    -0.070 C 
HETATM    7  C   LIG     1      24.582  20.821  22.855  1.00  0.00     0.048 C 
HETATM    8  C   LIG     1      23.263  19.975  22.813  1.00  0.00     0.015 C 
HETATM    9  C   LIG     1      22.915  19.309  21.443  1.00  0.00     0.018 C 
HETATM   10  C   LIG     1      23.623  19.972  20.232  1.00  0.00     0.024 C 
HETATM   11  C   LIG     1      24.976  19.271  19.938  1.00  0.00     0.024 C 
HETATM   12  C   LIG     1      23.741  21.476  20.496  1.00  0.00     0.031 C 
HETATM   13  C   LIG     1      23.927  22.122  19.120  1.00  0.00     0.018 C 
HETATM   14  C   LIG     1      23.018  21.284  18.207  1.00  0.00     0.080 C 
HETATM   15  C   LIG     1      22.852  19.996  18.953  1.00  0.00     0.136 C 
HETATM   16  O   LIG     1      22.203  19.052  18.529  1.00  0.00    -0.297 OA
HETATM   17  C   LIG     1      24.742  21.657  24.125  1.00  0.00    -0.043 A 
HETATM   18  C   LIG     1      24.091  21.340  25.335  1.00  0.00     0.011 A 
HETATM   19  C   LIG     1      24.315  22.105  26.483  1.00  0.00     0.037 A 
ENDROOT
BRANCH   1  20
HETATM   20  O   LIG     1      25.420  23.927  27.609  1.00  0.00    -0.361 OA
HETATM   21  H   LIG     1      26.318  24.355  27.805  1.00  0.00     0.217 HD
ENDBRANCH   1  20
TORSDOF 1
ENDMDL
MODEL 8
REMARK VINA RESULT:      -5.2      7.805     11.542
REMARK  1 active torsions:
REMARK  status: ('A' for Active; 'I' for Inactive)
REMARK    1  A    between atoms: O_1  and  C_2 
ROOT
HETATM    1  C   LIG     1      23.601  22.334  20.784  1.00  0.00     0.066 A 
HETATM    2  C   LIG     1      23.399  21.938  22.111  1.00  0.00     0.044 A 
HETATM    3  C   LIG     1      24.375  22.198  23.083  1.00  0.00    -0.045 A 
HETATM    4  C   LIG     1      24.172  21.730  24.504  1.00  0.00     0.066 C 
HETATM    5  C   LIG     1      24.812  22.688  25.472  1.00  0.00    -0.018 C 
HETATM    6  C   LIG     1      25.974  23.296  25.162  1.00  0.00    -0.070 C 
HETATM    7  C   LIG     1      26.645  23.046  23.806  1.00  0.00     0.048 C 
HETATM    8  C   LIG     1      27.695  24.160  23.468  1.00  0.00     0.015 C 
HETATM    9  C   LIG     1      28.646  24.584  24.633  1.00  0.00     0.018 C 
HETATM   10  C   LIG     1      28.105  24.225  26.041  1.00  0.00     0.024 C 
HETATM   11  C   LIG     1      28.610  22.824  26.481  1.00  0.00     0.024 C 
HETATM   12  C   LIG     1      26.580  24.365  26.031  1.00  0.00     0.031 C 
HETATM   13  C   LIG     1      26.172  24.534  27.498  1.00  0.00     0.018 C 
HETATM   14  C   LIG     1      27.303  25.393  28.085  1.00  0.00     0.080 C 
HETATM   15  C   LIG     1      28.444  25.180  27.139  1.00  0.00     0.136 C 
HETATM   16  O   LIG     1      29.545  25.688  27.285  1.00  0.00    -0.297 OA
HETATM   17  C   LIG     1      25.578  22.853  22.727  1.00  0.00    -0.043 A 
HETATM   18  C   LIG     1      25.775  23.226  21.382  1.00  0.00     0.011 A 
HETATM   19  C   LIG     1      24.788  22.977  20.425  1.00  0.00     0.037 A 
ENDROOT
BRANCH   1  20
HETATM   20  O   LIG     1      22.632  22.088  19.814  1.00  0.00    -0.361 OA
HETATM   21  H   LIG     1      21.855  21.462  19.988  1.00  0.00     0.217 HD
ENDBRANCH   1  20
TORSDOF 1
ENDMDL
MODEL 9
REMARK VINA RESULT:      -5.1      9.319     14.487
REMARK  1 active torsions:
REMARK  status: ('A' for Active; 'I' for Inactive)
REMARK    1  A    between atoms: O_1  and  C_2 
ROOT
HETATM    1  C   LIG     1      26.196  24.197  26.901  1.00  0.00     0.066 A 
HETATM    2  C   LIG     1      27.214  24.414  25.965  1.00  0.00     0.044 A 
HETATM    3  C   LIG     1      27.089  23.921  24.658  1.00  0.00    -0.045 A 
HETATM    4  C   LIG     1      28.209  24.119  23.665  1.00  0.00     0.066 C 
HETATM    5  C   LIG     1      27.659  24.267  22.273  1.00  0.00    -0.018 C 
HETATM    6  C   LIG     1      26.582  23.555  21.885  1.00  0.00    -0.070 C 
HETATM    7  C   LIG     1      25.882  22.607  22.867  1.00  0.00     0.048 C 
HETATM    8  C   LIG     1      24.435  22.246  22.386  1.00  0.00     0.015 C 
HETATM    9  C   LIG     1      24.281  21.895  20.871  1.00  0.00     0.018 C 
HETATM   10  C   LIG     1      25.438  22.428  19.988  1.00  0.00     0.024 C 
HETATM   11  C   LIG     1      26.562  21.365  19.857  1.00  0.00     0.024 C 
HETATM   12  C   LIG     1      25.910  23.770  20.556  1.00  0.00     0.031 C 
HETATM   13  C   LIG     1      26.625  24.477  19.400  1.00  0.00     0.018 C 
HETATM   14  C   LIG     1      25.785  24.093  18.172  1.00  0.00     0.080 C 
HETATM   15  C   LIG     1      25.068  22.851  18.604  1.00  0.00     0.136 C 
HETATM   16  O   LIG     1      24.309  22.225  17.879  1.00  0.00    -0.297 OA
HETATM   17  C   LIG     1      25.939  23.190  24.280  1.00  0.00    -0.043 A 
HETATM   18  C   LIG     1      24.933  22.963  25.241  1.00  0.00     0.011 A 
HETATM   19  C   LIG     1      25.060  23.474  26.535  1.00  0.00     0.037 A 
ENDROOT
BRANCH   1  20
HETATM   20  O   LIG     1      26.308  24.692  28.199  1.00  0.00    -0.361 OA
HETATM   21  H   LIG     1      26.138  25.669  28.410  1.00  0.00     0.217 HD
ENDBRANCH   1  20
TORSDOF 1
ENDMDL
MODEL 10
REMARK VINA RESULT:      -5.1      1.954      3.672
REMARK  1 active torsions:
REMARK  status: ('A' for Active; 'I' for Inactive)
REMARK    1  A    between atoms: O_1  and  C_2 
ROOT
HETATM    1  C   LIG     1      28.306  25.835  27.967  1.00  0.00     0.066 A 
HETATM    2  C   LIG     1      28.803  27.070  28.397  1.00  0.00     0.044 A 
HETATM    3  C   LIG     1      28.471  27.562  29.667  1.00  0.00    -0.045 A 
HETATM    4  C   LIG     1      28.973  28.915  30.109  1.00  0.00     0.066 C 
HETATM    5  C   LIG     1      29.212  28.930  31.595  1.00  0.00    -0.018 C 
HETATM    6  C   LIG     1      28.394  28.253  32.424  1.00  0.00    -0.070 C 
HETATM    7  C   LIG     1      27.226  27.431  31.864  1.00  0.00     0.048 C 
HETATM    8  C   LIG     1      26.704  26.385  32.909  1.00  0.00     0.015 C 
HETATM    9  C   LIG     1      26.534  26.903  34.374  1.00  0.00     0.018 C 
HETATM   10  C   LIG     1      27.356  28.181  34.681  1.00  0.00     0.024 C 
HETATM   11  C   LIG     1      26.512  29.455  34.405  1.00  0.00     0.024 C 
HETATM   12  C   LIG     1      28.670  28.120  33.898  1.00  0.00     0.031 C 
HETATM   13  C   LIG     1      29.627  29.071  34.623  1.00  0.00     0.018 C 
HETATM   14  C   LIG     1      29.277  28.866  36.106  1.00  0.00     0.080 C 
HETATM   15  C   LIG     1      27.891  28.300  36.071  1.00  0.00     0.136 C 
HETATM   16  O   LIG     1      27.252  28.022  37.074  1.00  0.00    -0.297 OA
HETATM   17  C   LIG     1      27.621  26.818  30.520  1.00  0.00    -0.043 A 
HETATM   18  C   LIG     1      27.113  25.585  30.062  1.00  0.00     0.011 A 
HETATM   19  C   LIG     1      27.464  25.097  28.801  1.00  0.00     0.037 A 
ENDROOT
BRANCH   1  20
HETATM   20  O   LIG     1      28.639  25.334  26.710  1.00  0.00    -0.361 OA
HETATM   21  H   LIG     1      28.317  25.780  25.859  1.00  0.00     0.217 HD
ENDBRANCH   1  20
TORSDOF 1
ENDMDL
MODEL 11
REMARK VINA RESULT:      -5.1     13.330     14.985
REMARK  1 active torsions:
REMARK  status: ('A' for Active; 'I' for Inactive)
REMARK    1  A    between atoms: O_1  and  C_2 
ROOT
HETATM    1  C   LIG     1      29.155  26.556  18.951  1.00  0.00     0.066 A 
HETATM    2  C   LIG     1      28.228  25.777  18.249  1.00  0.00     0.044 A 
HETATM    3  C   LIG     1      27.523  24.756  18.903  1.00  0.00    -0.045 A 
HETATM    4  C   LIG     1      26.557  23.890  18.131  1.00  0.00     0.066 C 
HETATM    5  C   LIG     1      25.412  23.465  19.010  1.00  0.00    -0.018 C 
HETATM    6  C   LIG     1      25.618  23.185  20.311  1.00  0.00    -0.070 C 
HETATM    7  C   LIG     1      27.017  23.325  20.925  1.00  0.00     0.048 C 
HETATM    8  C   LIG     1      26.955  23.404  22.489  1.00  0.00     0.015 C 
HETATM    9  C   LIG     1      26.000  22.384  23.191  1.00  0.00     0.018 C 
HETATM   10  C   LIG     1      24.909  21.806  22.254  1.00  0.00     0.024 C 
HETATM   11  C   LIG     1      25.400  20.494  21.585  1.00  0.00     0.024 C 
HETATM   12  C   LIG     1      24.487  22.894  21.262  1.00  0.00     0.031 C 
HETATM   13  C   LIG     1      23.102  22.478  20.757  1.00  0.00     0.018 C 
HETATM   14  C   LIG     1      22.435  21.877  22.005  1.00  0.00     0.080 C 
HETATM   15  C   LIG     1      23.588  21.511  22.887  1.00  0.00     0.136 C 
HETATM   16  O   LIG     1      23.458  20.976  23.977  1.00  0.00    -0.297 OA
HETATM   17  C   LIG     1      27.753  24.498  20.275  1.00  0.00    -0.043 A 
HETATM   18  C   LIG     1      28.705  25.278  20.962  1.00  0.00     0.011 A 
HETATM   19  C   LIG     1      29.389  26.304  20.305  1.00  0.00     0.037 A 
ENDROOT
BRANCH   1  20
HETATM   20  O   LIG     1      29.852  27.578  18.312  1.00  0.00    -0.361 OA
HETATM   21  H   LIG     1      30.074  28.446  18.786  1.00  0.00     0.217 HD
ENDBRANCH   1  20
TORSDOF 1
ENDMDL
MODEL 12
REMARK VINA RESULT:      -5.1      9.219     13.075
REMARK  1 active torsions:
REMARK  status: ('A' for Active; 'I' for Inactive)
REMARK    1  A    between atoms: O_1  and  C_2 
ROOT
HETATM    1  C   LIG     1      23.600  21.987  19.015  1.00  0.00     0.066 A 
HETATM    2  C   LIG     1      23.299  21.504  20.294  1.00  0.00     0.044 A 
HETATM    3  C   LIG     1      24.186  21.721  21.358  1.00  0.00    -0.045 A 
HETATM    4  C   LIG     1      23.878  21.160  22.725  1.00  0.00     0.066 C 
HETATM    5  C   LIG     1      24.414  22.067  23.800  1.00  0.00    -0.018 C 
HETATM    6  C   LIG     1      25.582  22.715  23.626  1.00  0.00    -0.070 C 
HETATM    7  C   LIG     1      26.369  22.563  22.318  1.00  0.00     0.048 C 
HETATM    8  C   LIG     1      27.415  23.716  22.138  1.00  0.00     0.015 C 
HETATM    9  C   LIG     1      28.258  24.084  23.402  1.00  0.00     0.018 C 
HETATM   10  C   LIG     1      27.612  23.626  24.735  1.00  0.00     0.024 C 
HETATM   11  C   LIG     1      28.112  22.210  25.128  1.00  0.00     0.024 C 
HETATM   12  C   LIG     1      26.090  23.738  24.607  1.00  0.00     0.031 C 
HETATM   13  C   LIG     1      25.560  23.806  26.042  1.00  0.00     0.018 C 
HETATM   14  C   LIG     1      26.618  24.647  26.774  1.00  0.00     0.080 C 
HETATM   15  C   LIG     1      27.836  24.516  25.914  1.00  0.00     0.136 C 
HETATM   16  O   LIG     1      28.909  25.034  26.182  1.00  0.00    -0.297 OA
HETATM   17  C   LIG     1      25.398  22.419  21.145  1.00  0.00    -0.043 A 
HETATM   18  C   LIG     1      25.695  22.880  19.846  1.00  0.00     0.011 A 
HETATM   19  C   LIG     1      24.796  22.674  18.796  1.00  0.00     0.037 A 
ENDROOT
BRANCH   1  20
HETATM   20  O   LIG     1      22.720  21.785  17.955  1.00  0.00    -0.361 OA
HETATM   21  H   LIG     1      22.504  22.524  17.296  1.00  0.00     0.217 HD
ENDBRANCH   1  20
TORSDOF 1
ENDMDL
MODEL 13
REMARK VINA RESULT:      -5.0      9.363     13.959
REMARK  1 active torsions:
REMARK  status: ('A' for Active; 'I' for Inactive)
REMARK    1  A    between atoms: O_1  and  C_2 
ROOT
HETATM    1  C   LIG     1      26.191  24.287  26.677  1.00  0.00     0.066 A 
HETATM    2  C   LIG     1      27.312  24.947  26.163  1.00  0.00     0.044 A 
HETATM    3  C   LIG     1      27.684  24.770  24.822  1.00  0.00    -0.045 A 
HETATM    4  C   LIG     1      28.920  25.449  24.284  1.00  0.00     0.066 C 
HETATM    5  C   LIG     1      28.738  25.803  22.833  1.00  0.00    -0.018 C 
HETATM    6  C   LIG     1      28.054  24.983  22.011  1.00  0.00    -0.070 C 
HETATM    7  C   LIG     1      27.423  23.692  22.550  1.00  0.00     0.048 C 
HETATM    8  C   LIG     1      26.320  23.142  21.581  1.00  0.00     0.015 C 
HETATM    9  C   LIG     1      26.679  23.144  20.060  1.00  0.00     0.018 C 
HETATM   10  C   LIG     1      27.825  24.122  19.691  1.00  0.00     0.024 C 
HETATM   11  C   LIG     1      29.199  23.403  19.753  1.00  0.00     0.024 C 
HETATM   12  C   LIG     1      27.724  25.357  20.591  1.00  0.00     0.031 C 
HETATM   13  C   LIG     1      28.484  26.465  19.856  1.00  0.00     0.018 C 
HETATM   14  C   LIG     1      28.145  26.210  18.379  1.00  0.00     0.080 C 
HETATM   15  C   LIG     1      27.727  24.773  18.350  1.00  0.00     0.136 C 
HETATM   16  O   LIG     1      27.400  24.187  17.329  1.00  0.00    -0.297 OA
HETATM   17  C   LIG     1      26.934  23.913  23.982  1.00  0.00    -0.043 A 
HETATM   18  C   LIG     1      25.819  23.240  24.522  1.00  0.00     0.011 A 
HETATM   19  C   LIG     1      25.448  23.437  25.854  1.00  0.00     0.037 A 
ENDROOT
BRANCH   1  20
HETATM   20  O   LIG     1      25.809  24.465  28.004  1.00  0.00    -0.361 OA
HETATM   21  H   LIG     1      26.078  25.290  28.528  1.00  0.00     0.217 HD
ENDBRANCH   1  20
TORSDOF 1
ENDMDL
MODEL 14
REMARK VINA RESULT:      -5.0      8.049     11.373
REMARK  1 active torsions:
REMARK  status: ('A' for Active; 'I' for Inactive)
REMARK    1  A    between atoms: O_1  and  C_2 
ROOT
HETATM    1  C   LIG     1      26.699  24.678  19.191  1.00  0.00     0.066 A 
HETATM    2  C   LIG     1      26.318  23.670  20.084  1.00  0.00     0.044 A 
HETATM    3  C   LIG     1      26.793  23.678  21.404  1.00  0.00    -0.045 A 
HETATM    4  C   LIG     1      26.416  22.565  22.351  1.00  0.00     0.066 C 
HETATM    5  C   LIG     1      26.314  23.082  23.760  1.00  0.00    -0.018 C 
HETATM    6  C   LIG     1      27.162  24.033  24.200  1.00  0.00    -0.070 C 
HETATM    7  C   LIG     1      28.222  24.624  23.263  1.00  0.00     0.048 C 
HETATM    8  C   LIG     1      28.773  25.988  23.804  1.00  0.00     0.015 C 
HETATM    9  C   LIG     1      29.106  26.039  25.330  1.00  0.00     0.018 C 
HETATM   10  C   LIG     1      28.394  24.939  26.159  1.00  0.00     0.024 C 
HETATM   11  C   LIG     1      29.284  23.672  26.268  1.00  0.00     0.024 C 
HETATM   12  C   LIG     1      27.013  24.682  25.550  1.00  0.00     0.031 C 
HETATM   13  C   LIG     1      26.184  24.036  26.664  1.00  0.00     0.018 C 
HETATM   14  C   LIG     1      26.655  24.771  27.930  1.00  0.00     0.080 C 
HETATM   15  C   LIG     1      27.995  25.319  27.548  1.00  0.00     0.136 C 
HETATM   16  O   LIG     1      28.705  25.955  28.312  1.00  0.00    -0.297 OA
HETATM   17  C   LIG     1      27.670  24.699  21.839  1.00  0.00    -0.043 A 
HETATM   18  C   LIG     1      28.060  25.696  20.920  1.00  0.00     0.011 A 
HETATM   19  C   LIG     1      27.567  25.687  19.613  1.00  0.00     0.037 A 
ENDROOT
BRANCH   1  20
HETATM   20  O   LIG     1      26.223  24.682  17.882  1.00  0.00    -0.361 OA
HETATM   21  H   LIG     1      25.324  25.085  17.646  1.00  0.00     0.217 HD
ENDBRANCH   1  20
TORSDOF 1
ENDMDL
MODEL 15
REMARK VINA RESULT:      -5.0     14.948     16.944
REMARK  1 active torsions:
REMARK  status: ('A' for Active; 'I' for Inactive)
REMARK    1  A    between atoms: O_1  and  C_2 
ROOT
HETATM    1  C   LIG     1      29.812  25.900  16.328  1.00  0.00     0.066 A 
HETATM    2  C   LIG     1      29.566  24.530  16.178  1.00  0.00     0.044 A 
HETATM    3  C   LIG     1      28.696  23.868  17.056  1.00  0.00    -0.045 A 
HETATM    4  C   LIG     1      28.469  22.382  16.917  1.00  0.00     0.066 C 
HETATM    5  C   LIG     1      27.065  22.023  17.324  1.00  0.00    -0.018 C 
HETATM    6  C   LIG     1      26.465  22.666  18.344  1.00  0.00    -0.070 C 
HETATM    7  C   LIG     1      27.190  23.796  19.086  1.00  0.00     0.048 C 
HETATM    8  C   LIG     1      26.189  24.692  19.893  1.00  0.00     0.015 C 
HETATM    9  C   LIG     1      25.092  23.934  20.708  1.00  0.00     0.018 C 
HETATM   10  C   LIG     1      24.842  22.484  20.217  1.00  0.00     0.024 C 
HETATM   11  C   LIG     1      25.743  21.482  20.987  1.00  0.00     0.024 C 
HETATM   12  C   LIG     1      25.018  22.444  18.697  1.00  0.00     0.031 C 
HETATM   13  C   LIG     1      24.260  21.199  18.227  1.00  0.00     0.018 C 
HETATM   14  C   LIG     1      23.026  21.166  19.143  1.00  0.00     0.080 C 
HETATM   15  C   LIG     1      23.437  21.987  20.326  1.00  0.00     0.136 C 
HETATM   16  O   LIG     1      22.719  22.177  21.295  1.00  0.00    -0.297 OA
HETATM   17  C   LIG     1      28.070  24.577  18.108  1.00  0.00    -0.043 A 
HETATM   18  C   LIG     1      28.345  25.951  18.257  1.00  0.00     0.011 A 
HETATM   19  C   LIG     1      29.200  26.605  17.366  1.00  0.00     0.037 A 
ENDROOT
BRANCH   1  20
HETATM   20  O   LIG     1      30.667  26.568  15.454  1.00  0.00    -0.361 OA
HETATM   21  H   LIG     1      31.077  27.462  15.694  1.00  0.00     0.217 HD
ENDBRANCH   1  20
TORSDOF 1
ENDMDL
MODEL 16
REMARK VINA RESULT:      -5.0     11.657     16.533
REMARK  1 active torsions:
REMARK  status: ('A' for Active; 'I' for Inactive)
REMARK    1  A    between atoms: O_1  and  C_2 
ROOT
HETATM    1  C   LIG     1      24.198  21.915  26.028  1.00  0.00     0.066 A 
HETATM    2  C   LIG     1      23.410  20.928  25.425  1.00  0.00     0.044 A 
HETATM    3  C   LIG     1      23.357  20.821  24.027  1.00  0.00    -0.045 A 
HETATM    4  C   LIG     1      22.472  19.784  23.381  1.00  0.00     0.066 C 
HETATM    5  C   LIG     1      23.083  19.295  22.095  1.00  0.00    -0.018 C 
HETATM    6  C   LIG     1      23.758  20.144  21.296  1.00  0.00    -0.070 C 
HETATM    7  C   LIG     1      23.941  21.613  21.698  1.00  0.00     0.048 C 
HETATM    8  C   LIG     1      25.106  22.289  20.896  1.00  0.00     0.015 C 
HETATM    9  C   LIG     1      25.149  21.991  19.363  1.00  0.00     0.018 C 
HETATM   10  C   LIG     1      24.371  20.713  18.955  1.00  0.00     0.024 C 
HETATM   11  C   LIG     1      22.903  21.060  18.587  1.00  0.00     0.024 C 
HETATM   12  C   LIG     1      24.506  19.678  20.075  1.00  0.00     0.031 C 
HETATM   13  C   LIG     1      24.211  18.324  19.422  1.00  0.00     0.018 C 
HETATM   14  C   LIG     1      24.847  18.454  18.029  1.00  0.00     0.080 C 
HETATM   15  C   LIG     1      24.939  19.933  17.814  1.00  0.00     0.136 C 
HETATM   16  O   LIG     1      25.377  20.440  16.793  1.00  0.00    -0.297 OA
HETATM   17  C   LIG     1      24.091  21.719  23.216  1.00  0.00    -0.043 A 
HETATM   18  C   LIG     1      24.863  22.720  23.840  1.00  0.00     0.011 A 
HETATM   19  C   LIG     1      24.922  22.806  25.233  1.00  0.00     0.037 A 
ENDROOT
BRANCH   1  20
HETATM   20  O   LIG     1      24.265  22.021  27.415  1.00  0.00    -0.361 OA
HETATM   21  H   LIG     1      25.150  22.004  27.906  1.00  0.00     0.217 HD
ENDBRANCH   1  20
TORSDOF 1
ENDMDL
MODEL 17
REMARK VINA RESULT:      -4.9     10.939     14.632
REMARK  1 active torsions:
REMARK  status: ('A' for Active; 'I' for Inactive)
REMARK    1  A    between atoms: O_1  and  C_2 
ROOT
HETATM    1  C   LIG     1      22.820  20.063  18.616  1.00  0.00     0.066 A 
HETATM    2  C   LIG     1      22.810  21.326  19.220  1.00  0.00     0.044 A 
HETATM    3  C   LIG     1      23.003  21.449  20.604  1.00  0.00    -0.045 A 
HETATM    4  C   LIG     1      22.947  22.808  21.258  1.00  0.00     0.066 C 
HETATM    5  C   LIG     1      23.884  22.867  22.434  1.00  0.00    -0.018 C 
HETATM    6  C   LIG     1      24.058  21.788  23.222  1.00  0.00    -0.070 C 
HETATM    7  C   LIG     1      23.328  20.474  22.914  1.00  0.00     0.048 C 
HETATM    8  C   LIG     1      23.999  19.258  23.642  1.00  0.00     0.015 C 
HETATM    9  C   LIG     1      24.396  19.485  25.136  1.00  0.00     0.018 C 
HETATM   10  C   LIG     1      24.532  20.980  25.524  1.00  0.00     0.024 C 
HETATM   11  C   LIG     1      23.186  21.531  26.065  1.00  0.00     0.024 C 
HETATM   12  C   LIG     1      25.085  21.751  24.321  1.00  0.00     0.031 C 
HETATM   13  C   LIG     1      25.691  23.034  24.898  1.00  0.00     0.018 C 
HETATM   14  C   LIG     1      26.312  22.571  26.225  1.00  0.00     0.080 C 
HETATM   15  C   LIG     1      25.580  21.303  26.539  1.00  0.00     0.136 C 
HETATM   16  O   LIG     1      25.782  20.641  27.545  1.00  0.00    -0.297 OA
HETATM   17  C   LIG     1      23.198  20.296  21.401  1.00  0.00    -0.043 A 
HETATM   18  C   LIG     1      23.185  19.031  20.779  1.00  0.00     0.011 A 
HETATM   19  C   LIG     1      23.008  18.922  19.397  1.00  0.00     0.037 A 
ENDROOT
BRANCH   1  20
HETATM   20  O   LIG     1      22.639  19.933  17.241  1.00  0.00    -0.361 OA
HETATM   21  H   LIG     1      22.679  19.030  16.784  1.00  0.00     0.217 HD
ENDBRANCH   1  20
TORSDOF 1
ENDMDL
MODEL 18
REMARK VINA RESULT:      -4.8      3.827      8.694
REMARK  1 active torsions:
REMARK  status: ('A' for Active; 'I' for Inactive)
REMARK    1  A    between atoms: O_1  and  C_2 
ROOT
HETATM    1  C   LIG     1      27.010  27.087  33.957  1.00  0.00     0.066 A 
HETATM    2  C   LIG     1      27.008  27.685  32.692  1.00  0.00     0.044 A 
HETATM    3  C   LIG     1      27.325  26.930  31.553  1.00  0.00    -0.045 A 
HETATM    4  C   LIG     1      27.364  27.589  30.195  1.00  0.00     0.066 C 
HETATM    5  C   LIG     1      26.940  26.620  29.125  1.00  0.00    -0.018 C 
HETATM    6  C   LIG     1      27.278  25.319  29.211  1.00  0.00    -0.070 C 
HETATM    7  C   LIG     1      28.074  24.800  30.416  1.00  0.00     0.048 C 
HETATM    8  C   LIG     1      27.963  23.242  30.551  1.00  0.00     0.015 C 
HETATM    9  C   LIG     1      28.117  22.424  29.228  1.00  0.00     0.018 C 
HETATM   10  C   LIG     1      27.857  23.258  27.947  1.00  0.00     0.024 C 
HETATM   11  C   LIG     1      29.179  23.876  27.418  1.00  0.00     0.024 C 
HETATM   12  C   LIG     1      26.761  24.286  28.245  1.00  0.00     0.031 C 
HETATM   13  C   LIG     1      26.185  24.681  26.882  1.00  0.00     0.018 C 
HETATM   14  C   LIG     1      26.202  23.362  26.093  1.00  0.00     0.080 C 
HETATM   15  C   LIG     1      27.222  22.531  26.807  1.00  0.00     0.136 C 
HETATM   16  O   LIG     1      27.538  21.405  26.455  1.00  0.00    -0.297 OA
HETATM   17  C   LIG     1      27.661  25.562  31.676  1.00  0.00    -0.043 A 
HETATM   18  C   LIG     1      27.678  24.981  32.961  1.00  0.00     0.011 A 
HETATM   19  C   LIG     1      27.344  25.738  34.086  1.00  0.00     0.037 A 
ENDROOT
BRANCH   1  20
HETATM   20  O   LIG     1      26.687  27.827  35.092  1.00  0.00    -0.361 OA
HETATM   21  H   LIG     1      27.309  28.539  35.456  1.00  0.00     0.217 HD
ENDBRANCH   1  20
TORSDOF 1
ENDMDL
MODEL 19
REMARK VINA RESULT:      -4.7     13.987     15.159
REMARK  1 active torsions:
REMARK  status: ('A' for Active; 'I' for Inactive)
REMARK    1  A    between atoms: O_1  and  C_2 
ROOT
HETATM    1  C   LIG     1      23.969  21.591  23.068  1.00  0.00     0.066 A 
HETATM    2  C   LIG     1      25.347  21.358  22.994  1.00  0.00     0.044 A 
HETATM    3  C   LIG     1      26.132  22.047  22.058  1.00  0.00    -0.045 A 
HETATM    4  C   LIG     1      27.610  21.759  21.953  1.00  0.00     0.066 C 
HETATM    5  C   LIG     1      28.363  23.001  21.558  1.00  0.00    -0.018 C 
HETATM    6  C   LIG     1      27.821  23.880  20.692  1.00  0.00    -0.070 C 
HETATM    7  C   LIG     1      26.418  23.644  20.119  1.00  0.00     0.048 C 
HETATM    8  C   LIG     1      25.809  24.961  19.524  1.00  0.00     0.015 C 
HETATM    9  C   LIG     1      26.769  25.825  18.644  1.00  0.00     0.018 C 
HETATM   10  C   LIG     1      28.272  25.535  18.893  1.00  0.00     0.024 C 
HETATM   11  C   LIG     1      28.786  24.438  17.922  1.00  0.00     0.024 C 
HETATM   12  C   LIG     1      28.469  25.202  20.375  1.00  0.00     0.031 C 
HETATM   13  C   LIG     1      29.952  25.458  20.661  1.00  0.00     0.018 C 
HETATM   14  C   LIG     1      30.270  26.699  19.812  1.00  0.00     0.080 C 
HETATM   15  C   LIG     1      29.196  26.703  18.768  1.00  0.00     0.136 C 
HETATM   16  O   LIG     1      29.124  27.538  17.880  1.00  0.00    -0.297 OA
HETATM   17  C   LIG     1      25.535  22.975  21.173  1.00  0.00    -0.043 A 
HETATM   18  C   LIG     1      24.142  23.182  21.247  1.00  0.00     0.011 A 
HETATM   19  C   LIG     1      23.373  22.503  22.195  1.00  0.00     0.037 A 
ENDROOT
BRANCH   1  20
HETATM   20  O   LIG     1      23.185  20.919  24.002  1.00  0.00    -0.361 OA
HETATM   21  H   LIG     1      23.441  20.002  24.348  1.00  0.00     0.217 HD
ENDBRANCH   1  20
TORSDOF 1
ENDMDL
MODEL 20
REMARK VINA RESULT:      -4.5      9.047     11.593
REMARK  1 active torsions:
REMARK  status: ('A' for Active; 'I' for Inactive)
REMARK    1  A    between atoms: O_1  and  C_2 
ROOT
HETATM    1  C   LIG     1      28.354  25.089  24.214  1.00  0.00     0.066 A 
HETATM    2  C   LIG     1      27.949  25.168  25.552  1.00  0.00     0.044 A 
HETATM    3  C   LIG     1      26.878  24.389  26.014  1.00  0.00    -0.045 A 
HETATM    4  C   LIG     1      26.417  24.511  27.446  1.00  0.00     0.066 C 
HETATM    5  C   LIG     1      25.899  23.191  27.948  1.00  0.00    -0.018 C 
HETATM    6  C   LIG     1      25.215  22.370  27.127  1.00  0.00    -0.070 C 
HETATM    7  C   LIG     1      24.982  22.754  25.660  1.00  0.00     0.048 C 
HETATM    8  C   LIG     1      24.593  21.508  24.792  1.00  0.00     0.015 C 
HETATM    9  C   LIG     1      23.542  20.536  25.418  1.00  0.00     0.018 C 
HETATM   10  C   LIG     1      23.419  20.661  26.959  1.00  0.00     0.024 C 
HETATM   11  C   LIG     1      22.317  21.686  27.339  1.00  0.00     0.024 C 
HETATM   12  C   LIG     1      24.800  20.983  27.537  1.00  0.00     0.031 C 
HETATM   13  C   LIG     1      24.737  20.567  29.010  1.00  0.00     0.018 C 
HETATM   14  C   LIG     1      23.879  19.291  28.984  1.00  0.00     0.080 C 
HETATM   15  C   LIG     1      23.119  19.398  27.699  1.00  0.00     0.136 C 
HETATM   16  O   LIG     1      22.302  18.568  27.329  1.00  0.00    -0.297 OA
HETATM   17  C   LIG     1      26.191  23.526  25.129  1.00  0.00    -0.043 A 
HETATM   18  C   LIG     1      26.599  23.473  23.780  1.00  0.00     0.011 A 
HETATM   19  C   LIG     1      27.678  24.241  23.334  1.00  0.00     0.037 A 
ENDROOT
BRANCH   1  20
HETATM   20  O   LIG     1      29.423  25.851  23.750  1.00  0.00    -0.361 OA
HETATM   21  H   LIG     1      29.899  26.517  24.347  1.00  0.00     0.217 HD
ENDBRANCH   1  20
TORSDOF 1
ENDMDL
