REMARK  7 active torsions:
REMARK  status: ('A' for Active; 'I' for Inactive)
REMARK    1  A    between atoms: C_2  and  C_3 
REMARK    2  A    between atoms: C_2  and  C_8 
REMARK    3  A    between atoms: C_3  and  C_4 
REMARK    4  A    between atoms: C_4  and  C_5 
REMARK    5  A    between atoms: C_5  and  O_6 
REMARK    6  A    between atoms: C_13  and  O_14 
REMARK    7  A    between atoms: C_18  and  O_19 
ROOT
HETATM    1  C   LIG     1       3.099  -1.256  -0.451  1.00  0.00    -0.002 C 
HETATM    2  C   LIG     1       3.235  -0.372  -1.726  1.00  0.00     0.006 C 
HETATM    3  C   LIG     1       1.853   0.230  -2.030  1.00  0.00     0.006 C 
HETATM    4  C   LIG     1       1.020  -0.104  -0.802  1.00  0.00     0.001 C 
HETATM    5  C   LIG     1      -0.525   0.098  -0.823  1.00  0.00     0.024 C 
HETATM    6  C   LIG     1      -1.271  -0.052  -2.184  1.00  0.00     0.123 C 
HETATM    7  C   LIG     1      -2.825  -0.004  -2.012  1.00  0.00     0.037 C 
HETATM    8  C   LIG     1      -3.228   0.611  -0.656  1.00  0.00    -0.001 C 
HETATM    9  C   LIG     1      -4.710   0.986  -0.523  1.00  0.00     0.037 C 
HETATM   10  C   LIG     1      -4.907   1.838   0.754  1.00  0.00     0.118 C 
HETATM   11  C   LIG     1      -4.274   1.211   2.025  1.00  0.00     0.032 C 
HETATM   12  C   LIG     1      -2.835   0.678   1.809  1.00  0.00     0.012 C 
HETATM   13  C   LIG     1      -2.716  -0.244   0.560  1.00  0.00    -0.036 C 
HETATM   14  C   LIG     1      -3.587  -1.520   0.789  1.00  0.00     0.016 C 
HETATM   15  C   LIG     1      -1.235  -0.742   0.275  1.00  0.00     0.001 C 
HETATM   16  C   LIG     1      -0.323  -0.933   1.514  1.00  0.00     0.007 C 
HETATM   17  C   LIG     1       0.985  -1.711   1.181  1.00  0.00     0.010 C 
HETATM   18  C   LIG     1       1.547  -1.447  -0.267  1.00  0.00    -0.036 C 
HETATM   19  C   LIG     1       1.145  -2.653  -1.179  1.00  0.00     0.016 C 
ENDROOT
BRANCH   1  20
HETATM   20  C   LIG     1       3.969  -0.781   0.773  1.00  0.00    -0.013 C 
HETATM   21  C   LIG     1       5.476  -0.863   0.460  1.00  0.00     0.010 C 
BRANCH  20  22
HETATM   22  C   LIG     1       3.606   0.561   1.480  1.00  0.00     0.015 C 
BRANCH  22  23
HETATM   23  C   LIG     1       3.927   1.853   0.709  1.00  0.00     0.110 C 
BRANCH  23  24
HETATM   24  C   LIG     1       3.686   3.050   1.575  1.00  0.00     0.139 C 
HETATM   25  O   LIG     1       4.643   3.808   1.888  1.00  0.00    -0.650 OA
BRANCH  24  26
HETATM   26  O   LIG     1       2.399   3.334   2.024  1.00  0.00    -0.776 OA
HETATM   27  H   LIG     1       2.218   4.147   2.601  1.00  0.00     0.167 HD
ENDBRANCH  24  26
ENDBRANCH  23  24
ENDBRANCH  22  23
ENDBRANCH  20  22
ENDBRANCH   1  20
BRANCH   6  28
HETATM   28  O   LIG     1      -0.911  -1.249  -2.819  1.00  0.00    -0.395 OA
HETATM   29  H   LIG     1      -1.182  -1.161  -3.770  1.00  0.00     0.210 HD
ENDBRANCH   6  28
BRANCH  10  30
HETATM   30  O   LIG     1      -6.271   2.103   0.959  1.00  0.00    -0.396 OA
HETATM   31  H   LIG     1      -6.718   1.236   1.146  1.00  0.00     0.210 HD
ENDBRANCH  10  30
TORSDOF 7
