REMARK  4 active torsions:
REMARK  status: ('A' for Active; 'I' for Inactive)
REMARK    1  A    between atoms: O_1  and  C_2 
REMARK    2  A    between atoms: C_10  and  O_11 
REMARK    3  A    between atoms: C_12  and  O_13 
REMARK    4  A    between atoms: C_17  and  O_18 
ROOT
HETATM    1  C   LIG     1      -0.610   1.726  -0.671  1.00  0.00     0.112 A 
HETATM    2  C   LIG     1      -2.139   1.896  -0.450  1.00  0.00     0.084 A 
HETATM    3  C   LIG     1       0.240   2.545   0.319  1.00  0.00     0.219 C 
HETATM    4  O   LIG     1       1.615   2.136   0.272  1.00  0.00    -0.344 OA
HETATM    5  C   LIG     1       2.021   0.805   0.053  1.00  0.00     0.115 A 
HETATM    6  C   LIG     1       1.071  -0.175  -0.288  1.00  0.00     0.011 A 
HETATM    7  C   LIG     1       1.492  -1.470  -0.612  1.00  0.00     0.018 A 
HETATM    8  C   LIG     1       2.843  -1.808  -0.514  1.00  0.00     0.040 A 
HETATM    9  C   LIG     1       3.793  -0.856  -0.126  1.00  0.00     0.101 A 
HETATM   10  C   LIG     1       3.380   0.471   0.147  1.00  0.00     0.133 A 
HETATM   11  C   LIG     1      -0.330   0.271  -0.399  1.00  0.00     0.002 A 
HETATM   12  C   LIG     1      -1.432  -0.381  -0.040  1.00  0.00    -0.017 A 
HETATM   13  C   LIG     1      -1.589  -1.751   0.496  1.00  0.00     0.053 A 
HETATM   14  C   LIG     1      -2.817  -2.179   0.842  1.00  0.00     0.116 A 
HETATM   15  C   LIG     1      -2.563   0.521  -0.075  1.00  0.00    -0.040 A 
HETATM   16  C   LIG     1      -3.792   0.126   0.266  1.00  0.00     0.065 A 
HETATM   17  C   LIG     1      -3.987  -1.271   0.712  1.00  0.00     0.205 A 
HETATM   18  O   LIG     1      -5.142  -1.681   1.002  1.00  0.00    -0.285 OA
ENDROOT
BRANCH   1  19
HETATM   19  O   LIG     1      -0.247   2.067  -1.988  1.00  0.00    -0.382 OA
HETATM   20  H   LIG     1      -0.730   1.455  -2.605  1.00  0.00     0.211 HD
ENDBRANCH   1  19
BRANCH  10  21
HETATM   21  O   LIG     1       4.280   1.479   0.502  1.00  0.00    -0.356 OA
HETATM   22  H   LIG     1       5.278   1.346   0.575  1.00  0.00     0.218 HD
ENDBRANCH  10  21
BRANCH  14  23
HETATM   23  O   LIG     1      -3.004  -3.469   1.336  1.00  0.00    -0.357 OA
HETATM   24  H   LIG     1      -2.232  -4.118   1.443  1.00  0.00     0.218 HD
ENDBRANCH  14  23
BRANCH   9  25
HETATM   25  O   LIG     1       5.125  -1.266  -0.034  1.00  0.00    -0.358 OA
HETATM   26  H   LIG     1       5.882  -0.664   0.255  1.00  0.00     0.217 HD
ENDBRANCH   9  25
TORSDOF 4
