REMARK  10 active torsions:
REMARK  status: ('A' for Active; 'I' for Inactive)
REMARK    1  A    between atoms: O_1  and  C_2 
REMARK    2  A    between atoms: C_9  and  O_10 
REMARK    3  A    between atoms: C_13  and  C_14 
REMARK    4  A    between atoms: C_14  and  C_16 
REMARK    5  A    between atoms: C_16  and  C_17 
REMARK    6  A    between atoms: C_17  and  C_18 
REMARK       I    between atoms: C_18  and  N_19 
REMARK    7  A    between atoms: N_19  and  C_20 
REMARK    8  A    between atoms: C_20  and  C_21 
REMARK    9  A    between atoms: C_21  and  O_22 
REMARK   10  A    between atoms: C_29  and  O_30 
ROOT
HETATM    1  C   LIG     1      -6.414  -0.738  -0.649  1.00  0.00     0.118 C 
HETATM    2  C   LIG     1      -5.698  -1.847   0.169  1.00  0.00     0.032 C 
HETATM    3  C   LIG     1      -4.168  -1.636   0.311  1.00  0.00     0.012 C 
HETATM    4  C   LIG     1      -3.801  -0.199   0.778  1.00  0.00    -0.036 C 
HETATM    5  C   LIG     1      -4.368   0.024   2.218  1.00  0.00     0.016 C 
HETATM    6  C   LIG     1      -2.238   0.076   0.843  1.00  0.00     0.003 C 
HETATM    7  C   LIG     1      -1.347  -1.115   1.286  1.00  0.00     0.038 C 
HETATM    8  C   LIG     1       0.184  -0.773   1.474  1.00  0.00     0.127 C 
HETATM    9  C   LIG     1       0.651   0.571   0.776  1.00  0.00    -0.010 C 
HETATM   10  C   LIG     1       0.375   1.756   1.770  1.00  0.00     0.018 C 
HETATM   11  C   LIG     1       2.150   0.798   0.260  1.00  0.00     0.000 C 
HETATM   12  C   LIG     1       2.052   1.282  -1.209  1.00  0.00     0.006 C 
HETATM   13  C   LIG     1       0.595   1.661  -1.430  1.00  0.00     0.006 C 
HETATM   14  C   LIG     1      -0.147   0.678  -0.544  1.00  0.00     0.003 C 
HETATM   15  C   LIG     1      -1.699   0.768  -0.439  1.00  0.00     0.024 C 
HETATM   16  C   LIG     1      -2.332   2.190  -0.567  1.00  0.00     0.123 C 
HETATM   17  C   LIG     1      -3.851   2.196  -0.186  1.00  0.00     0.037 C 
HETATM   18  C   LIG     1      -4.451   0.776  -0.268  1.00  0.00    -0.001 C 
HETATM   19  C   LIG     1      -5.983   0.699  -0.263  1.00  0.00     0.037 C 
ENDROOT
BRANCH  11  20
HETATM   20  C   LIG     1       3.342  -0.185   0.523  1.00  0.00    -0.013 C 
HETATM   21  C   LIG     1       3.584  -0.425   2.022  1.00  0.00     0.010 C 
BRANCH  20  22
HETATM   22  C   LIG     1       3.377  -1.511  -0.298  1.00  0.00     0.014 C 
BRANCH  22  23
HETATM   23  C   LIG     1       4.750  -1.786  -0.938  1.00  0.00     0.103 C 
BRANCH  23  24
HETATM   24  C   LIG     1       5.040  -0.836  -2.073  1.00  0.00     0.218 C 
HETATM   25  N   LIG     1       6.094   0.142  -2.023  1.00  0.00    -0.351 N 
HETATM   26  H   LIG     1       6.141   0.841  -2.799  1.00  0.00     0.163 HD
HETATM   27  O   LIG     1       4.324  -0.900  -3.109  1.00  0.00    -0.274 OA
BRANCH  25  28
HETATM   28  C   LIG     1       7.104   0.234  -0.970  1.00  0.00     0.232 C 
BRANCH  28  29
HETATM   29  C   LIG     1       8.084  -0.893  -1.087  1.00  0.00     0.158 C 
HETATM   30  O   LIG     1       8.262  -1.677  -0.118  1.00  0.00    -0.649 OA
BRANCH  29  31
HETATM   31  O   LIG     1       8.820  -1.070  -2.254  1.00  0.00    -0.775 OA
HETATM   32  H   LIG     1       8.704  -0.449  -3.045  1.00  0.00     0.167 HD
ENDBRANCH  29  31
ENDBRANCH  28  29
ENDBRANCH  25  28
ENDBRANCH  23  24
ENDBRANCH  22  23
ENDBRANCH  20  22
ENDBRANCH  11  20
BRANCH   8  33
HETATM   33  O   LIG     1       0.936  -1.883   1.072  1.00  0.00    -0.395 OA
HETATM   34  H   LIG     1       0.706  -2.088   0.130  1.00  0.00     0.210 HD
ENDBRANCH   8  33
BRANCH  16  35
HETATM   35  O   LIG     1      -2.180   2.641  -1.887  1.00  0.00    -0.395 OA
HETATM   36  H   LIG     1      -2.267   3.629  -1.866  1.00  0.00     0.210 HD
ENDBRANCH  16  35
BRANCH   1  37
HETATM   37  O   LIG     1      -7.809  -0.871  -0.555  1.00  0.00    -0.396 OA
HETATM   38  H   LIG     1      -8.054  -0.788   0.403  1.00  0.00     0.210 HD
ENDBRANCH   1  37
TORSDOF 10
