MODEL 1
REMARK VINA RESULT:      -5.2      0.000      0.000
REMARK  10 active torsions:
REMARK  status: ('A' for Active; 'I' for Inactive)
REMARK    1  A    between atoms: O_1  and  C_2 
REMARK    2  A    between atoms: C_9  and  O_10 
REMARK    3  A    between atoms: C_13  and  C_14 
REMARK    4  A    between atoms: C_14  and  C_16 
REMARK    5  A    between atoms: C_16  and  C_17 
REMARK    6  A    between atoms: C_17  and  C_18 
REMARK       I    between atoms: C_18  and  N_19 
REMARK    7  A    between atoms: N_19  and  C_20 
REMARK    8  A    between atoms: C_20  and  C_21 
REMARK    9  A    between atoms: C_21  and  O_22 
REMARK   10  A    between atoms: C_29  and  O_30 
ROOT
HETATM    1  C   LIG     1      28.860  28.315  29.119  1.00  0.00     0.118 C 
HETATM    2  C   LIG     1      27.683  27.643  29.877  1.00  0.00     0.032 C 
HETATM    3  C   LIG     1      26.992  26.503  29.084  1.00  0.00     0.012 C 
HETATM    4  C   LIG     1      28.004  25.480  28.498  1.00  0.00    -0.036 C 
HETATM    5  C   LIG     1      28.732  24.757  29.678  1.00  0.00     0.016 C 
HETATM    6  C   LIG     1      27.333  24.353  27.602  1.00  0.00     0.003 C 
HETATM    7  C   LIG     1      25.932  23.860  28.051  1.00  0.00     0.038 C 
HETATM    8  C   LIG     1      25.352  22.645  27.224  1.00  0.00     0.127 C 
HETATM    9  C   LIG     1      26.053  22.406  25.823  1.00  0.00    -0.010 C 
HETATM   10  C   LIG     1      27.316  21.501  26.060  1.00  0.00     0.018 C 
HETATM   11  C   LIG     1      25.291  21.743  24.580  1.00  0.00     0.000 C 
HETATM   12  C   LIG     1      25.510  22.680  23.366  1.00  0.00     0.006 C 
HETATM   13  C   LIG     1      26.620  23.639  23.770  1.00  0.00     0.006 C 
HETATM   14  C   LIG     1      26.396  23.805  25.261  1.00  0.00     0.003 C 
HETATM   15  C   LIG     1      27.380  24.688  26.086  1.00  0.00     0.024 C 
HETATM   16  C   LIG     1      28.866  24.721  25.607  1.00  0.00     0.123 C 
HETATM   17  C   LIG     1      29.806  25.417  26.649  1.00  0.00     0.037 C 
HETATM   18  C   LIG     1      29.001  26.313  27.614  1.00  0.00    -0.001 C 
HETATM   19  C   LIG     1      29.823  27.307  28.443  1.00  0.00     0.037 C 
ENDROOT
BRANCH  11  20
HETATM   20  C   LIG     1      23.855  21.118  24.645  1.00  0.00    -0.013 C 
HETATM   21  C   LIG     1      23.194  21.024  23.261  1.00  0.00     0.010 C 
BRANCH  20  22
HETATM   22  C   LIG     1      23.677  19.807  25.472  1.00  0.00     0.014 C 
BRANCH  22  23
HETATM   23  C   LIG     1      22.434  19.834  26.381  1.00  0.00     0.103 C 
BRANCH  23  24
HETATM   24  C   LIG     1      22.805  19.752  27.840  1.00  0.00     0.218 C 
HETATM   25  N   LIG     1      21.831  19.808  28.898  1.00  0.00    -0.351 N 
HETATM   26  H   LIG     1      22.187  19.872  29.879  1.00  0.00     0.163 HD
HETATM   27  O   LIG     1      24.022  19.634  28.146  1.00  0.00    -0.274 OA
BRANCH  25  28
HETATM   28  C   LIG     1      20.382  19.782  28.706  1.00  0.00     0.232 C 
BRANCH  28  29
HETATM   29  C   LIG     1      19.810  21.157  28.863  1.00  0.00     0.158 C 
HETATM   30  O   LIG     1      20.058  22.045  28.006  1.00  0.00    -0.649 OA
BRANCH  29  31
HETATM   31  O   LIG     1      19.020  21.472  29.965  1.00  0.00    -0.775 OA
HETATM   32  H   LIG     1      18.329  20.821  30.316  1.00  0.00     0.167 HD
ENDBRANCH  29  31
ENDBRANCH  28  29
ENDBRANCH  25  28
ENDBRANCH  23  24
ENDBRANCH  22  23
ENDBRANCH  20  22
ENDBRANCH  11  20
BRANCH   8  33
HETATM   33  O   LIG     1      23.966  22.807  27.116  1.00  0.00    -0.395 OA
HETATM   34  H   LIG     1      23.561  22.602  27.997  1.00  0.00     0.210 HD
ENDBRANCH   8  33
BRANCH  16  35
HETATM   35  O   LIG     1      28.937  25.406  24.385  1.00  0.00    -0.395 OA
HETATM   36  H   LIG     1      29.522  24.871  23.788  1.00  0.00     0.210 HD
ENDBRANCH  16  35
BRANCH   1  37
HETATM   37  O   LIG     1      29.573  29.177  29.967  1.00  0.00    -0.396 OA
HETATM   38  H   LIG     1      30.496  28.823  30.048  1.00  0.00     0.210 HD
ENDBRANCH   1  37
TORSDOF 10
ENDMDL
MODEL 2
REMARK VINA RESULT:      -5.1      1.857      2.820
REMARK  10 active torsions:
REMARK  status: ('A' for Active; 'I' for Inactive)
REMARK    1  A    between atoms: O_1  and  C_2 
REMARK    2  A    between atoms: C_9  and  O_10 
REMARK    3  A    between atoms: C_13  and  C_14 
REMARK    4  A    between atoms: C_14  and  C_16 
REMARK    5  A    between atoms: C_16  and  C_17 
REMARK    6  A    between atoms: C_17  and  C_18 
REMARK       I    between atoms: C_18  and  N_19 
REMARK    7  A    between atoms: N_19  and  C_20 
REMARK    8  A    between atoms: C_20  and  C_21 
REMARK    9  A    between atoms: C_21  and  O_22 
REMARK   10  A    between atoms: C_29  and  O_30 
ROOT
HETATM    1  C   LIG     1      28.589  27.988  29.894  1.00  0.00     0.118 C 
HETATM    2  C   LIG     1      27.286  27.151  30.010  1.00  0.00     0.032 C 
HETATM    3  C   LIG     1      26.964  26.309  28.748  1.00  0.00     0.012 C 
HETATM    4  C   LIG     1      28.181  25.478  28.253  1.00  0.00    -0.036 C 
HETATM    5  C   LIG     1      28.553  24.426  29.348  1.00  0.00     0.016 C 
HETATM    6  C   LIG     1      27.910  24.678  26.908  1.00  0.00     0.003 C 
HETATM    7  C   LIG     1      26.479  24.107  26.723  1.00  0.00     0.038 C 
HETATM    8  C   LIG     1      26.278  23.201  25.445  1.00  0.00     0.127 C 
HETATM    9  C   LIG     1      27.399  23.366  24.337  1.00  0.00    -0.010 C 
HETATM   10  C   LIG     1      28.586  22.403  24.700  1.00  0.00     0.018 C 
HETATM   11  C   LIG     1      27.116  23.112  22.781  1.00  0.00     0.000 C 
HETATM   12  C   LIG     1      27.636  24.359  22.020  1.00  0.00     0.006 C 
HETATM   13  C   LIG     1      28.490  25.132  23.014  1.00  0.00     0.006 C 
HETATM   14  C   LIG     1      27.798  24.859  24.337  1.00  0.00     0.003 C 
HETATM   15  C   LIG     1      28.406  25.440  25.649  1.00  0.00     0.024 C 
HETATM   16  C   LIG     1      29.960  25.578  25.703  1.00  0.00     0.123 C 
HETATM   17  C   LIG     1      30.472  25.917  27.144  1.00  0.00     0.037 C 
HETATM   18  C   LIG     1      29.341  26.510  28.011  1.00  0.00    -0.001 C 
HETATM   19  C   LIG     1      29.787  27.200  29.307  1.00  0.00     0.037 C 
ENDROOT
BRANCH  11  20
HETATM   20  C   LIG     1      25.783  22.529  22.200  1.00  0.00    -0.013 C 
HETATM   21  C   LIG     1      25.321  23.269  20.935  1.00  0.00     0.010 C 
BRANCH  20  22
HETATM   22  C   LIG     1      25.681  20.980  22.046  1.00  0.00     0.014 C 
BRANCH  22  23
HETATM   23  C   LIG     1      25.152  20.283  23.313  1.00  0.00     0.103 C 
BRANCH  23  24
HETATM   24  C   LIG     1      23.652  20.386  23.424  1.00  0.00     0.218 C 
HETATM   25  N   LIG     1      22.958  20.351  24.684  1.00  0.00    -0.351 N 
HETATM   26  H   LIG     1      21.914  20.300  24.659  1.00  0.00     0.163 HD
HETATM   27  O   LIG     1      22.976  20.503  22.366  1.00  0.00    -0.274 OA
BRANCH  25  28
HETATM   28  C   LIG     1      23.601  20.381  25.997  1.00  0.00     0.232 C 
BRANCH  28  29
HETATM   29  C   LIG     1      22.846  21.280  26.927  1.00  0.00     0.158 C 
HETATM   30  O   LIG     1      21.740  20.911  27.402  1.00  0.00    -0.649 OA
BRANCH  29  31
HETATM   31  O   LIG     1      23.347  22.536  27.257  1.00  0.00    -0.775 OA
HETATM   32  H   LIG     1      24.259  22.640  27.683  1.00  0.00     0.167 HD
ENDBRANCH  29  31
ENDBRANCH  28  29
ENDBRANCH  25  28
ENDBRANCH  23  24
ENDBRANCH  22  23
ENDBRANCH  20  22
ENDBRANCH  11  20
BRANCH   8  33
HETATM   33  O   LIG     1      24.988  23.419  24.948  1.00  0.00    -0.395 OA
HETATM   34  H   LIG     1      24.635  24.250  25.357  1.00  0.00     0.210 HD
ENDBRANCH   8  33
BRANCH  16  35
HETATM   35  O   LIG     1      30.361  26.589  24.816  1.00  0.00    -0.395 OA
HETATM   36  H   LIG     1      31.332  26.464  24.657  1.00  0.00     0.210 HD
ENDBRANCH  16  35
BRANCH   1  37
HETATM   37  O   LIG     1      28.934  28.548  31.134  1.00  0.00    -0.396 OA
HETATM   38  H   LIG     1      29.772  28.112  31.437  1.00  0.00     0.210 HD
ENDBRANCH   1  37
TORSDOF 10
ENDMDL
MODEL 3
REMARK VINA RESULT:      -5.1      4.007      7.993
REMARK  10 active torsions:
REMARK  status: ('A' for Active; 'I' for Inactive)
REMARK    1  A    between atoms: O_1  and  C_2 
REMARK    2  A    between atoms: C_9  and  O_10 
REMARK    3  A    between atoms: C_13  and  C_14 
REMARK    4  A    between atoms: C_14  and  C_16 
REMARK    5  A    between atoms: C_16  and  C_17 
REMARK    6  A    between atoms: C_17  and  C_18 
REMARK       I    between atoms: C_18  and  N_19 
REMARK    7  A    between atoms: N_19  and  C_20 
REMARK    8  A    between atoms: C_20  and  C_21 
REMARK    9  A    between atoms: C_21  and  O_22 
REMARK   10  A    between atoms: C_29  and  O_30 
ROOT
HETATM    1  C   LIG     1      26.520  24.718  19.489  1.00  0.00     0.118 C 
HETATM    2  C   LIG     1      27.732  25.643  19.783  1.00  0.00     0.032 C 
HETATM    3  C   LIG     1      28.047  25.808  21.293  1.00  0.00     0.012 C 
HETATM    4  C   LIG     1      28.121  24.448  22.043  1.00  0.00    -0.036 C 
HETATM    5  C   LIG     1      29.321  23.623  21.474  1.00  0.00     0.016 C 
HETATM    6  C   LIG     1      28.349  24.588  23.608  1.00  0.00     0.003 C 
HETATM    7  C   LIG     1      29.260  25.757  24.069  1.00  0.00     0.038 C 
HETATM    8  C   LIG     1      29.579  25.788  25.616  1.00  0.00     0.127 C 
HETATM    9  C   LIG     1      28.599  24.922  26.510  1.00  0.00    -0.010 C 
HETATM   10  C   LIG     1      29.142  23.448  26.537  1.00  0.00     0.018 C 
HETATM   11  C   LIG     1      28.284  25.280  28.039  1.00  0.00     0.000 C 
HETATM   12  C   LIG     1      26.742  25.298  28.189  1.00  0.00     0.006 C 
HETATM   13  C   LIG     1      26.190  24.643  26.931  1.00  0.00     0.006 C 
HETATM   14  C   LIG     1      27.197  25.049  25.871  1.00  0.00     0.003 C 
HETATM   15  C   LIG     1      27.023  24.524  24.414  1.00  0.00     0.024 C 
HETATM   16  C   LIG     1      26.382  23.110  24.247  1.00  0.00     0.123 C 
HETATM   17  C   LIG     1      26.497  22.579  22.778  1.00  0.00     0.037 C 
HETATM   18  C   LIG     1      26.744  23.736  21.786  1.00  0.00    -0.001 C 
HETATM   19  C   LIG     1      26.528  23.401  20.305  1.00  0.00     0.037 C 
ENDROOT
BRANCH  11  20
HETATM   20  C   LIG     1      29.012  26.399  28.861  1.00  0.00    -0.013 C 
HETATM   21  C   LIG     1      28.044  27.486  29.354  1.00  0.00     0.010 C 
BRANCH  20  22
HETATM   22  C   LIG     1      30.004  25.944  29.976  1.00  0.00     0.014 C 
BRANCH  22  23
HETATM   23  C   LIG     1      29.695  26.571  31.348  1.00  0.00     0.103 C 
BRANCH  23  24
HETATM   24  C   LIG     1      28.880  25.645  32.216  1.00  0.00     0.218 C 
HETATM   25  N   LIG     1      28.155  26.096  33.374  1.00  0.00    -0.351 N 
HETATM   26  H   LIG     1      27.724  25.368  33.988  1.00  0.00     0.163 HD
HETATM   27  O   LIG     1      28.836  24.421  31.915  1.00  0.00    -0.274 OA
BRANCH  25  28
HETATM   28  C   LIG     1      27.976  27.495  33.759  1.00  0.00     0.232 C 
BRANCH  28  29
HETATM   29  C   LIG     1      26.569  27.934  33.491  1.00  0.00     0.158 C 
HETATM   30  O   LIG     1      26.058  28.862  34.171  1.00  0.00    -0.649 OA
BRANCH  29  31
HETATM   31  O   LIG     1      25.810  27.308  32.508  1.00  0.00    -0.775 OA
HETATM   32  H   LIG     1      25.626  26.313  32.543  1.00  0.00     0.167 HD
ENDBRANCH  29  31
ENDBRANCH  28  29
ENDBRANCH  25  28
ENDBRANCH  23  24
ENDBRANCH  22  23
ENDBRANCH  20  22
ENDBRANCH  11  20
BRANCH   8  33
HETATM   33  O   LIG     1      29.648  27.125  26.025  1.00  0.00    -0.395 OA
HETATM   34  H   LIG     1      29.662  27.696  25.215  1.00  0.00     0.210 HD
ENDBRANCH   8  33
BRANCH  16  35
HETATM   35  O   LIG     1      25.029  23.174  24.615  1.00  0.00    -0.395 OA
HETATM   36  H   LIG     1      24.510  22.757  23.880  1.00  0.00     0.210 HD
ENDBRANCH  16  35
BRANCH   1  37
HETATM   37  O   LIG     1      26.426  24.441  18.116  1.00  0.00    -0.396 OA
HETATM   38  H   LIG     1      25.496  24.147  17.932  1.00  0.00     0.210 HD
ENDBRANCH   1  37
TORSDOF 10
ENDMDL
MODEL 4
REMARK VINA RESULT:      -5.1      3.489      8.163
REMARK  10 active torsions:
REMARK  status: ('A' for Active; 'I' for Inactive)
REMARK    1  A    between atoms: O_1  and  C_2 
REMARK    2  A    between atoms: C_9  and  O_10 
REMARK    3  A    between atoms: C_13  and  C_14 
REMARK    4  A    between atoms: C_14  and  C_16 
REMARK    5  A    between atoms: C_16  and  C_17 
REMARK    6  A    between atoms: C_17  and  C_18 
REMARK       I    between atoms: C_18  and  N_19 
REMARK    7  A    between atoms: N_19  and  C_20 
REMARK    8  A    between atoms: C_20  and  C_21 
REMARK    9  A    between atoms: C_21  and  O_22 
REMARK   10  A    between atoms: C_29  and  O_30 
ROOT
HETATM    1  C   LIG     1      23.668  19.469  21.534  1.00  0.00     0.118 C 
HETATM    2  C   LIG     1      22.798  20.218  22.580  1.00  0.00     0.032 C 
HETATM    3  C   LIG     1      23.615  21.068  23.587  1.00  0.00     0.012 C 
HETATM    4  C   LIG     1      24.658  21.986  22.890  1.00  0.00    -0.036 C 
HETATM    5  C   LIG     1      23.901  23.034  22.010  1.00  0.00     0.016 C 
HETATM    6  C   LIG     1      25.575  22.800  23.900  1.00  0.00     0.003 C 
HETATM    7  C   LIG     1      24.897  23.282  25.210  1.00  0.00     0.038 C 
HETATM    8  C   LIG     1      25.793  24.204  26.129  1.00  0.00     0.127 C 
HETATM    9  C   LIG     1      27.345  24.139  25.816  1.00  0.00    -0.010 C 
HETATM   10  C   LIG     1      27.653  25.166  24.668  1.00  0.00     0.018 C 
HETATM   11  C   LIG     1      28.461  24.411  26.932  1.00  0.00     0.000 C 
HETATM   12  C   LIG     1      29.450  23.219  26.880  1.00  0.00     0.006 C 
HETATM   13  C   LIG     1      29.147  22.478  25.586  1.00  0.00     0.006 C 
HETATM   14  C   LIG     1      27.651  22.674  25.428  1.00  0.00     0.003 C 
HETATM   15  C   LIG     1      26.937  22.102  24.166  1.00  0.00     0.024 C 
HETATM   16  C   LIG     1      27.768  22.062  22.844  1.00  0.00     0.123 C 
HETATM   17  C   LIG     1      26.880  21.722  21.600  1.00  0.00     0.037 C 
HETATM   18  C   LIG     1      25.563  21.037  22.026  1.00  0.00    -0.001 C 
HETATM   19  C   LIG     1      24.779  20.346  20.903  1.00  0.00     0.037 C 
ENDROOT
BRANCH  11  20
HETATM   20  C   LIG     1      28.164  24.922  28.384  1.00  0.00    -0.013 C 
HETATM   21  C   LIG     1      28.409  23.840  29.448  1.00  0.00     0.010 C 
BRANCH  20  22
HETATM   22  C   LIG     1      28.763  26.301  28.799  1.00  0.00     0.014 C 
BRANCH  22  23
HETATM   23  C   LIG     1      27.772  27.172  29.593  1.00  0.00     0.103 C 
BRANCH  23  24
HETATM   24  C   LIG     1      28.476  28.039  30.607  1.00  0.00     0.218 C 
HETATM   25  N   LIG     1      28.517  27.724  32.010  1.00  0.00    -0.351 N 
HETATM   26  H   LIG     1      28.916  28.444  32.655  1.00  0.00     0.163 HD
HETATM   27  O   LIG     1      29.051  29.088  30.207  1.00  0.00    -0.274 OA
BRANCH  25  28
HETATM   28  C   LIG     1      28.043  26.475  32.604  1.00  0.00     0.232 C 
BRANCH  28  29
HETATM   29  C   LIG     1      26.688  26.667  33.212  1.00  0.00     0.158 C 
HETATM   30  O   LIG     1      26.439  26.205  34.357  1.00  0.00    -0.649 OA
BRANCH  29  31
HETATM   31  O   LIG     1      25.689  27.336  32.513  1.00  0.00    -0.775 OA
HETATM   32  H   LIG     1      24.710  27.176  32.717  1.00  0.00     0.167 HD
ENDBRANCH  29  31
ENDBRANCH  28  29
ENDBRANCH  25  28
ENDBRANCH  23  24
ENDBRANCH  22  23
ENDBRANCH  20  22
ENDBRANCH  11  20
BRANCH   8  33
HETATM   33  O   LIG     1      25.496  23.916  27.466  1.00  0.00    -0.395 OA
HETATM   34  H   LIG     1      26.347  23.883  27.972  1.00  0.00     0.210 HD
ENDBRANCH   8  33
BRANCH  16  35
HETATM   35  O   LIG     1      28.782  21.101  22.971  1.00  0.00    -0.395 OA
HETATM   36  H   LIG     1      28.623  20.624  23.826  1.00  0.00     0.210 HD
ENDBRANCH  16  35
BRANCH   1  37
HETATM   37  O   LIG     1      22.865  18.902  20.531  1.00  0.00    -0.396 OA
HETATM   38  H   LIG     1      22.154  18.375  20.979  1.00  0.00     0.210 HD
ENDBRANCH   1  37
TORSDOF 10
ENDMDL
MODEL 5
REMARK VINA RESULT:      -4.9      4.564      8.754
REMARK  10 active torsions:
REMARK  status: ('A' for Active; 'I' for Inactive)
REMARK    1  A    between atoms: O_1  and  C_2 
REMARK    2  A    between atoms: C_9  and  O_10 
REMARK    3  A    between atoms: C_13  and  C_14 
REMARK    4  A    between atoms: C_14  and  C_16 
REMARK    5  A    between atoms: C_16  and  C_17 
REMARK    6  A    between atoms: C_17  and  C_18 
REMARK       I    between atoms: C_18  and  N_19 
REMARK    7  A    between atoms: N_19  and  C_20 
REMARK    8  A    between atoms: C_20  and  C_21 
REMARK    9  A    between atoms: C_21  and  O_22 
REMARK   10  A    between atoms: C_29  and  O_30 
ROOT
HETATM    1  C   LIG     1      25.981  20.374  28.422  1.00  0.00     0.118 C 
HETATM    2  C   LIG     1      27.102  21.243  27.791  1.00  0.00     0.032 C 
HETATM    3  C   LIG     1      26.939  21.470  26.265  1.00  0.00     0.012 C 
HETATM    4  C   LIG     1      25.509  21.941  25.877  1.00  0.00    -0.036 C 
HETATM    5  C   LIG     1      25.249  23.344  26.517  1.00  0.00     0.016 C 
HETATM    6  C   LIG     1      25.284  22.092  24.312  1.00  0.00     0.003 C 
HETATM    7  C   LIG     1      26.497  22.598  23.488  1.00  0.00     0.038 C 
HETATM    8  C   LIG     1      26.203  22.869  21.959  1.00  0.00     0.127 C 
HETATM    9  C   LIG     1      24.884  22.184  21.409  1.00  0.00    -0.010 C 
HETATM   10  C   LIG     1      23.678  23.147  21.702  1.00  0.00     0.018 C 
HETATM   11  C   LIG     1      24.712  21.751  19.877  1.00  0.00     0.000 C 
HETATM   12  C   LIG     1      24.244  20.274  19.876  1.00  0.00     0.006 C 
HETATM   13  C   LIG     1      23.821  19.966  21.305  1.00  0.00     0.006 C 
HETATM   14  C   LIG     1      24.768  20.819  22.128  1.00  0.00     0.003 C 
HETATM   15  C   LIG     1      24.626  20.835  23.679  1.00  0.00     0.024 C 
HETATM   16  C   LIG     1      23.186  20.656  24.256  1.00  0.00     0.123 C 
HETATM   17  C   LIG     1      23.126  20.950  25.793  1.00  0.00     0.037 C 
HETATM   18  C   LIG     1      24.527  20.849  26.435  1.00  0.00    -0.001 C 
HETATM   19  C   LIG     1      24.554  20.768  27.966  1.00  0.00     0.037 C 
ENDROOT
BRANCH  11  20
HETATM   20  C   LIG     1      25.730  22.092  18.735  1.00  0.00    -0.013 C 
HETATM   21  C   LIG     1      25.837  20.970  17.690  1.00  0.00     0.010 C 
BRANCH  20  22
HETATM   22  C   LIG     1      25.626  23.502  18.075  1.00  0.00     0.014 C 
BRANCH  22  23
HETATM   23  C   LIG     1      26.908  24.339  18.240  1.00  0.00     0.103 C 
BRANCH  23  24
HETATM   24  C   LIG     1      26.720  25.462  19.229  1.00  0.00     0.218 C 
HETATM   25  N   LIG     1      27.809  26.273  19.707  1.00  0.00    -0.351 N 
HETATM   26  H   LIG     1      27.607  26.942  20.484  1.00  0.00     0.163 HD
HETATM   27  O   LIG     1      25.558  25.698  19.658  1.00  0.00    -0.274 OA
BRANCH  25  28
HETATM   28  C   LIG     1      29.175  26.231  19.189  1.00  0.00     0.232 C 
BRANCH  28  29
HETATM   29  C   LIG     1      29.378  27.305  18.165  1.00  0.00     0.158 C 
HETATM   30  O   LIG     1      29.046  27.105  16.967  1.00  0.00    -0.649 OA
BRANCH  29  31
HETATM   31  O   LIG     1      29.954  28.520  18.521  1.00  0.00    -0.775 OA
HETATM   32  H   LIG     1      30.908  28.569  18.855  1.00  0.00     0.167 HD
ENDBRANCH  29  31
ENDBRANCH  28  29
ENDBRANCH  25  28
ENDBRANCH  23  24
ENDBRANCH  22  23
ENDBRANCH  20  22
ENDBRANCH  11  20
BRANCH   8  33
HETATM   33  O   LIG     1      27.342  22.522  21.223  1.00  0.00    -0.395 OA
HETATM   34  H   LIG     1      27.245  22.895  20.310  1.00  0.00     0.210 HD
ENDBRANCH   8  33
BRANCH  16  35
HETATM   35  O   LIG     1      22.757  19.342  24.015  1.00  0.00    -0.395 OA
HETATM   36  H   LIG     1      22.507  18.954  24.894  1.00  0.00     0.210 HD
ENDBRANCH  16  35
BRANCH   1  37
HETATM   37  O   LIG     1      26.067  20.390  29.824  1.00  0.00    -0.396 OA
HETATM   38  H   LIG     1      26.950  20.773  30.065  1.00  0.00     0.210 HD
ENDBRANCH   1  37
TORSDOF 10
ENDMDL
MODEL 6
REMARK VINA RESULT:      -4.9      3.706      7.848
REMARK  10 active torsions:
REMARK  status: ('A' for Active; 'I' for Inactive)
REMARK    1  A    between atoms: O_1  and  C_2 
REMARK    2  A    between atoms: C_9  and  O_10 
REMARK    3  A    between atoms: C_13  and  C_14 
REMARK    4  A    between atoms: C_14  and  C_16 
REMARK    5  A    between atoms: C_16  and  C_17 
REMARK    6  A    between atoms: C_17  and  C_18 
REMARK       I    between atoms: C_18  and  N_19 
REMARK    7  A    between atoms: N_19  and  C_20 
REMARK    8  A    between atoms: C_20  and  C_21 
REMARK    9  A    between atoms: C_21  and  O_22 
REMARK   10  A    between atoms: C_29  and  O_30 
ROOT
HETATM    1  C   LIG     1      23.785  21.112  18.971  1.00  0.00     0.118 C 
HETATM    2  C   LIG     1      23.071  20.695  20.286  1.00  0.00     0.032 C 
HETATM    3  C   LIG     1      23.894  20.985  21.568  1.00  0.00     0.012 C 
HETATM    4  C   LIG     1      24.452  22.435  21.609  1.00  0.00    -0.036 C 
HETATM    5  C   LIG     1      23.252  23.436  21.673  1.00  0.00     0.016 C 
HETATM    6  C   LIG     1      25.377  22.733  22.865  1.00  0.00     0.003 C 
HETATM    7  C   LIG     1      24.978  22.037  24.194  1.00  0.00     0.038 C 
HETATM    8  C   LIG     1      25.833  22.460  25.454  1.00  0.00     0.127 C 
HETATM    9  C   LIG     1      27.210  23.164  25.112  1.00  0.00    -0.010 C 
HETATM   10  C   LIG     1      26.936  24.699  24.918  1.00  0.00     0.018 C 
HETATM   11  C   LIG     1      28.482  23.086  26.082  1.00  0.00     0.000 C 
HETATM   12  C   LIG     1      29.683  22.630  25.214  1.00  0.00     0.006 C 
HETATM   13  C   LIG     1      29.235  22.778  23.767  1.00  0.00     0.006 C 
HETATM   14  C   LIG     1      27.751  22.471  23.840  1.00  0.00     0.003 C 
HETATM   15  C   LIG     1      26.888  22.570  22.547  1.00  0.00     0.024 C 
HETATM   16  C   LIG     1      27.316  23.642  21.495  1.00  0.00     0.123 C 
HETATM   17  C   LIG     1      26.239  23.832  20.375  1.00  0.00     0.037 C 
HETATM   18  C   LIG     1      25.296  22.612  20.296  1.00  0.00    -0.001 C 
HETATM   19  C   LIG     1      24.434  22.517  19.031  1.00  0.00     0.037 C 
ENDROOT
BRANCH  11  20
HETATM   20  C   LIG     1      28.470  22.463  27.520  1.00  0.00    -0.013 C 
HETATM   21  C   LIG     1      29.423  21.263  27.647  1.00  0.00     0.010 C 
BRANCH  20  22
HETATM   22  C   LIG     1      28.590  23.440  28.730  1.00  0.00     0.014 C 
BRANCH  22  23
HETATM   23  C   LIG     1      27.227  23.810  29.342  1.00  0.00     0.103 C 
BRANCH  23  24
HETATM   24  C   LIG     1      26.946  25.288  29.234  1.00  0.00     0.218 C 
HETATM   25  N   LIG     1      27.081  26.192  30.345  1.00  0.00    -0.351 N 
HETATM   26  H   LIG     1      26.744  27.173  30.213  1.00  0.00     0.163 HD
HETATM   27  O   LIG     1      26.572  25.749  28.121  1.00  0.00    -0.274 OA
BRANCH  25  28
HETATM   28  C   LIG     1      27.653  25.844  31.645  1.00  0.00     0.232 C 
BRANCH  28  29
HETATM   29  C   LIG     1      26.770  26.334  32.751  1.00  0.00     0.158 C 
HETATM   30  O   LIG     1      26.881  25.849  33.908  1.00  0.00    -0.649 OA
BRANCH  29  31
HETATM   31  O   LIG     1      25.809  27.309  32.507  1.00  0.00    -0.775 OA
HETATM   32  H   LIG     1      25.839  28.204  32.980  1.00  0.00     0.167 HD
ENDBRANCH  29  31
ENDBRANCH  28  29
ENDBRANCH  25  28
ENDBRANCH  23  24
ENDBRANCH  22  23
ENDBRANCH  20  22
ENDBRANCH  11  20
BRANCH   8  33
HETATM   33  O   LIG     1      25.986  21.339  26.279  1.00  0.00    -0.395 OA
HETATM   34  H   LIG     1      26.801  20.853  25.992  1.00  0.00     0.210 HD
ENDBRANCH   8  33
BRANCH  16  35
HETATM   35  O   LIG     1      28.532  23.251  20.912  1.00  0.00    -0.395 OA
HETATM   36  H   LIG     1      28.428  23.355  19.931  1.00  0.00     0.210 HD
ENDBRANCH  16  35
BRANCH   1  37
HETATM   37  O   LIG     1      22.907  21.026  17.878  1.00  0.00    -0.396 OA
HETATM   38  H   LIG     1      23.457  20.903  17.061  1.00  0.00     0.210 HD
ENDBRANCH   1  37
TORSDOF 10
ENDMDL
MODEL 7
REMARK VINA RESULT:      -4.7      3.414      8.356
REMARK  10 active torsions:
REMARK  status: ('A' for Active; 'I' for Inactive)
REMARK    1  A    between atoms: O_1  and  C_2 
REMARK    2  A    between atoms: C_9  and  O_10 
REMARK    3  A    between atoms: C_13  and  C_14 
REMARK    4  A    between atoms: C_14  and  C_16 
REMARK    5  A    between atoms: C_16  and  C_17 
REMARK    6  A    between atoms: C_17  and  C_18 
REMARK       I    between atoms: C_18  and  N_19 
REMARK    7  A    between atoms: N_19  and  C_20 
REMARK    8  A    between atoms: C_20  and  C_21 
REMARK    9  A    between atoms: C_21  and  O_22 
REMARK   10  A    between atoms: C_29  and  O_30 
ROOT
HETATM    1  C   LIG     1      23.142  21.804  19.207  1.00  0.00     0.118 C 
HETATM    2  C   LIG     1      24.350  22.780  19.241  1.00  0.00     0.032 C 
HETATM    3  C   LIG     1      24.938  23.005  20.658  1.00  0.00     0.012 C 
HETATM    4  C   LIG     1      25.207  21.674  21.415  1.00  0.00    -0.036 C 
HETATM    5  C   LIG     1      26.310  20.873  20.650  1.00  0.00     0.016 C 
HETATM    6  C   LIG     1      25.722  21.875  22.904  1.00  0.00     0.003 C 
HETATM    7  C   LIG     1      26.656  23.089  23.152  1.00  0.00     0.038 C 
HETATM    8  C   LIG     1      27.261  23.183  24.609  1.00  0.00     0.127 C 
HETATM    9  C   LIG     1      26.504  22.313  25.696  1.00  0.00    -0.010 C 
HETATM   10  C   LIG     1      27.100  20.860  25.657  1.00  0.00     0.018 C 
HETATM   11  C   LIG     1      26.470  22.711  27.247  1.00  0.00     0.000 C 
HETATM   12  C   LIG     1      24.985  22.681  27.687  1.00  0.00     0.006 C 
HETATM   13  C   LIG     1      24.231  21.966  26.575  1.00  0.00     0.006 C 
HETATM   14  C   LIG     1      25.002  22.370  25.332  1.00  0.00     0.003 C 
HETATM   15  C   LIG     1      24.576  21.792  23.949  1.00  0.00     0.024 C 
HETATM   16  C   LIG     1      23.972  20.351  23.945  1.00  0.00     0.123 C 
HETATM   17  C   LIG     1      23.829  19.777  22.495  1.00  0.00     0.037 C 
HETATM   18  C   LIG     1      23.836  20.908  21.445  1.00  0.00    -0.001 C 
HETATM   19  C   LIG     1      23.357  20.516  20.041  1.00  0.00     0.037 C 
ENDROOT
BRANCH  11  20
HETATM   20  C   LIG     1      27.295  23.881  27.885  1.00  0.00    -0.013 C 
HETATM   21  C   LIG     1      26.516  25.206  27.901  1.00  0.00     0.010 C 
BRANCH  20  22
HETATM   22  C   LIG     1      28.009  23.602  29.244  1.00  0.00     0.014 C 
BRANCH  22  23
HETATM   23  C   LIG     1      27.616  24.602  30.346  1.00  0.00     0.103 C 
BRANCH  23  24
HETATM   24  C   LIG     1      28.811  25.359  30.868  1.00  0.00     0.218 C 
HETATM   25  N   LIG     1      28.824  26.008  32.152  1.00  0.00    -0.351 N 
HETATM   26  H   LIG     1      29.645  26.615  32.377  1.00  0.00     0.163 HD
HETATM   27  O   LIG     1      29.842  25.428  30.146  1.00  0.00    -0.274 OA
BRANCH  25  28
HETATM   28  C   LIG     1      27.778  25.886  33.165  1.00  0.00     0.232 C 
BRANCH  28  29
HETATM   29  C   LIG     1      26.953  27.135  33.218  1.00  0.00     0.158 C 
HETATM   30  O   LIG     1      27.310  28.096  33.950  1.00  0.00    -0.649 OA
BRANCH  29  31
HETATM   31  O   LIG     1      25.779  27.237  32.480  1.00  0.00    -0.775 OA
HETATM   32  H   LIG     1      25.718  26.867  31.539  1.00  0.00     0.167 HD
ENDBRANCH  29  31
ENDBRANCH  28  29
ENDBRANCH  25  28
ENDBRANCH  23  24
ENDBRANCH  22  23
ENDBRANCH  20  22
ENDBRANCH  11  20
BRANCH   8  33
HETATM   33  O   LIG     1      27.353  24.534  24.962  1.00  0.00    -0.395 OA
HETATM   34  H   LIG     1      27.588  24.587  25.923  1.00  0.00     0.210 HD
ENDBRANCH   8  33
BRANCH  16  35
HETATM   35  O   LIG     1      22.712  20.382  24.562  1.00  0.00    -0.395 OA
HETATM   36  H   LIG     1      22.637  21.258  25.021  1.00  0.00     0.210 HD
ENDBRANCH  16  35
BRANCH   1  37
HETATM   37  O   LIG     1      22.801  21.478  17.885  1.00  0.00    -0.396 OA
HETATM   38  H   LIG     1      21.817  21.570  17.798  1.00  0.00     0.210 HD
ENDBRANCH   1  37
TORSDOF 10
ENDMDL
MODEL 8
REMARK VINA RESULT:      -4.7      3.337      8.193
REMARK  10 active torsions:
REMARK  status: ('A' for Active; 'I' for Inactive)
REMARK    1  A    between atoms: O_1  and  C_2 
REMARK    2  A    between atoms: C_9  and  O_10 
REMARK    3  A    between atoms: C_13  and  C_14 
REMARK    4  A    between atoms: C_14  and  C_16 
REMARK    5  A    between atoms: C_16  and  C_17 
REMARK    6  A    between atoms: C_17  and  C_18 
REMARK       I    between atoms: C_18  and  N_19 
REMARK    7  A    between atoms: N_19  and  C_20 
REMARK    8  A    between atoms: C_20  and  C_21 
REMARK    9  A    between atoms: C_21  and  O_22 
REMARK   10  A    between atoms: C_29  and  O_30 
ROOT
HETATM    1  C   LIG     1      23.569  20.591  18.748  1.00  0.00     0.118 C 
HETATM    2  C   LIG     1      22.810  19.928  19.929  1.00  0.00     0.032 C 
HETATM    3  C   LIG     1      23.452  20.191  21.316  1.00  0.00     0.012 C 
HETATM    4  C   LIG     1      23.766  21.694  21.558  1.00  0.00    -0.036 C 
HETATM    5  C   LIG     1      22.421  22.492  21.585  1.00  0.00     0.016 C 
HETATM    6  C   LIG     1      24.509  21.983  22.932  1.00  0.00     0.003 C 
HETATM    7  C   LIG     1      24.103  21.091  24.135  1.00  0.00     0.038 C 
HETATM    8  C   LIG     1      24.756  21.492  25.517  1.00  0.00     0.127 C 
HETATM    9  C   LIG     1      26.030  22.427  25.398  1.00  0.00    -0.010 C 
HETATM   10  C   LIG     1      25.535  23.916  25.324  1.00  0.00     0.018 C 
HETATM   11  C   LIG     1      27.201  22.429  26.491  1.00  0.00     0.000 C 
HETATM   12  C   LIG     1      28.535  22.257  25.721  1.00  0.00     0.006 C 
HETATM   13  C   LIG     1      28.209  22.499  24.255  1.00  0.00     0.006 C 
HETATM   14  C   LIG     1      26.792  21.968  24.133  1.00  0.00     0.003 C 
HETATM   15  C   LIG     1      26.050  22.082  22.768  1.00  0.00     0.024 C 
HETATM   16  C   LIG     1      26.399  23.317  21.878  1.00  0.00     0.123 C 
HETATM   17  C   LIG     1      25.416  23.470  20.669  1.00  0.00     0.037 C 
HETATM   18  C   LIG     1      24.691  22.140  20.370  1.00  0.00    -0.001 C 
HETATM   19  C   LIG     1      23.977  22.061  19.014  1.00  0.00     0.037 C 
ENDROOT
BRANCH  11  20
HETATM   20  C   LIG     1      27.153  21.654  27.852  1.00  0.00    -0.013 C 
HETATM   21  C   LIG     1      28.406  20.794  28.082  1.00  0.00     0.010 C 
BRANCH  20  22
HETATM   22  C   LIG     1      26.751  22.459  29.126  1.00  0.00     0.014 C 
BRANCH  22  23
HETATM   23  C   LIG     1      27.092  23.957  29.024  1.00  0.00     0.103 C 
BRANCH  23  24
HETATM   24  C   LIG     1      28.396  24.283  29.709  1.00  0.00     0.218 C 
HETATM   25  N   LIG     1      29.212  25.408  29.340  1.00  0.00    -0.351 N 
HETATM   26  H   LIG     1      30.157  25.484  29.781  1.00  0.00     0.163 HD
HETATM   27  O   LIG     1      28.787  23.533  30.644  1.00  0.00    -0.274 OA
BRANCH  25  28
HETATM   28  C   LIG     1      28.823  26.454  28.396  1.00  0.00     0.232 C 
BRANCH  28  29
HETATM   29  C   LIG     1      28.270  27.638  29.127  1.00  0.00     0.158 C 
HETATM   30  O   LIG     1      29.020  28.607  29.417  1.00  0.00    -0.649 OA
BRANCH  29  31
HETATM   31  O   LIG     1      26.934  27.670  29.512  1.00  0.00    -0.775 OA
HETATM   32  H   LIG     1      26.411  26.815  29.659  1.00  0.00     0.167 HD
ENDBRANCH  29  31
ENDBRANCH  28  29
ENDBRANCH  25  28
ENDBRANCH  23  24
ENDBRANCH  22  23
ENDBRANCH  20  22
ENDBRANCH  11  20
BRANCH   8  33
HETATM   33  O   LIG     1      25.008  20.321  26.241  1.00  0.00    -0.395 OA
HETATM   34  H   LIG     1      25.943  20.354  26.568  1.00  0.00     0.210 HD
ENDBRANCH   8  33
BRANCH  16  35
HETATM   35  O   LIG     1      27.711  23.179  21.398  1.00  0.00    -0.395 OA
HETATM   36  H   LIG     1      27.781  23.741  20.584  1.00  0.00     0.210 HD
ENDBRANCH  16  35
BRANCH   1  37
HETATM   37  O   LIG     1      22.823  20.499  17.561  1.00  0.00    -0.396 OA
HETATM   38  H   LIG     1      22.486  19.568  17.491  1.00  0.00     0.210 HD
ENDBRANCH   1  37
TORSDOF 10
ENDMDL
MODEL 9
REMARK VINA RESULT:      -4.6      5.278      8.853
REMARK  10 active torsions:
REMARK  status: ('A' for Active; 'I' for Inactive)
REMARK    1  A    between atoms: O_1  and  C_2 
REMARK    2  A    between atoms: C_9  and  O_10 
REMARK    3  A    between atoms: C_13  and  C_14 
REMARK    4  A    between atoms: C_14  and  C_16 
REMARK    5  A    between atoms: C_16  and  C_17 
REMARK    6  A    between atoms: C_17  and  C_18 
REMARK       I    between atoms: C_18  and  N_19 
REMARK    7  A    between atoms: N_19  and  C_20 
REMARK    8  A    between atoms: C_20  and  C_21 
REMARK    9  A    between atoms: C_21  and  O_22 
REMARK   10  A    between atoms: C_29  and  O_30 
ROOT
HETATM    1  C   LIG     1      24.653  19.058  28.254  1.00  0.00     0.118 C 
HETATM    2  C   LIG     1      25.649  20.169  27.823  1.00  0.00     0.032 C 
HETATM    3  C   LIG     1      25.572  20.534  26.318  1.00  0.00     0.012 C 
HETATM    4  C   LIG     1      24.117  20.799  25.838  1.00  0.00    -0.036 C 
HETATM    5  C   LIG     1      23.561  22.057  26.581  1.00  0.00     0.016 C 
HETATM    6  C   LIG     1      23.996  21.084  24.280  1.00  0.00     0.003 C 
HETATM    7  C   LIG     1      25.163  21.876  23.632  1.00  0.00     0.038 C 
HETATM    8  C   LIG     1      24.950  22.263  22.115  1.00  0.00     0.127 C 
HETATM    9  C   LIG     1      23.822  21.432  21.374  1.00  0.00    -0.010 C 
HETATM   10  C   LIG     1      22.445  22.140  21.637  1.00  0.00     0.018 C 
HETATM   11  C   LIG     1      23.855  21.152  19.798  1.00  0.00     0.000 C 
HETATM   12  C   LIG     1      23.659  19.626  19.608  1.00  0.00     0.006 C 
HETATM   13  C   LIG     1      23.183  19.093  20.951  1.00  0.00     0.006 C 
HETATM   14  C   LIG     1      23.893  19.996  21.942  1.00  0.00     0.003 C 
HETATM   15  C   LIG     1      23.626  19.814  23.466  1.00  0.00     0.024 C 
HETATM   16  C   LIG     1      22.199  19.331  23.878  1.00  0.00     0.123 C 
HETATM   17  C   LIG     1      21.963  19.436  25.423  1.00  0.00     0.037 C 
HETATM   18  C   LIG     1      23.303  19.502  26.187  1.00  0.00    -0.001 C 
HETATM   19  C   LIG     1      23.220  19.255  27.699  1.00  0.00     0.037 C 
ENDROOT
BRANCH  11  20
HETATM   20  C   LIG     1      24.885  21.785  18.800  1.00  0.00    -0.013 C 
HETATM   21  C   LIG     1      25.322  20.799  17.705  1.00  0.00     0.010 C 
BRANCH  20  22
HETATM   22  C   LIG     1      24.555  23.196  18.224  1.00  0.00     0.014 C 
BRANCH  22  23
HETATM   23  C   LIG     1      25.809  24.055  17.981  1.00  0.00     0.103 C 
BRANCH  23  24
HETATM   24  C   LIG     1      26.484  24.440  19.274  1.00  0.00     0.218 C 
HETATM   25  N   LIG     1      27.848  24.095  19.576  1.00  0.00    -0.351 N 
HETATM   26  H   LIG     1      28.192  24.289  20.544  1.00  0.00     0.163 HD
HETATM   27  O   LIG     1      25.822  25.088  20.129  1.00  0.00    -0.274 OA
BRANCH  25  28
HETATM   28  C   LIG     1      28.789  23.492  18.634  1.00  0.00     0.232 C 
BRANCH  28  29
HETATM   29  C   LIG     1      28.709  21.998  18.699  1.00  0.00     0.158 C 
HETATM   30  O   LIG     1      28.862  21.312  17.655  1.00  0.00    -0.649 OA
BRANCH  29  31
HETATM   31  O   LIG     1      28.444  21.358  19.906  1.00  0.00    -0.775 OA
HETATM   32  H   LIG     1      28.503  21.854  20.786  1.00  0.00     0.167 HD
ENDBRANCH  29  31
ENDBRANCH  28  29
ENDBRANCH  25  28
ENDBRANCH  23  24
ENDBRANCH  22  23
ENDBRANCH  20  22
ENDBRANCH  11  20
BRANCH   8  33
HETATM   33  O   LIG     1      26.188  22.198  21.466  1.00  0.00    -0.395 OA
HETATM   34  H   LIG     1      26.605  21.325  21.681  1.00  0.00     0.210 HD
ENDBRANCH   8  33
BRANCH  16  35
HETATM   35  O   LIG     1      22.031  17.999  23.470  1.00  0.00    -0.395 OA
HETATM   36  H   LIG     1      22.761  17.474  23.891  1.00  0.00     0.210 HD
ENDBRANCH  16  35
BRANCH   1  37
HETATM   37  O   LIG     1      24.621  18.931  29.652  1.00  0.00    -0.396 OA
HETATM   38  H   LIG     1      25.554  18.795  29.962  1.00  0.00     0.210 HD
ENDBRANCH   1  37
TORSDOF 10
ENDMDL
MODEL 10
REMARK VINA RESULT:      -4.5      3.060      8.144
REMARK  10 active torsions:
REMARK  status: ('A' for Active; 'I' for Inactive)
REMARK    1  A    between atoms: O_1  and  C_2 
REMARK    2  A    between atoms: C_9  and  O_10 
REMARK    3  A    between atoms: C_13  and  C_14 
REMARK    4  A    between atoms: C_14  and  C_16 
REMARK    5  A    between atoms: C_16  and  C_17 
REMARK    6  A    between atoms: C_17  and  C_18 
REMARK       I    between atoms: C_18  and  N_19 
REMARK    7  A    between atoms: N_19  and  C_20 
REMARK    8  A    between atoms: C_20  and  C_21 
REMARK    9  A    between atoms: C_21  and  O_22 
REMARK   10  A    between atoms: C_29  and  O_30 
ROOT
HETATM    1  C   LIG     1      23.488  22.116  21.417  1.00  0.00     0.118 C 
HETATM    2  C   LIG     1      24.835  22.703  20.915  1.00  0.00     0.032 C 
HETATM    3  C   LIG     1      25.744  23.249  22.047  1.00  0.00     0.012 C 
HETATM    4  C   LIG     1      25.916  22.241  23.219  1.00  0.00    -0.036 C 
HETATM    5  C   LIG     1      26.660  20.972  22.688  1.00  0.00     0.016 C 
HETATM    6  C   LIG     1      26.766  22.807  24.435  1.00  0.00     0.003 C 
HETATM    7  C   LIG     1      27.941  23.754  24.072  1.00  0.00     0.038 C 
HETATM    8  C   LIG     1      28.851  24.189  25.288  1.00  0.00     0.127 C 
HETATM    9  C   LIG     1      28.194  23.973  26.714  1.00  0.00    -0.010 C 
HETATM   10  C   LIG     1      28.487  22.496  27.165  1.00  0.00     0.018 C 
HETATM   11  C   LIG     1      28.568  24.878  27.981  1.00  0.00     0.000 C 
HETATM   12  C   LIG     1      27.233  25.380  28.586  1.00  0.00     0.006 C 
HETATM   13  C   LIG     1      26.139  24.540  27.943  1.00  0.00     0.006 C 
HETATM   14  C   LIG     1      26.687  24.279  26.553  1.00  0.00     0.003 C 
HETATM   15  C   LIG     1      25.875  23.385  25.569  1.00  0.00     0.024 C 
HETATM   16  C   LIG     1      25.026  22.236  26.199  1.00  0.00     0.123 C 
HETATM   17  C   LIG     1      24.470  21.251  25.116  1.00  0.00     0.037 C 
HETATM   18  C   LIG     1      24.465  21.906  23.718  1.00  0.00    -0.001 C 
HETATM   19  C   LIG     1      23.632  21.188  22.649  1.00  0.00     0.037 C 
ENDROOT
BRANCH  11  20
HETATM   20  C   LIG     1      29.714  25.947  28.006  1.00  0.00    -0.013 C 
HETATM   21  C   LIG     1      29.205  27.360  27.678  1.00  0.00     0.010 C 
BRANCH  20  22
HETATM   22  C   LIG     1      30.680  25.940  29.232  1.00  0.00     0.014 C 
BRANCH  22  23
HETATM   23  C   LIG     1      29.944  25.793  30.576  1.00  0.00     0.103 C 
BRANCH  23  24
HETATM   24  C   LIG     1      29.801  27.116  31.285  1.00  0.00     0.218 C 
HETATM   25  N   LIG     1      28.912  27.314  32.399  1.00  0.00    -0.351 N 
HETATM   26  H   LIG     1      28.783  28.292  32.746  1.00  0.00     0.163 HD
HETATM   27  O   LIG     1      30.490  28.092  30.882  1.00  0.00    -0.274 OA
BRANCH  25  28
HETATM   28  C   LIG     1      28.173  26.253  33.081  1.00  0.00     0.232 C 
BRANCH  28  29
HETATM   29  C   LIG     1      26.702  26.535  33.047  1.00  0.00     0.158 C 
HETATM   30  O   LIG     1      26.223  27.274  32.147  1.00  0.00    -0.649 OA
BRANCH  29  31
HETATM   31  O   LIG     1      25.859  26.005  34.018  1.00  0.00    -0.775 OA
HETATM   32  H   LIG     1      24.995  25.543  33.764  1.00  0.00     0.167 HD
ENDBRANCH  29  31
ENDBRANCH  28  29
ENDBRANCH  25  28
ENDBRANCH  23  24
ENDBRANCH  22  23
ENDBRANCH  20  22
ENDBRANCH  11  20
BRANCH   8  33
HETATM   33  O   LIG     1      29.266  25.509  25.077  1.00  0.00    -0.395 OA
HETATM   34  H   LIG     1      28.891  26.072  25.801  1.00  0.00     0.210 HD
ENDBRANCH   8  33
BRANCH  16  35
HETATM   35  O   LIG     1      23.955  22.797  26.912  1.00  0.00    -0.395 OA
HETATM   36  H   LIG     1      24.196  23.741  27.098  1.00  0.00     0.210 HD
ENDBRANCH  16  35
BRANCH   1  37
HETATM   37  O   LIG     1      22.817  21.450  20.379  1.00  0.00    -0.396 OA
HETATM   38  H   LIG     1      23.485  20.899  19.896  1.00  0.00     0.210 HD
ENDBRANCH   1  37
TORSDOF 10
ENDMDL
MODEL 11
REMARK VINA RESULT:      -4.5      5.582      9.924
REMARK  10 active torsions:
REMARK  status: ('A' for Active; 'I' for Inactive)
REMARK    1  A    between atoms: O_1  and  C_2 
REMARK    2  A    between atoms: C_9  and  O_10 
REMARK    3  A    between atoms: C_13  and  C_14 
REMARK    4  A    between atoms: C_14  and  C_16 
REMARK    5  A    between atoms: C_16  and  C_17 
REMARK    6  A    between atoms: C_17  and  C_18 
REMARK       I    between atoms: C_18  and  N_19 
REMARK    7  A    between atoms: N_19  and  C_20 
REMARK    8  A    between atoms: C_20  and  C_21 
REMARK    9  A    between atoms: C_21  and  O_22 
REMARK   10  A    between atoms: C_29  and  O_30 
ROOT
HETATM    1  C   LIG     1      24.073  19.785  25.490  1.00  0.00     0.118 C 
HETATM    2  C   LIG     1      25.540  20.295  25.478  1.00  0.00     0.032 C 
HETATM    3  C   LIG     1      26.111  20.537  24.057  1.00  0.00     0.012 C 
HETATM    4  C   LIG     1      25.162  21.386  23.165  1.00  0.00    -0.036 C 
HETATM    5  C   LIG     1      25.028  22.814  23.788  1.00  0.00     0.016 C 
HETATM    6  C   LIG     1      25.676  21.572  21.674  1.00  0.00     0.003 C 
HETATM    7  C   LIG     1      27.211  21.704  21.486  1.00  0.00     0.038 C 
HETATM    8  C   LIG     1      27.681  22.026  20.013  1.00  0.00     0.127 C 
HETATM    9  C   LIG     1      26.597  21.733  18.895  1.00  0.00    -0.010 C 
HETATM   10  C   LIG     1      25.679  23.001  18.764  1.00  0.00     0.018 C 
HETATM   11  C   LIG     1      26.992  21.345  17.392  1.00  0.00     0.000 C 
HETATM   12  C   LIG     1      26.202  20.059  17.037  1.00  0.00     0.006 C 
HETATM   13  C   LIG     1      25.144  19.903  18.119  1.00  0.00     0.006 C 
HETATM   14  C   LIG     1      25.834  20.466  19.348  1.00  0.00     0.003 C 
HETATM   15  C   LIG     1      25.051  20.543  20.693  1.00  0.00     0.024 C 
HETATM   16  C   LIG     1      23.511  20.785  20.598  1.00  0.00     0.123 C 
HETATM   17  C   LIG     1      22.877  21.105  21.994  1.00  0.00     0.037 C 
HETATM   18  C   LIG     1      23.789  20.623  23.143  1.00  0.00    -0.001 C 
HETATM   19  C   LIG     1      23.136  20.559  24.529  1.00  0.00     0.037 C 
ENDROOT
BRANCH  11  20
HETATM   20  C   LIG     1      28.450  21.369  16.819  1.00  0.00    -0.013 C 
HETATM   21  C   LIG     1      28.747  20.158  15.919  1.00  0.00     0.010 C 
BRANCH  20  22
HETATM   22  C   LIG     1      28.955  22.705  16.192  1.00  0.00     0.014 C 
BRANCH  22  23
HETATM   23  C   LIG     1      29.366  23.748  17.248  1.00  0.00     0.103 C 
BRANCH  23  24
HETATM   24  C   LIG     1      29.038  25.152  16.807  1.00  0.00     0.218 C 
HETATM   25  N   LIG     1      28.810  26.229  17.734  1.00  0.00    -0.351 N 
HETATM   26  H   LIG     1      28.464  27.135  17.345  1.00  0.00     0.163 HD
HETATM   27  O   LIG     1      28.956  25.391  15.572  1.00  0.00    -0.274 OA
BRANCH  25  28
HETATM   28  C   LIG     1      29.025  26.152  19.178  1.00  0.00     0.232 C 
BRANCH  28  29
HETATM   29  C   LIG     1      27.716  26.005  19.893  1.00  0.00     0.158 C 
HETATM   30  O   LIG     1      27.686  25.542  21.063  1.00  0.00    -0.649 OA
BRANCH  29  31
HETATM   31  O   LIG     1      26.526  26.356  19.265  1.00  0.00    -0.775 OA
HETATM   32  H   LIG     1      25.749  25.709  19.217  1.00  0.00     0.167 HD
ENDBRANCH  29  31
ENDBRANCH  28  29
ENDBRANCH  25  28
ENDBRANCH  23  24
ENDBRANCH  22  23
ENDBRANCH  20  22
ENDBRANCH  11  20
BRANCH   8  33
HETATM   33  O   LIG     1      28.892  21.362  19.782  1.00  0.00    -0.395 OA
HETATM   34  H   LIG     1      29.432  21.406  20.611  1.00  0.00     0.210 HD
ENDBRANCH   8  33
BRANCH  16  35
HETATM   35  O   LIG     1      22.901  19.641  20.060  1.00  0.00    -0.395 OA
HETATM   36  H   LIG     1      23.276  19.515  19.151  1.00  0.00     0.210 HD
ENDBRANCH  16  35
BRANCH   1  37
HETATM   37  O   LIG     1      23.552  19.796  26.794  1.00  0.00    -0.396 OA
HETATM   38  H   LIG     1      23.218  18.882  26.991  1.00  0.00     0.210 HD
ENDBRANCH   1  37
TORSDOF 10
ENDMDL
MODEL 12
REMARK VINA RESULT:      -4.5      4.656      8.000
REMARK  10 active torsions:
REMARK  status: ('A' for Active; 'I' for Inactive)
REMARK    1  A    between atoms: O_1  and  C_2 
REMARK    2  A    between atoms: C_9  and  O_10 
REMARK    3  A    between atoms: C_13  and  C_14 
REMARK    4  A    between atoms: C_14  and  C_16 
REMARK    5  A    between atoms: C_16  and  C_17 
REMARK    6  A    between atoms: C_17  and  C_18 
REMARK       I    between atoms: C_18  and  N_19 
REMARK    7  A    between atoms: N_19  and  C_20 
REMARK    8  A    between atoms: C_20  and  C_21 
REMARK    9  A    between atoms: C_21  and  O_22 
REMARK   10  A    between atoms: C_29  and  O_30 
ROOT
HETATM    1  C   LIG     1      29.190  26.470  16.531  1.00  0.00     0.118 C 
HETATM    2  C   LIG     1      29.997  26.805  17.815  1.00  0.00     0.032 C 
HETATM    3  C   LIG     1      29.445  26.132  19.099  1.00  0.00     0.012 C 
HETATM    4  C   LIG     1      29.193  24.608  18.916  1.00  0.00    -0.036 C 
HETATM    5  C   LIG     1      30.561  23.899  18.652  1.00  0.00     0.016 C 
HETATM    6  C   LIG     1      28.541  23.909  20.184  1.00  0.00     0.003 C 
HETATM    7  C   LIG     1      28.989  24.442  21.571  1.00  0.00     0.038 C 
HETATM    8  C   LIG     1      28.430  23.637  22.811  1.00  0.00     0.127 C 
HETATM    9  C   LIG     1      27.181  22.715  22.491  1.00  0.00    -0.010 C 
HETATM   10  C   LIG     1      27.717  21.333  21.972  1.00  0.00     0.018 C 
HETATM   11  C   LIG     1      26.076  22.349  23.591  1.00  0.00     0.000 C 
HETATM   12  C   LIG     1      24.695  22.670  22.966  1.00  0.00     0.006 C 
HETATM   13  C   LIG     1      24.943  22.868  21.478  1.00  0.00     0.006 C 
HETATM   14  C   LIG     1      26.332  23.476  21.446  1.00  0.00     0.003 C 
HETATM   15  C   LIG     1      26.996  23.788  20.072  1.00  0.00     0.024 C 
HETATM   16  C   LIG     1      26.635  22.840  18.884  1.00  0.00     0.123 C 
HETATM   17  C   LIG     1      27.550  23.082  17.637  1.00  0.00     0.037 C 
HETATM   18  C   LIG     1      28.215  24.474  17.695  1.00  0.00    -0.001 C 
HETATM   19  C   LIG     1      28.845  24.967  16.386  1.00  0.00     0.037 C 
ENDROOT
BRANCH  11  20
HETATM   20  C   LIG     1      26.180  22.709  25.113  1.00  0.00    -0.013 C 
HETATM   21  C   LIG     1      24.824  23.113  25.714  1.00  0.00     0.010 C 
BRANCH  20  22
HETATM   22  C   LIG     1      26.961  21.723  26.035  1.00  0.00     0.014 C 
BRANCH  22  23
HETATM   23  C   LIG     1      27.458  22.381  27.335  1.00  0.00     0.103 C 
BRANCH  23  24
HETATM   24  C   LIG     1      28.636  23.290  27.089  1.00  0.00     0.218 C 
HETATM   25  N   LIG     1      28.883  24.477  27.864  1.00  0.00    -0.351 N 
HETATM   26  H   LIG     1      29.647  25.113  27.542  1.00  0.00     0.163 HD
HETATM   27  O   LIG     1      29.437  22.998  26.159  1.00  0.00    -0.274 OA
BRANCH  25  28
HETATM   28  C   LIG     1      28.146  24.861  29.067  1.00  0.00     0.232 C 
BRANCH  28  29
HETATM   29  C   LIG     1      27.073  25.850  28.727  1.00  0.00     0.158 C 
HETATM   30  O   LIG     1      26.257  25.602  27.801  1.00  0.00    -0.649 OA
BRANCH  29  31
HETATM   31  O   LIG     1      26.981  27.056  29.415  1.00  0.00    -0.775 OA
HETATM   32  H   LIG     1      27.808  27.594  29.640  1.00  0.00     0.167 HD
ENDBRANCH  29  31
ENDBRANCH  28  29
ENDBRANCH  25  28
ENDBRANCH  23  24
ENDBRANCH  22  23
ENDBRANCH  20  22
ENDBRANCH  11  20
BRANCH   8  33
HETATM   33  O   LIG     1      28.185  24.542  23.850  1.00  0.00    -0.395 OA
HETATM   34  H   LIG     1      27.554  24.119  24.487  1.00  0.00     0.210 HD
ENDBRANCH   8  33
BRANCH  16  35
HETATM   35  O   LIG     1      25.294  23.048  18.526  1.00  0.00    -0.395 OA
HETATM   36  H   LIG     1      24.929  23.723  19.154  1.00  0.00     0.210 HD
ENDBRANCH  16  35
BRANCH   1  37
HETATM   37  O   LIG     1      29.862  26.928  15.386  1.00  0.00    -0.396 OA
HETATM   38  H   LIG     1      30.006  27.904  15.493  1.00  0.00     0.210 HD
ENDBRANCH   1  37
TORSDOF 10
ENDMDL
MODEL 13
REMARK VINA RESULT:      -4.3      3.800      6.867
REMARK  10 active torsions:
REMARK  status: ('A' for Active; 'I' for Inactive)
REMARK    1  A    between atoms: O_1  and  C_2 
REMARK    2  A    between atoms: C_9  and  O_10 
REMARK    3  A    between atoms: C_13  and  C_14 
REMARK    4  A    between atoms: C_14  and  C_16 
REMARK    5  A    between atoms: C_16  and  C_17 
REMARK    6  A    between atoms: C_17  and  C_18 
REMARK       I    between atoms: C_18  and  N_19 
REMARK    7  A    between atoms: N_19  and  C_20 
REMARK    8  A    between atoms: C_20  and  C_21 
REMARK    9  A    between atoms: C_21  and  O_22 
REMARK   10  A    between atoms: C_29  and  O_30 
ROOT
HETATM    1  C   LIG     1      28.027  26.718  18.734  1.00  0.00     0.118 C 
HETATM    2  C   LIG     1      28.480  26.475  20.199  1.00  0.00     0.032 C 
HETATM    3  C   LIG     1      27.763  25.287  20.891  1.00  0.00     0.012 C 
HETATM    4  C   LIG     1      27.772  23.994  20.027  1.00  0.00    -0.036 C 
HETATM    5  C   LIG     1      29.251  23.517  19.849  1.00  0.00     0.016 C 
HETATM    6  C   LIG     1      26.965  22.786  20.668  1.00  0.00     0.003 C 
HETATM    7  C   LIG     1      27.021  22.664  22.214  1.00  0.00     0.038 C 
HETATM    8  C   LIG     1      26.325  21.377  22.810  1.00  0.00     0.127 C 
HETATM    9  C   LIG     1      25.316  20.655  21.823  1.00  0.00    -0.010 C 
HETATM   10  C   LIG     1      26.141  19.662  20.927  1.00  0.00     0.018 C 
HETATM   11  C   LIG     1      24.062  19.806  22.343  1.00  0.00     0.000 C 
HETATM   12  C   LIG     1      22.818  20.328  21.579  1.00  0.00     0.006 C 
HETATM   13  C   LIG     1      23.353  21.172  20.432  1.00  0.00     0.006 C 
HETATM   14  C   LIG     1      24.617  21.773  21.017  1.00  0.00     0.003 C 
HETATM   15  C   LIG     1      25.514  22.681  20.123  1.00  0.00     0.024 C 
HETATM   16  C   LIG     1      25.555  22.346  18.598  1.00  0.00     0.123 C 
HETATM   17  C   LIG     1      26.677  23.142  17.849  1.00  0.00     0.037 C 
HETATM   18  C   LIG     1      27.111  24.384  18.656  1.00  0.00    -0.001 C 
HETATM   19  C   LIG     1      27.935  25.424  17.887  1.00  0.00     0.037 C 
ENDROOT
BRANCH  11  20
HETATM   20  C   LIG     1      23.781  19.459  23.845  1.00  0.00    -0.013 C 
HETATM   21  C   LIG     1      24.969  18.749  24.515  1.00  0.00     0.010 C 
BRANCH  20  22
HETATM   22  C   LIG     1      23.185  20.584  24.746  1.00  0.00     0.014 C 
BRANCH  22  23
HETATM   23  C   LIG     1      23.385  20.321  26.249  1.00  0.00     0.103 C 
BRANCH  23  24
HETATM   24  C   LIG     1      22.998  21.515  27.085  1.00  0.00     0.218 C 
HETATM   25  N   LIG     1      23.963  22.432  27.631  1.00  0.00    -0.351 N 
HETATM   26  H   LIG     1      23.616  23.156  28.301  1.00  0.00     0.163 HD
HETATM   27  O   LIG     1      21.775  21.716  27.317  1.00  0.00    -0.274 OA
BRANCH  25  28
HETATM   28  C   LIG     1      25.392  22.429  27.322  1.00  0.00     0.232 C 
BRANCH  28  29
HETATM   29  C   LIG     1      25.845  23.803  26.933  1.00  0.00     0.158 C 
HETATM   30  O   LIG     1      25.945  24.114  25.717  1.00  0.00    -0.649 OA
BRANCH  29  31
HETATM   31  O   LIG     1      26.178  24.738  27.908  1.00  0.00    -0.775 OA
HETATM   32  H   LIG     1      26.978  24.601  28.513  1.00  0.00     0.167 HD
ENDBRANCH  29  31
ENDBRANCH  28  29
ENDBRANCH  25  28
ENDBRANCH  23  24
ENDBRANCH  22  23
ENDBRANCH  20  22
ENDBRANCH  11  20
BRANCH   8  33
HETATM   33  O   LIG     1      25.735  21.721  24.032  1.00  0.00    -0.395 OA
HETATM   34  H   LIG     1      25.875  20.971  24.665  1.00  0.00     0.210 HD
ENDBRANCH   8  33
BRANCH  16  35
HETATM   35  O   LIG     1      24.309  22.650  18.029  1.00  0.00    -0.395 OA
HETATM   36  H   LIG     1      23.741  21.842  18.131  1.00  0.00     0.210 HD
ENDBRANCH  16  35
BRANCH   1  37
HETATM   37  O   LIG     1      28.861  27.656  18.103  1.00  0.00    -0.396 OA
HETATM   38  H   LIG     1      29.709  27.195  17.871  1.00  0.00     0.210 HD
ENDBRANCH   1  37
TORSDOF 10
ENDMDL
MODEL 14
REMARK VINA RESULT:      -4.0      3.190      8.617
REMARK  10 active torsions:
REMARK  status: ('A' for Active; 'I' for Inactive)
REMARK    1  A    between atoms: O_1  and  C_2 
REMARK    2  A    between atoms: C_9  and  O_10 
REMARK    3  A    between atoms: C_13  and  C_14 
REMARK    4  A    between atoms: C_14  and  C_16 
REMARK    5  A    between atoms: C_16  and  C_17 
REMARK    6  A    between atoms: C_17  and  C_18 
REMARK       I    between atoms: C_18  and  N_19 
REMARK    7  A    between atoms: N_19  and  C_20 
REMARK    8  A    between atoms: C_20  and  C_21 
REMARK    9  A    between atoms: C_21  and  O_22 
REMARK   10  A    between atoms: C_29  and  O_30 
ROOT
HETATM    1  C   LIG     1      23.204  22.043  19.431  1.00  0.00     0.118 C 
HETATM    2  C   LIG     1      24.491  22.912  19.430  1.00  0.00     0.032 C 
HETATM    3  C   LIG     1      25.135  23.084  20.831  1.00  0.00     0.012 C 
HETATM    4  C   LIG     1      25.311  21.733  21.581  1.00  0.00    -0.036 C 
HETATM    5  C   LIG     1      26.320  20.842  20.786  1.00  0.00     0.016 C 
HETATM    6  C   LIG     1      25.882  21.886  23.055  1.00  0.00     0.003 C 
HETATM    7  C   LIG     1      26.922  23.016  23.277  1.00  0.00     0.038 C 
HETATM    8  C   LIG     1      27.573  23.055  24.716  1.00  0.00     0.127 C 
HETATM    9  C   LIG     1      26.775  22.251  25.824  1.00  0.00    -0.010 C 
HETATM   10  C   LIG     1      27.244  20.752  25.769  1.00  0.00     0.018 C 
HETATM   11  C   LIG     1      26.818  22.647  27.375  1.00  0.00     0.000 C 
HETATM   12  C   LIG     1      25.348  22.742  27.856  1.00  0.00     0.006 C 
HETATM   13  C   LIG     1      24.506  22.097  26.765  1.00  0.00     0.006 C 
HETATM   14  C   LIG     1      25.274  22.436  25.502  1.00  0.00     0.003 C 
HETATM   15  C   LIG     1      24.762  21.899  24.131  1.00  0.00     0.024 C 
HETATM   16  C   LIG     1      24.038  20.515  24.144  1.00  0.00     0.123 C 
HETATM   17  C   LIG     1      23.806  19.957  22.699  1.00  0.00     0.037 C 
HETATM   18  C   LIG     1      23.881  21.086  21.648  1.00  0.00    -0.001 C 
HETATM   19  C   LIG     1      23.332  20.739  20.258  1.00  0.00     0.037 C 
ENDROOT
BRANCH  11  20
HETATM   20  C   LIG     1      27.756  23.741  27.990  1.00  0.00    -0.013 C 
HETATM   21  C   LIG     1      29.243  23.459  27.718  1.00  0.00     0.010 C 
BRANCH  20  22
HETATM   22  C   LIG     1      27.385  25.235  27.734  1.00  0.00     0.014 C 
BRANCH  22  23
HETATM   23  C   LIG     1      26.990  25.985  29.019  1.00  0.00     0.103 C 
BRANCH  23  24
HETATM   24  C   LIG     1      28.159  26.144  29.958  1.00  0.00     0.218 C 
HETATM   25  N   LIG     1      29.166  27.158  29.787  1.00  0.00    -0.351 N 
HETATM   26  H   LIG     1      30.006  27.114  30.408  1.00  0.00     0.163 HD
HETATM   27  O   LIG     1      28.261  25.350  30.933  1.00  0.00    -0.274 OA
BRANCH  25  28
HETATM   28  C   LIG     1      29.105  28.244  28.811  1.00  0.00     0.232 C 
BRANCH  28  29
HETATM   29  C   LIG     1      29.997  27.947  27.644  1.00  0.00     0.158 C 
HETATM   30  O   LIG     1      30.112  28.784  26.710  1.00  0.00    -0.649 OA
BRANCH  29  31
HETATM   31  O   LIG     1      30.684  26.741  27.570  1.00  0.00    -0.775 OA
HETATM   32  H   LIG     1      31.217  26.393  28.357  1.00  0.00     0.167 HD
ENDBRANCH  29  31
ENDBRANCH  28  29
ENDBRANCH  25  28
ENDBRANCH  23  24
ENDBRANCH  22  23
ENDBRANCH  20  22
ENDBRANCH  11  20
BRANCH   8  33
HETATM   33  O   LIG     1      27.789  24.393  25.066  1.00  0.00    -0.395 OA
HETATM   34  H   LIG     1      27.052  24.935  24.685  1.00  0.00     0.210 HD
ENDBRANCH   8  33
BRANCH  16  35
HETATM   35  O   LIG     1      22.803  20.651  24.795  1.00  0.00    -0.395 OA
HETATM   36  H   LIG     1      22.657  19.818  25.313  1.00  0.00     0.210 HD
ENDBRANCH  16  35
BRANCH   1  37
HETATM   37  O   LIG     1      22.800  21.749  18.118  1.00  0.00    -0.396 OA
HETATM   38  H   LIG     1      23.187  22.443  17.523  1.00  0.00     0.210 HD
ENDBRANCH   1  37
TORSDOF 10
ENDMDL
MODEL 15
REMARK VINA RESULT:      -3.8      4.743      6.391
REMARK  10 active torsions:
REMARK  status: ('A' for Active; 'I' for Inactive)
REMARK    1  A    between atoms: O_1  and  C_2 
REMARK    2  A    between atoms: C_9  and  O_10 
REMARK    3  A    between atoms: C_13  and  C_14 
REMARK    4  A    between atoms: C_14  and  C_16 
REMARK    5  A    between atoms: C_16  and  C_17 
REMARK    6  A    between atoms: C_17  and  C_18 
REMARK       I    between atoms: C_18  and  N_19 
REMARK    7  A    between atoms: N_19  and  C_20 
REMARK    8  A    between atoms: C_20  and  C_21 
REMARK    9  A    between atoms: C_21  and  O_22 
REMARK   10  A    between atoms: C_29  and  O_30 
ROOT
HETATM    1  C   LIG     1      27.978  26.570  18.716  1.00  0.00     0.118 C 
HETATM    2  C   LIG     1      28.395  26.416  20.204  1.00  0.00     0.032 C 
HETATM    3  C   LIG     1      27.695  25.241  20.936  1.00  0.00     0.012 C 
HETATM    4  C   LIG     1      27.770  23.908  20.139  1.00  0.00    -0.036 C 
HETATM    5  C   LIG     1      29.267  23.470  20.026  1.00  0.00     0.016 C 
HETATM    6  C   LIG     1      26.982  22.708  20.819  1.00  0.00     0.003 C 
HETATM    7  C   LIG     1      26.997  22.665  22.370  1.00  0.00     0.038 C 
HETATM    8  C   LIG     1      26.324  21.388  23.012  1.00  0.00     0.127 C 
HETATM    9  C   LIG     1      25.368  20.585  22.036  1.00  0.00    -0.010 C 
HETATM   10  C   LIG     1      26.248  19.575  21.215  1.00  0.00     0.018 C 
HETATM   11  C   LIG     1      24.125  19.723  22.564  1.00  0.00     0.000 C 
HETATM   12  C   LIG     1      22.889  20.165  21.741  1.00  0.00     0.006 C 
HETATM   13  C   LIG     1      23.431  20.967  20.567  1.00  0.00     0.006 C 
HETATM   14  C   LIG     1      24.658  21.638  21.155  1.00  0.00     0.003 C 
HETATM   15  C   LIG     1      25.552  22.528  20.240  1.00  0.00     0.024 C 
HETATM   16  C   LIG     1      25.647  22.119  18.736  1.00  0.00     0.123 C 
HETATM   17  C   LIG     1      26.765  22.913  17.979  1.00  0.00     0.037 C 
HETATM   18  C   LIG     1      27.137  24.207  18.733  1.00  0.00    -0.001 C 
HETATM   19  C   LIG     1      27.950  25.233  17.934  1.00  0.00     0.037 C 
ENDROOT
BRANCH  11  20
HETATM   20  C   LIG     1      23.812  19.442  24.073  1.00  0.00    -0.013 C 
HETATM   21  C   LIG     1      24.976  18.741  24.793  1.00  0.00     0.010 C 
BRANCH  20  22
HETATM   22  C   LIG     1      23.219  20.614  24.916  1.00  0.00     0.014 C 
BRANCH  22  23
HETATM   23  C   LIG     1      22.566  20.140  26.227  1.00  0.00     0.103 C 
BRANCH  23  24
HETATM   24  C   LIG     1      22.378  21.276  27.202  1.00  0.00     0.218 C 
HETATM   25  N   LIG     1      21.151  21.493  27.922  1.00  0.00    -0.351 N 
HETATM   26  H   LIG     1      21.067  22.375  28.477  1.00  0.00     0.163 HD
HETATM   27  O   LIG     1      23.338  22.072  27.391  1.00  0.00    -0.274 OA
BRANCH  25  28
HETATM   28  C   LIG     1      20.013  20.576  27.935  1.00  0.00     0.232 C 
BRANCH  28  29
HETATM   29  C   LIG     1      19.728  20.118  29.333  1.00  0.00     0.158 C 
HETATM   30  O   LIG     1      18.589  20.302  29.837  1.00  0.00    -0.649 OA
BRANCH  29  31
HETATM   31  O   LIG     1      20.722  19.508  30.092  1.00  0.00    -0.775 OA
HETATM   32  H   LIG     1      21.499  19.033  29.651  1.00  0.00     0.167 HD
ENDBRANCH  29  31
ENDBRANCH  28  29
ENDBRANCH  25  28
ENDBRANCH  23  24
ENDBRANCH  22  23
ENDBRANCH  20  22
ENDBRANCH  11  20
BRANCH   8  33
HETATM   33  O   LIG     1      25.689  21.773  24.198  1.00  0.00    -0.395 OA
HETATM   34  H   LIG     1      24.942  21.144  24.368  1.00  0.00     0.210 HD
ENDBRANCH   8  33
BRANCH  16  35
HETATM   35  O   LIG     1      24.409  22.353  18.119  1.00  0.00    -0.395 OA
HETATM   36  H   LIG     1      24.188  21.539  17.597  1.00  0.00     0.210 HD
ENDBRANCH  16  35
BRANCH   1  37
HETATM   37  O   LIG     1      28.800  27.502  18.062  1.00  0.00    -0.396 OA
HETATM   38  H   LIG     1      29.668  27.525  18.542  1.00  0.00     0.210 HD
ENDBRANCH   1  37
TORSDOF 10
ENDMDL
MODEL 16
REMARK VINA RESULT:      -2.9      3.286      8.527
REMARK  10 active torsions:
REMARK  status: ('A' for Active; 'I' for Inactive)
REMARK    1  A    between atoms: O_1  and  C_2 
REMARK    2  A    between atoms: C_9  and  O_10 
REMARK    3  A    between atoms: C_13  and  C_14 
REMARK    4  A    between atoms: C_14  and  C_16 
REMARK    5  A    between atoms: C_16  and  C_17 
REMARK    6  A    between atoms: C_17  and  C_18 
REMARK       I    between atoms: C_18  and  N_19 
REMARK    7  A    between atoms: N_19  and  C_20 
REMARK    8  A    between atoms: C_20  and  C_21 
REMARK    9  A    between atoms: C_21  and  O_22 
REMARK   10  A    between atoms: C_29  and  O_30 
ROOT
HETATM    1  C   LIG     1      23.420  22.164  19.415  1.00  0.00     0.118 C 
HETATM    2  C   LIG     1      24.921  22.518  19.236  1.00  0.00     0.032 C 
HETATM    3  C   LIG     1      25.741  22.464  20.552  1.00  0.00     0.012 C 
HETATM    4  C   LIG     1      25.514  21.147  21.347  1.00  0.00    -0.036 C 
HETATM    5  C   LIG     1      26.045  19.947  20.498  1.00  0.00     0.016 C 
HETATM    6  C   LIG     1      26.268  21.102  22.744  1.00  0.00     0.003 C 
HETATM    7  C   LIG     1      27.659  21.790  22.799  1.00  0.00     0.038 C 
HETATM    8  C   LIG     1      28.443  21.609  24.159  1.00  0.00     0.127 C 
HETATM    9  C   LIG     1      27.545  21.154  25.383  1.00  0.00    -0.010 C 
HETATM   10  C   LIG     1      27.446  19.586  25.357  1.00  0.00     0.018 C 
HETATM   11  C   LIG     1      27.904  21.525  26.899  1.00  0.00     0.000 C 
HETATM   12  C   LIG     1      26.628  22.144  27.525  1.00  0.00     0.006 C 
HETATM   13  C   LIG     1      25.493  21.829  26.562  1.00  0.00     0.006 C 
HETATM   14  C   LIG     1      26.180  21.859  25.210  1.00  0.00     0.003 C 
HETATM   15  C   LIG     1      25.357  21.524  23.929  1.00  0.00     0.024 C 
HETATM   16  C   LIG     1      24.198  20.490  24.088  1.00  0.00     0.123 C 
HETATM   17  C   LIG     1      23.619  20.036  22.705  1.00  0.00     0.037 C 
HETATM   18  C   LIG     1      23.966  21.053  21.596  1.00  0.00    -0.001 C 
HETATM   19  C   LIG     1      23.174  20.910  20.290  1.00  0.00     0.037 C 
ENDROOT
BRANCH  11  20
HETATM   20  C   LIG     1      29.232  22.220  27.357  1.00  0.00    -0.013 C 
HETATM   21  C   LIG     1      30.469  21.343  27.103  1.00  0.00     0.010 C 
BRANCH  20  22
HETATM   22  C   LIG     1      29.460  23.699  26.918  1.00  0.00     0.014 C 
BRANCH  22  23
HETATM   23  C   LIG     1      29.144  24.713  28.033  1.00  0.00     0.103 C 
BRANCH  23  24
HETATM   24  C   LIG     1      29.173  26.133  27.526  1.00  0.00     0.218 C 
HETATM   25  N   LIG     1      29.191  27.275  28.400  1.00  0.00    -0.351 N 
HETATM   26  H   LIG     1      29.082  28.218  27.964  1.00  0.00     0.163 HD
HETATM   27  O   LIG     1      29.177  26.326  26.280  1.00  0.00    -0.274 OA
BRANCH  25  28
HETATM   28  C   LIG     1      29.351  27.217  29.853  1.00  0.00     0.232 C 
BRANCH  28  29
HETATM   29  C   LIG     1      28.080  27.624  30.534  1.00  0.00     0.158 C 
HETATM   30  O   LIG     1      28.116  28.117  31.692  1.00  0.00    -0.649 OA
BRANCH  29  31
HETATM   31  O   LIG     1      26.853  27.442  29.905  1.00  0.00    -0.775 OA
HETATM   32  H   LIG     1      26.556  26.527  29.592  1.00  0.00     0.167 HD
ENDBRANCH  29  31
ENDBRANCH  28  29
ENDBRANCH  25  28
ENDBRANCH  23  24
ENDBRANCH  22  23
ENDBRANCH  20  22
ENDBRANCH  11  20
BRANCH   8  33
HETATM   33  O   LIG     1      29.155  22.786  24.416  1.00  0.00    -0.395 OA
HETATM   34  H   LIG     1      30.115  22.610  24.244  1.00  0.00     0.210 HD
ENDBRANCH   8  33
BRANCH  16  35
HETATM   35  O   LIG     1      23.174  21.064  24.856  1.00  0.00    -0.395 OA
HETATM   36  H   LIG     1      23.235  22.047  24.730  1.00  0.00     0.210 HD
ENDBRANCH  16  35
BRANCH   1  37
HETATM   37  O   LIG     1      22.790  22.020  18.168  1.00  0.00    -0.396 OA
HETATM   38  H   LIG     1      22.701  21.049  17.987  1.00  0.00     0.210 HD
ENDBRANCH   1  37
TORSDOF 10
ENDMDL
