REMARK  5 active torsions:
REMARK  status: ('A' for Active; 'I' for Inactive)
REMARK    1  A    between atoms: O_1  and  C_2 
REMARK    2  A    between atoms: C_2  and  C_5 
REMARK    3  A    between atoms: C_2  and  C_3 
REMARK    4  A    between atoms: C_3  and  O_4 
REMARK    5  A    between atoms: C_5  and  N_6 
ROOT
HETATM    1  N   LIG     1       0.756   0.517   1.109  1.00  0.00    -0.331 N 
HETATM    2  C   LIG     1       0.660   1.851   1.335  1.00  0.00     0.212 A 
HETATM    3  N   LIG     1      -0.501   2.391   0.885  1.00  0.00    -0.223 NA
HETATM    4  C   LIG     1      -0.399   0.203   0.487  1.00  0.00     0.151 A 
HETATM    5  C   LIG     1      -0.877  -1.008  -0.007  1.00  0.00     0.282 A 
HETATM    6  N   LIG     1      -2.113  -1.024  -0.613  1.00  0.00    -0.269 N 
HETATM    7  C   LIG     1      -2.670  -2.294  -1.108  1.00  0.00     0.164 C 
HETATM    8  O   LIG     1      -0.196  -2.063   0.098  1.00  0.00    -0.265 OA
HETATM    9  C   LIG     1      -1.141   1.330   0.356  1.00  0.00     0.167 A 
HETATM   10  N   LIG     1      -2.366   1.334  -0.235  1.00  0.00    -0.286 N 
HETATM   11  C   LIG     1      -2.866   0.135  -0.694  1.00  0.00     0.332 A 
HETATM   12  O   LIG     1      -4.028   0.096  -1.190  1.00  0.00    -0.246 OA
HETATM   13  C   LIG     1      -3.162   2.567  -0.306  1.00  0.00     0.163 C 
ENDROOT
BRANCH   1  14
HETATM   14  C   LIG     1       1.879  -0.335   1.510  1.00  0.00     0.164 C 
BRANCH  14  15
HETATM   15  C   LIG     1       3.093  -0.123   0.586  1.00  0.00     0.160 C 
BRANCH  15  16
HETATM   16  O   LIG     1       4.218  -0.787   1.107  1.00  0.00    -0.392 OA
HETATM   17  H   LIG     1       4.011  -1.758   1.126  1.00  0.00     0.210 HD
ENDBRANCH  15  16
BRANCH  15  18
HETATM   18  C   LIG     1       2.807  -0.589  -0.853  1.00  0.00     0.197 C 
BRANCH  18  19
HETATM   19  O   LIG     1       3.917  -0.346  -1.675  1.00  0.00    -0.398 OA
HETATM   20  H   LIG     1       4.550  -1.098  -1.533  1.00  0.00     0.209 HD
ENDBRANCH  18  19
ENDBRANCH  15  18
ENDBRANCH  14  15
ENDBRANCH   1  14
TORSDOF 5
