REMARK  6 active torsions:
REMARK  status: ('A' for Active; 'I' for Inactive)
REMARK    1  A    between atoms: O_1  and  C_2 
REMARK    2  A    between atoms: C_4  and  O_5 
REMARK    3  A    between atoms: C_8  and  C_9 
REMARK    4  A    between atoms: C_10  and  O_11 
REMARK    5  A    between atoms: C_14  and  O_15 
REMARK    6  A    between atoms: C_17  and  O_18 
ROOT
HETATM    1  C   LIG     1       0.436  -0.317  -0.412  1.00  0.00     0.126 A 
HETATM    2  C   LIG     1      -0.115  -1.230  -1.331  1.00  0.00     0.152 A 
HETATM    3  C   LIG     1      -1.504  -1.428  -1.341  1.00  0.00     0.223 A 
HETATM    4  C   LIG     1      -2.318  -0.701  -0.446  1.00  0.00     0.084 A 
HETATM    5  C   LIG     1      -3.726  -0.839  -0.394  1.00  0.00     0.085 A 
HETATM    6  C   LIG     1      -4.466  -0.074   0.520  1.00  0.00     0.074 A 
HETATM    7  C   LIG     1      -3.828   0.823   1.379  1.00  0.00     0.071 A 
HETATM    8  C   LIG     1      -2.438   0.963   1.333  1.00  0.00     0.075 A 
HETATM    9  C   LIG     1      -1.682   0.209   0.430  1.00  0.00     0.096 A 
HETATM   10  O   LIG     1      -0.362   0.358   0.409  1.00  0.00    -0.306 OA
HETATM   11  O   LIG     1      -2.009  -2.249  -2.154  1.00  0.00    -0.284 OA
ENDROOT
BRANCH   1  12
HETATM   12  C   LIG     1       1.895  -0.072  -0.335  1.00  0.00     0.034 A 
HETATM   13  C   LIG     1       2.393   1.244  -0.249  1.00  0.00     0.081 A 
HETATM   14  C   LIG     1       3.774   1.464  -0.145  1.00  0.00     0.074 A 
HETATM   15  C   LIG     1       4.664   0.384  -0.120  1.00  0.00     0.068 A 
HETATM   16  C   LIG     1       4.172  -0.921  -0.193  1.00  0.00     0.037 A 
HETATM   17  C   LIG     1       2.797  -1.151  -0.294  1.00  0.00     0.020 A 
BRANCH  13  18
HETATM   18  O   LIG     1       1.516   2.329  -0.280  1.00  0.00    -0.360 OA
HETATM   19  H   LIG     1       1.851   3.284  -0.223  1.00  0.00     0.217 HD
ENDBRANCH  13  18
BRANCH  15  20
HETATM   20  O   LIG     1       6.037   0.596  -0.019  1.00  0.00    -0.361 OA
HETATM   21  H   LIG     1       6.426   1.530   0.037  1.00  0.00     0.217 HD
ENDBRANCH  15  20
ENDBRANCH   1  12
BRANCH   2  22
HETATM   22  O   LIG     1       0.711  -1.905  -2.233  1.00  0.00    -0.355 OA
HETATM   23  H   LIG     1       0.348  -2.563  -2.913  1.00  0.00     0.218 HD
ENDBRANCH   2  22
BRANCH   5  24
HETATM   24  O   LIG     1      -4.393  -1.726  -1.240  1.00  0.00    -0.360 OA
HETATM   25  H   LIG     1      -5.400  -1.834  -1.212  1.00  0.00     0.217 HD
ENDBRANCH   5  24
BRANCH   7  26
HETATM   26  O   LIG     1      -4.587   1.571   2.277  1.00  0.00    -0.361 OA
HETATM   27  H   LIG     1      -4.156   2.231   2.914  1.00  0.00     0.217 HD
ENDBRANCH   7  26
TORSDOF 6
