MODEL 1
REMARK VINA RESULT:      -9.0      0.000      0.000
REMARK  6 active torsions:
REMARK  status: ('A' for Active; 'I' for Inactive)
REMARK    1  A    between atoms: O_1  and  C_2 
REMARK    2  A    between atoms: C_4  and  O_5 
REMARK    3  A    between atoms: C_8  and  C_9 
REMARK    4  A    between atoms: C_10  and  O_11 
REMARK    5  A    between atoms: C_14  and  O_15 
REMARK    6  A    between atoms: C_17  and  O_18 
ROOT
HETATM    1  C   LIG     1      16.040  35.144  20.189  1.00  0.00     0.126 A 
HETATM    2  C   LIG     1      15.433  35.747  21.306  1.00  0.00     0.152 A 
HETATM    3  C   LIG     1      16.039  36.873  21.883  1.00  0.00     0.223 A 
HETATM    4  C   LIG     1      17.230  37.385  21.326  1.00  0.00     0.084 A 
HETATM    5  C   LIG     1      17.903  38.518  21.844  1.00  0.00     0.085 A 
HETATM    6  C   LIG     1      19.080  38.970  21.228  1.00  0.00     0.074 A 
HETATM    7  C   LIG     1      19.594  38.315  20.107  1.00  0.00     0.071 A 
HETATM    8  C   LIG     1      18.934  37.195  19.591  1.00  0.00     0.075 A 
HETATM    9  C   LIG     1      17.761  36.728  20.191  1.00  0.00     0.096 A 
HETATM   10  O   LIG     1      17.156  35.660  19.684  1.00  0.00    -0.306 OA
HETATM   11  O   LIG     1      15.509  37.417  22.890  1.00  0.00    -0.284 OA
ENDROOT
BRANCH   1  12
HETATM   12  C   LIG     1      15.464  33.943  19.541  1.00  0.00     0.034 A 
HETATM   13  C   LIG     1      15.300  33.897  18.141  1.00  0.00     0.081 A 
HETATM   14  C   LIG     1      14.782  32.744  17.534  1.00  0.00     0.074 A 
HETATM   15  C   LIG     1      14.431  31.632  18.309  1.00  0.00     0.068 A 
HETATM   16  C   LIG     1      14.604  31.671  19.694  1.00  0.00     0.037 A 
HETATM   17  C   LIG     1      15.122  32.814  20.308  1.00  0.00     0.020 A 
BRANCH  13  18
HETATM   18  O   LIG     1      15.639  35.002  17.359  1.00  0.00    -0.360 OA
HETATM   19  H   LIG     1      15.138  35.880  17.434  1.00  0.00     0.217 HD
ENDBRANCH  13  18
BRANCH  15  20
HETATM   20  O   LIG     1      13.915  30.484  17.712  1.00  0.00    -0.361 OA
HETATM   21  H   LIG     1      14.204  30.193  16.786  1.00  0.00     0.217 HD
ENDBRANCH  15  20
ENDBRANCH   1  12
BRANCH   2  22
HETATM   22  O   LIG     1      14.232  35.243  21.812  1.00  0.00    -0.355 OA
HETATM   23  H   LIG     1      13.503  34.874  21.212  1.00  0.00     0.218 HD
ENDBRANCH   2  22
BRANCH   5  24
HETATM   24  O   LIG     1      17.414  39.195  22.962  1.00  0.00    -0.360 OA
HETATM   25  H   LIG     1      16.671  39.880  22.887  1.00  0.00     0.217 HD
ENDBRANCH   5  24
BRANCH   7  26
HETATM   26  O   LIG     1      20.764  38.785  19.514  1.00  0.00    -0.361 OA
HETATM   27  H   LIG     1      21.153  38.345  18.688  1.00  0.00     0.217 HD
ENDBRANCH   7  26
TORSDOF 6
ENDMDL
MODEL 2
REMARK VINA RESULT:      -8.6      5.662      9.078
REMARK  6 active torsions:
REMARK  status: ('A' for Active; 'I' for Inactive)
REMARK    1  A    between atoms: O_1  and  C_2 
REMARK    2  A    between atoms: C_4  and  O_5 
REMARK    3  A    between atoms: C_8  and  C_9 
REMARK    4  A    between atoms: C_10  and  O_11 
REMARK    5  A    between atoms: C_14  and  O_15 
REMARK    6  A    between atoms: C_17  and  O_18 
ROOT
HETATM    1  C   LIG     1      17.388  33.277  13.593  1.00  0.00     0.126 A 
HETATM    2  C   LIG     1      17.063  33.932  14.796  1.00  0.00     0.152 A 
HETATM    3  C   LIG     1      16.064  33.387  15.617  1.00  0.00     0.223 A 
HETATM    4  C   LIG     1      15.420  32.192  15.231  1.00  0.00     0.084 A 
HETATM    5  C   LIG     1      14.406  31.575  16.003  1.00  0.00     0.085 A 
HETATM    6  C   LIG     1      13.819  30.382  15.554  1.00  0.00     0.074 A 
HETATM    7  C   LIG     1      14.226  29.796  14.353  1.00  0.00     0.071 A 
HETATM    8  C   LIG     1      15.226  30.401  13.586  1.00  0.00     0.075 A 
HETATM    9  C   LIG     1      15.822  31.591  14.016  1.00  0.00     0.096 A 
HETATM   10  O   LIG     1      16.768  32.147  13.266  1.00  0.00    -0.306 OA
HETATM   11  O   LIG     1      15.758  33.968  16.693  1.00  0.00    -0.284 OA
ENDROOT
BRANCH   1  12
HETATM   12  C   LIG     1      18.419  33.806  12.670  1.00  0.00     0.034 A 
HETATM   13  C   LIG     1      18.067  34.719  11.656  1.00  0.00     0.081 A 
HETATM   14  C   LIG     1      19.055  35.238  10.807  1.00  0.00     0.074 A 
HETATM   15  C   LIG     1      20.394  34.860  10.964  1.00  0.00     0.068 A 
HETATM   16  C   LIG     1      20.747  33.965  11.977  1.00  0.00     0.037 A 
HETATM   17  C   LIG     1      19.769  33.444  12.829  1.00  0.00     0.020 A 
BRANCH  13  18
HETATM   18  O   LIG     1      16.734  35.097  11.485  1.00  0.00    -0.360 OA
HETATM   19  H   LIG     1      16.075  34.510  10.986  1.00  0.00     0.217 HD
ENDBRANCH  13  18
BRANCH  15  20
HETATM   20  O   LIG     1      21.380  35.371  10.124  1.00  0.00    -0.361 OA
HETATM   21  H   LIG     1      21.555  34.972   9.209  1.00  0.00     0.217 HD
ENDBRANCH  15  20
ENDBRANCH   1  12
BRANCH   2  22
HETATM   22  O   LIG     1      17.745  35.091  15.172  1.00  0.00    -0.355 OA
HETATM   23  H   LIG     1      18.052  35.783  14.498  1.00  0.00     0.218 HD
ENDBRANCH   2  22
BRANCH   5  24
HETATM   24  O   LIG     1      13.979  32.135  17.208  1.00  0.00    -0.360 OA
HETATM   25  H   LIG     1      13.021  32.432  17.347  1.00  0.00     0.217 HD
ENDBRANCH   5  24
BRANCH   7  26
HETATM   26  O   LIG     1      13.627  28.611  13.931  1.00  0.00    -0.361 OA
HETATM   27  H   LIG     1      13.945  27.709  14.264  1.00  0.00     0.217 HD
ENDBRANCH   7  26
TORSDOF 6
ENDMDL
MODEL 3
REMARK VINA RESULT:      -6.7      5.485      8.061
REMARK  6 active torsions:
REMARK  status: ('A' for Active; 'I' for Inactive)
REMARK    1  A    between atoms: O_1  and  C_2 
REMARK    2  A    between atoms: C_4  and  O_5 
REMARK    3  A    between atoms: C_8  and  C_9 
REMARK    4  A    between atoms: C_10  and  O_11 
REMARK    5  A    between atoms: C_14  and  O_15 
REMARK    6  A    between atoms: C_17  and  O_18 
ROOT
HETATM    1  C   LIG     1      13.864  30.025  14.484  1.00  0.00     0.126 A 
HETATM    2  C   LIG     1      13.502  30.535  15.745  1.00  0.00     0.152 A 
HETATM    3  C   LIG     1      14.221  31.619  16.271  1.00  0.00     0.223 A 
HETATM    4  C   LIG     1      15.277  32.183  15.524  1.00  0.00     0.084 A 
HETATM    5  C   LIG     1      16.049  33.278  15.981  1.00  0.00     0.085 A 
HETATM    6  C   LIG     1      17.078  33.788  15.175  1.00  0.00     0.074 A 
HETATM    7  C   LIG     1      17.348  33.225  13.925  1.00  0.00     0.071 A 
HETATM    8  C   LIG     1      16.590  32.143  13.470  1.00  0.00     0.075 A 
HETATM    9  C   LIG     1      15.561  31.620  14.258  1.00  0.00     0.096 A 
HETATM   10  O   LIG     1      14.857  30.589  13.804  1.00  0.00    -0.306 OA
HETATM   11  O   LIG     1      13.911  32.079  17.404  1.00  0.00    -0.284 OA
ENDROOT
BRANCH   1  12
HETATM   12  C   LIG     1      13.160  28.873  13.876  1.00  0.00     0.034 A 
HETATM   13  C   LIG     1      13.846  27.666  13.633  1.00  0.00     0.081 A 
HETATM   14  C   LIG     1      13.162  26.570  13.086  1.00  0.00     0.074 A 
HETATM   15  C   LIG     1      11.799  26.664  12.784  1.00  0.00     0.068 A 
HETATM   16  C   LIG     1      11.114  27.855  13.036  1.00  0.00     0.037 A 
HETATM   17  C   LIG     1      11.786  28.952  13.583  1.00  0.00     0.020 A 
BRANCH  13  18
HETATM   18  O   LIG     1      15.207  27.562  13.922  1.00  0.00    -0.360 OA
HETATM   19  H   LIG     1      15.536  27.130  14.778  1.00  0.00     0.217 HD
ENDBRANCH  13  18
BRANCH  15  20
HETATM   20  O   LIG     1      11.115  25.580  12.239  1.00  0.00    -0.361 OA
HETATM   21  H   LIG     1      10.206  25.692  11.804  1.00  0.00     0.217 HD
ENDBRANCH  15  20
ENDBRANCH   1  12
BRANCH   2  22
HETATM   22  O   LIG     1      12.425  29.983  16.444  1.00  0.00    -0.355 OA
HETATM   23  H   LIG     1      11.763  30.552  16.958  1.00  0.00     0.218 HD
ENDBRANCH   2  22
BRANCH   5  24
HETATM   24  O   LIG     1      15.802  33.863  17.224  1.00  0.00    -0.360 OA
HETATM   25  H   LIG     1      15.110  33.488  17.861  1.00  0.00     0.217 HD
ENDBRANCH   5  24
BRANCH   7  26
HETATM   26  O   LIG     1      18.376  33.751  13.144  1.00  0.00    -0.361 OA
HETATM   27  H   LIG     1      19.143  33.173  12.819  1.00  0.00     0.217 HD
ENDBRANCH   7  26
TORSDOF 6
ENDMDL
MODEL 4
REMARK VINA RESULT:      -6.7      1.492      6.453
REMARK  6 active torsions:
REMARK  status: ('A' for Active; 'I' for Inactive)
REMARK    1  A    between atoms: O_1  and  C_2 
REMARK    2  A    between atoms: C_4  and  O_5 
REMARK    3  A    between atoms: C_8  and  C_9 
REMARK    4  A    between atoms: C_10  and  O_11 
REMARK    5  A    between atoms: C_14  and  O_15 
REMARK    6  A    between atoms: C_17  and  O_18 
ROOT
HETATM    1  C   LIG     1      15.698  34.880  20.182  1.00  0.00     0.126 A 
HETATM    2  C   LIG     1      15.082  33.748  20.748  1.00  0.00     0.152 A 
HETATM    3  C   LIG     1      14.723  32.681  19.911  1.00  0.00     0.223 A 
HETATM    4  C   LIG     1      15.000  32.756  18.529  1.00  0.00     0.084 A 
HETATM    5  C   LIG     1      14.674  31.723  17.617  1.00  0.00     0.085 A 
HETATM    6  C   LIG     1      14.990  31.870  16.258  1.00  0.00     0.074 A 
HETATM    7  C   LIG     1      15.622  33.026  15.795  1.00  0.00     0.071 A 
HETATM    8  C   LIG     1      15.945  34.050  16.690  1.00  0.00     0.075 A 
HETATM    9  C   LIG     1      15.639  33.923  18.048  1.00  0.00     0.096 A 
HETATM   10  O   LIG     1      15.953  34.912  18.878  1.00  0.00    -0.306 OA
HETATM   11  O   LIG     1      14.163  31.665  20.404  1.00  0.00    -0.284 OA
ENDROOT
BRANCH   1  12
HETATM   12  C   LIG     1      16.087  36.050  21.004  1.00  0.00     0.034 A 
HETATM   13  C   LIG     1      17.341  36.666  20.817  1.00  0.00     0.081 A 
HETATM   14  C   LIG     1      17.687  37.792  21.579  1.00  0.00     0.074 A 
HETATM   15  C   LIG     1      16.792  38.313  22.521  1.00  0.00     0.068 A 
HETATM   16  C   LIG     1      15.545  37.711  22.699  1.00  0.00     0.037 A 
HETATM   17  C   LIG     1      15.189  36.590  21.943  1.00  0.00     0.020 A 
BRANCH  13  18
HETATM   18  O   LIG     1      18.243  36.152  19.886  1.00  0.00    -0.360 OA
HETATM   19  H   LIG     1      17.952  35.494  19.172  1.00  0.00     0.217 HD
ENDBRANCH  13  18
BRANCH  15  20
HETATM   20  O   LIG     1      17.131  39.430  23.282  1.00  0.00    -0.361 OA
HETATM   21  H   LIG     1      17.288  40.335  22.853  1.00  0.00     0.217 HD
ENDBRANCH  15  20
ENDBRANCH   1  12
BRANCH   2  22
HETATM   22  O   LIG     1      14.857  33.684  22.125  1.00  0.00    -0.355 OA
HETATM   23  H   LIG     1      14.952  34.494  22.728  1.00  0.00     0.218 HD
ENDBRANCH   2  22
BRANCH   5  24
HETATM   24  O   LIG     1      14.043  30.556  18.049  1.00  0.00    -0.360 OA
HETATM   25  H   LIG     1      14.483  29.647  17.958  1.00  0.00     0.217 HD
ENDBRANCH   5  24
BRANCH   7  26
HETATM   26  O   LIG     1      15.925  33.147  14.440  1.00  0.00    -0.361 OA
HETATM   27  H   LIG     1      16.718  33.691  14.120  1.00  0.00     0.217 HD
ENDBRANCH   7  26
TORSDOF 6
ENDMDL
MODEL 5
REMARK VINA RESULT:      -6.3      5.234      8.420
REMARK  6 active torsions:
REMARK  status: ('A' for Active; 'I' for Inactive)
REMARK    1  A    between atoms: O_1  and  C_2 
REMARK    2  A    between atoms: C_4  and  O_5 
REMARK    3  A    between atoms: C_8  and  C_9 
REMARK    4  A    between atoms: C_10  and  O_11 
REMARK    5  A    between atoms: C_14  and  O_15 
REMARK    6  A    between atoms: C_17  and  O_18 
ROOT
HETATM    1  C   LIG     1      17.385  33.318  13.693  1.00  0.00     0.126 A 
HETATM    2  C   LIG     1      16.666  32.128  13.473  1.00  0.00     0.152 A 
HETATM    3  C   LIG     1      15.753  31.697  14.448  1.00  0.00     0.223 A 
HETATM    4  C   LIG     1      15.564  32.469  15.615  1.00  0.00     0.084 A 
HETATM    5  C   LIG     1      14.662  32.107  16.644  1.00  0.00     0.085 A 
HETATM    6  C   LIG     1      14.525  32.932  17.771  1.00  0.00     0.074 A 
HETATM    7  C   LIG     1      15.270  34.107  17.887  1.00  0.00     0.071 A 
HETATM    8  C   LIG     1      16.163  34.469  16.875  1.00  0.00     0.075 A 
HETATM    9  C   LIG     1      16.315  33.660  15.744  1.00  0.00     0.096 A 
HETATM   10  O   LIG     1      17.174  34.025  14.798  1.00  0.00    -0.306 OA
HETATM   11  O   LIG     1      15.108  30.629  14.267  1.00  0.00    -0.284 OA
ENDROOT
BRANCH   1  12
HETATM   12  C   LIG     1      18.376  33.822  12.714  1.00  0.00     0.034 A 
HETATM   13  C   LIG     1      17.980  34.704  11.689  1.00  0.00     0.081 A 
HETATM   14  C   LIG     1      18.932  35.200  10.786  1.00  0.00     0.074 A 
HETATM   15  C   LIG     1      20.277  34.830  10.899  1.00  0.00     0.068 A 
HETATM   16  C   LIG     1      20.674  33.965  11.922  1.00  0.00     0.037 A 
HETATM   17  C   LIG     1      19.733  33.468  12.828  1.00  0.00     0.020 A 
BRANCH  13  18
HETATM   18  O   LIG     1      16.641  35.076  11.561  1.00  0.00    -0.360 OA
HETATM   19  H   LIG     1      16.143  34.973  10.684  1.00  0.00     0.217 HD
ENDBRANCH  13  18
BRANCH  15  20
HETATM   20  O   LIG     1      21.227  35.318  10.005  1.00  0.00    -0.361 OA
HETATM   21  H   LIG     1      22.061  34.789   9.777  1.00  0.00     0.217 HD
ENDBRANCH  15  20
ENDBRANCH   1  12
BRANCH   2  22
HETATM   22  O   LIG     1      16.843  31.407  12.290  1.00  0.00    -0.355 OA
HETATM   23  H   LIG     1      17.345  30.526  12.262  1.00  0.00     0.218 HD
ENDBRANCH   2  22
BRANCH   5  24
HETATM   24  O   LIG     1      13.902  30.940  16.557  1.00  0.00    -0.360 OA
HETATM   25  H   LIG     1      14.235  30.123  16.058  1.00  0.00     0.217 HD
ENDBRANCH   5  24
BRANCH   7  26
HETATM   26  O   LIG     1      15.115  34.909  19.016  1.00  0.00    -0.361 OA
HETATM   27  H   LIG     1      15.746  34.840  19.806  1.00  0.00     0.217 HD
ENDBRANCH   7  26
TORSDOF 6
ENDMDL
MODEL 6
REMARK VINA RESULT:      -6.1      5.401      7.451
REMARK  6 active torsions:
REMARK  status: ('A' for Active; 'I' for Inactive)
REMARK    1  A    between atoms: O_1  and  C_2 
REMARK    2  A    between atoms: C_4  and  O_5 
REMARK    3  A    between atoms: C_8  and  C_9 
REMARK    4  A    between atoms: C_10  and  O_11 
REMARK    5  A    between atoms: C_14  and  O_15 
REMARK    6  A    between atoms: C_17  and  O_18 
ROOT
HETATM    1  C   LIG     1      14.890  30.880  14.499  1.00  0.00     0.126 A 
HETATM    2  C   LIG     1      14.752  31.502  15.754  1.00  0.00     0.152 A 
HETATM    3  C   LIG     1      15.501  32.657  16.025  1.00  0.00     0.223 A 
HETATM    4  C   LIG     1      16.361  33.178  15.035  1.00  0.00     0.084 A 
HETATM    5  C   LIG     1      17.148  34.340  15.227  1.00  0.00     0.085 A 
HETATM    6  C   LIG     1      17.974  34.799  14.190  1.00  0.00     0.074 A 
HETATM    7  C   LIG     1      18.027  34.123  12.969  1.00  0.00     0.071 A 
HETATM    8  C   LIG     1      17.253  32.975  12.774  1.00  0.00     0.075 A 
HETATM    9  C   LIG     1      16.425  32.500  13.796  1.00  0.00     0.096 A 
HETATM   10  O   LIG     1      15.702  31.405  13.586  1.00  0.00    -0.306 OA
HETATM   11  O   LIG     1      15.392  33.219  17.149  1.00  0.00    -0.284 OA
ENDROOT
BRANCH   1  12
HETATM   12  C   LIG     1      14.143  29.649  14.151  1.00  0.00     0.034 A 
HETATM   13  C   LIG     1      14.828  28.434  13.946  1.00  0.00     0.081 A 
HETATM   14  C   LIG     1      14.110  27.267  13.648  1.00  0.00     0.074 A 
HETATM   15  C   LIG     1      12.713  27.298  13.559  1.00  0.00     0.068 A 
HETATM   16  C   LIG     1      12.032  28.498  13.774  1.00  0.00     0.037 A 
HETATM   17  C   LIG     1      12.739  29.666  14.074  1.00  0.00     0.020 A 
BRANCH  13  18
HETATM   18  O   LIG     1      16.221  28.392  14.025  1.00  0.00    -0.360 OA
HETATM   19  H   LIG     1      16.695  28.013  14.837  1.00  0.00     0.217 HD
ENDBRANCH  13  18
BRANCH  15  20
HETATM   20  O   LIG     1      11.994  26.143  13.262  1.00  0.00    -0.361 OA
HETATM   21  H   LIG     1      12.451  25.311  12.908  1.00  0.00     0.217 HD
ENDBRANCH  15  20
ENDBRANCH   1  12
BRANCH   2  22
HETATM   22  O   LIG     1      13.862  30.987  16.700  1.00  0.00    -0.355 OA
HETATM   23  H   LIG     1      13.133  30.327  16.455  1.00  0.00     0.218 HD
ENDBRANCH   2  22
BRANCH   5  24
HETATM   24  O   LIG     1      17.116  35.038  16.435  1.00  0.00    -0.360 OA
HETATM   25  H   LIG     1      17.315  36.031  16.482  1.00  0.00     0.217 HD
ENDBRANCH   5  24
BRANCH   7  26
HETATM   26  O   LIG     1      18.855  34.601  11.956  1.00  0.00    -0.361 OA
HETATM   27  H   LIG     1      19.752  35.025  12.160  1.00  0.00     0.217 HD
ENDBRANCH   7  26
TORSDOF 6
ENDMDL
