MODEL 1
REMARK VINA RESULT:      -5.6      0.000      0.000
REMARK  1 active torsions:
REMARK  status: ('A' for Active; 'I' for Inactive)
REMARK    1  A    between atoms: C_8  and  O_9 
ROOT
HETATM    1  C   LIG     1      29.657  27.022  32.652  1.00  0.00     0.016 C 
HETATM    2  C   LIG     1      28.928  28.374  32.371  1.00  0.00    -0.036 C 
HETATM    3  C   LIG     1      27.634  28.139  31.512  1.00  0.00    -0.004 C 
HETATM    4  C   LIG     1      26.568  27.301  32.245  1.00  0.00     0.006 C 
HETATM    5  C   LIG     1      26.185  27.940  33.586  1.00  0.00     0.006 C 
HETATM    6  C   LIG     1      29.957  29.276  31.580  1.00  0.00     0.012 C 
HETATM    7  C   LIG     1      29.559  29.558  30.120  1.00  0.00     0.032 C 
HETATM    8  C   LIG     1      29.107  28.279  29.389  1.00  0.00     0.118 C 
HETATM    9  C   LIG     1      27.955  27.545  30.123  1.00  0.00     0.037 C 
HETATM   10  C   LIG     1      28.512  29.034  33.747  1.00  0.00    -0.002 C 
HETATM   11  C   LIG     1      27.421  28.194  34.479  1.00  0.00    -0.004 C 
HETATM   12  C   LIG     1      27.040  28.782  35.877  1.00  0.00     0.006 C 
HETATM   13  C   LIG     1      28.034  28.329  36.979  1.00  0.00     0.013 C 
HETATM   14  C   LIG     1      28.979  29.490  37.260  1.00  0.00     0.079 C 
HETATM   15  C   LIG     1      28.276  30.667  36.702  1.00  0.00     0.135 C 
HETATM   16  O   LIG     1      28.691  31.807  36.852  1.00  0.00    -0.297 OA
HETATM   17  C   LIG     1      27.021  30.338  35.955  1.00  0.00     0.021 C 
HETATM   18  C   LIG     1      25.813  30.825  36.781  1.00  0.00     0.024 C 
HETATM   19  C   LIG     1      27.004  31.020  34.571  1.00  0.00     0.018 C 
HETATM   20  C   LIG     1      28.121  30.543  33.629  1.00  0.00     0.007 C 
ENDROOT
BRANCH   8  21
HETATM   21  O   LIG     1      30.197  27.406  29.230  1.00  0.00    -0.396 OA
HETATM   22  H   LIG     1      30.979  27.837  29.665  1.00  0.00     0.210 HD
ENDBRANCH   8  21
TORSDOF 1
ENDMDL
MODEL 2
REMARK VINA RESULT:      -5.4     14.082     15.981
REMARK  1 active torsions:
REMARK  status: ('A' for Active; 'I' for Inactive)
REMARK    1  A    between atoms: C_8  and  O_9 
ROOT
HETATM    1  C   LIG     1      23.537  23.062  21.707  1.00  0.00     0.016 C 
HETATM    2  C   LIG     1      24.644  22.073  21.223  1.00  0.00    -0.036 C 
HETATM    3  C   LIG     1      24.035  20.979  20.275  1.00  0.00    -0.004 C 
HETATM    4  C   LIG     1      23.476  21.562  18.962  1.00  0.00     0.006 C 
HETATM    5  C   LIG     1      24.547  22.357  18.206  1.00  0.00     0.006 C 
HETATM    6  C   LIG     1      25.241  21.404  22.524  1.00  0.00     0.012 C 
HETATM    7  C   LIG     1      24.934  19.901  22.660  1.00  0.00     0.032 C 
HETATM    8  C   LIG     1      23.453  19.587  22.376  1.00  0.00     0.118 C 
HETATM    9  C   LIG     1      22.984  20.105  20.992  1.00  0.00     0.037 C 
HETATM   10  C   LIG     1      25.747  22.880  20.425  1.00  0.00    -0.002 C 
HETATM   11  C   LIG     1      25.183  23.455  19.090  1.00  0.00    -0.004 C 
HETATM   12  C   LIG     1      26.229  24.320  18.312  1.00  0.00     0.006 C 
HETATM   13  C   LIG     1      26.275  25.777  18.843  1.00  0.00     0.013 C 
HETATM   14  C   LIG     1      27.507  25.911  19.729  1.00  0.00     0.079 C 
HETATM   15  C   LIG     1      28.350  24.756  19.349  1.00  0.00     0.135 C 
HETATM   16  O   LIG     1      29.484  24.605  19.779  1.00  0.00    -0.297 OA
HETATM   17  C   LIG     1      27.698  23.807  18.392  1.00  0.00     0.021 C 
HETATM   18  C   LIG     1      28.391  23.934  17.020  1.00  0.00     0.024 C 
HETATM   19  C   LIG     1      27.811  22.351  18.891  1.00  0.00     0.018 C 
HETATM   20  C   LIG     1      27.079  22.090  20.216  1.00  0.00     0.007 C 
ENDROOT
BRANCH   8  21
HETATM   21  O   LIG     1      22.644  20.141  23.385  1.00  0.00    -0.396 OA
HETATM   22  H   LIG     1      23.172  20.862  23.816  1.00  0.00     0.210 HD
ENDBRANCH   8  21
TORSDOF 1
ENDMDL
MODEL 3
REMARK VINA RESULT:      -5.3     13.755     16.500
REMARK  1 active torsions:
REMARK  status: ('A' for Active; 'I' for Inactive)
REMARK    1  A    between atoms: C_8  and  O_9 
ROOT
HETATM    1  C   LIG     1      25.908  25.717  19.007  1.00  0.00     0.016 C 
HETATM    2  C   LIG     1      26.876  24.507  18.821  1.00  0.00    -0.036 C 
HETATM    3  C   LIG     1      27.918  24.445  19.995  1.00  0.00    -0.004 C 
HETATM    4  C   LIG     1      27.266  24.177  21.367  1.00  0.00     0.006 C 
HETATM    5  C   LIG     1      26.439  22.885  21.346  1.00  0.00     0.006 C 
HETATM    6  C   LIG     1      27.614  24.736  17.443  1.00  0.00     0.012 C 
HETATM    7  C   LIG     1      29.120  25.028  17.573  1.00  0.00     0.032 C 
HETATM    8  C   LIG     1      29.411  26.081  18.659  1.00  0.00     0.118 C 
HETATM    9  C   LIG     1      28.822  25.696  20.041  1.00  0.00     0.037 C 
HETATM   10  C   LIG     1      26.035  23.167  18.816  1.00  0.00    -0.002 C 
HETATM   11  C   LIG     1      25.390  22.889  20.209  1.00  0.00    -0.004 C 
HETATM   12  C   LIG     1      24.493  21.608  20.217  1.00  0.00     0.006 C 
HETATM   13  C   LIG     1      23.065  21.907  19.689  1.00  0.00     0.013 C 
HETATM   14  C   LIG     1      22.982  21.397  18.256  1.00  0.00     0.079 C 
HETATM   15  C   LIG     1      24.120  20.458  18.143  1.00  0.00     0.135 C 
HETATM   16  O   LIG     1      24.299  19.764  17.153  1.00  0.00    -0.297 OA
HETATM   17  C   LIG     1      25.017  20.430  19.342  1.00  0.00     0.021 C 
HETATM   18  C   LIG     1      24.824  19.085  20.072  1.00  0.00     0.024 C 
HETATM   19  C   LIG     1      26.497  20.584  18.932  1.00  0.00     0.018 C 
HETATM   20  C   LIG     1      26.821  21.932  18.269  1.00  0.00     0.007 C 
ENDROOT
BRANCH   8  21
HETATM   21  O   LIG     1      28.906  27.331  18.263  1.00  0.00    -0.396 OA
HETATM   22  H   LIG     1      29.678  27.866  17.939  1.00  0.00     0.210 HD
ENDBRANCH   8  21
TORSDOF 1
ENDMDL
MODEL 4
REMARK VINA RESULT:      -5.3      1.571      5.930
REMARK  1 active torsions:
REMARK  status: ('A' for Active; 'I' for Inactive)
REMARK    1  A    between atoms: C_8  and  O_9 
ROOT
HETATM    1  C   LIG     1      26.137  30.386  35.461  1.00  0.00     0.016 C 
HETATM    2  C   LIG     1      27.624  29.921  35.564  1.00  0.00    -0.036 C 
HETATM    3  C   LIG     1      27.901  29.255  36.960  1.00  0.00    -0.004 C 
HETATM    4  C   LIG     1      27.101  27.955  37.176  1.00  0.00     0.006 C 
HETATM    5  C   LIG     1      27.376  26.940  36.060  1.00  0.00     0.006 C 
HETATM    6  C   LIG     1      28.508  31.219  35.388  1.00  0.00     0.012 C 
HETATM    7  C   LIG     1      29.278  31.636  36.655  1.00  0.00     0.032 C 
HETATM    8  C   LIG     1      28.381  31.613  37.908  1.00  0.00     0.118 C 
HETATM    9  C   LIG     1      27.694  30.241  38.129  1.00  0.00     0.037 C 
HETATM   10  C   LIG     1      27.914  28.860  34.428  1.00  0.00    -0.002 C 
HETATM   11  C   LIG     1      27.117  27.540  34.658  1.00  0.00    -0.004 C 
HETATM   12  C   LIG     1      27.327  26.496  33.512  1.00  0.00     0.006 C 
HETATM   13  C   LIG     1      26.389  26.773  32.307  1.00  0.00     0.013 C 
HETATM   14  C   LIG     1      27.216  27.448  31.220  1.00  0.00     0.079 C 
HETATM   15  C   LIG     1      28.616  27.146  31.594  1.00  0.00     0.135 C 
HETATM   16  O   LIG     1      29.561  27.435  30.875  1.00  0.00    -0.297 OA
HETATM   17  C   LIG     1      28.765  26.455  32.913  1.00  0.00     0.021 C 
HETATM   18  C   LIG     1      29.204  24.998  32.661  1.00  0.00     0.024 C 
HETATM   19  C   LIG     1      29.815  27.161  33.796  1.00  0.00     0.018 C 
HETATM   20  C   LIG     1      29.435  28.599  34.182  1.00  0.00     0.007 C 
ENDROOT
BRANCH   8  21
HETATM   21  O   LIG     1      27.405  32.621  37.817  1.00  0.00    -0.396 OA
HETATM   22  H   LIG     1      26.531  32.196  38.022  1.00  0.00     0.210 HD
ENDBRANCH   8  21
TORSDOF 1
ENDMDL
MODEL 5
REMARK VINA RESULT:      -5.1     13.571     15.467
REMARK  1 active torsions:
REMARK  status: ('A' for Active; 'I' for Inactive)
REMARK    1  A    between atoms: C_8  and  O_9 
ROOT
HETATM    1  C   LIG     1      27.677  25.311  21.104  1.00  0.00     0.016 C 
HETATM    2  C   LIG     1      27.384  24.476  19.817  1.00  0.00    -0.036 C 
HETATM    3  C   LIG     1      28.566  23.486  19.516  1.00  0.00    -0.004 C 
HETATM    4  C   LIG     1      28.746  22.413  20.608  1.00  0.00     0.006 C 
HETATM    5  C   LIG     1      27.453  21.617  20.824  1.00  0.00     0.006 C 
HETATM    6  C   LIG     1      27.225  25.518  18.640  1.00  0.00     0.012 C 
HETATM    7  C   LIG     1      28.345  25.455  17.585  1.00  0.00     0.032 C 
HETATM    8  C   LIG     1      29.742  25.398  18.231  1.00  0.00     0.118 C 
HETATM    9  C   LIG     1      29.891  24.227  19.236  1.00  0.00     0.037 C 
HETATM   10  C   LIG     1      26.061  23.637  20.035  1.00  0.00    -0.002 C 
HETATM   11  C   LIG     1      26.250  22.541  21.128  1.00  0.00    -0.004 C 
HETATM   12  C   LIG     1      24.938  21.740  21.418  1.00  0.00     0.006 C 
HETATM   13  C   LIG     1      24.022  22.488  22.422  1.00  0.00     0.013 C 
HETATM   14  C   LIG     1      22.900  23.145  21.628  1.00  0.00     0.079 C 
HETATM   15  C   LIG     1      22.912  22.431  20.332  1.00  0.00     0.135 C 
HETATM   16  O   LIG     1      22.060  22.617  19.475  1.00  0.00    -0.297 OA
HETATM   17  C   LIG     1      24.044  21.465  20.172  1.00  0.00     0.021 C 
HETATM   18  C   LIG     1      23.480  20.030  20.216  1.00  0.00     0.024 C 
HETATM   19  C   LIG     1      24.778  21.687  18.832  1.00  0.00     0.018 C 
HETATM   20  C   LIG     1      25.455  23.061  18.714  1.00  0.00     0.007 C 
ENDROOT
BRANCH   8  21
HETATM   21  O   LIG     1      30.021  26.614  18.878  1.00  0.00    -0.396 OA
HETATM   22  H   LIG     1      30.283  26.393  19.810  1.00  0.00     0.210 HD
ENDBRANCH   8  21
TORSDOF 1
ENDMDL
MODEL 6
REMARK VINA RESULT:      -5.1     11.836     15.798
REMARK  1 active torsions:
REMARK  status: ('A' for Active; 'I' for Inactive)
REMARK    1  A    between atoms: C_8  and  O_9 
ROOT
HETATM    1  C   LIG     1      29.105  23.392  19.899  1.00  0.00     0.016 C 
HETATM    2  C   LIG     1      27.779  23.661  20.677  1.00  0.00    -0.036 C 
HETATM    3  C   LIG     1      27.313  25.148  20.482  1.00  0.00    -0.004 C 
HETATM    4  C   LIG     1      26.946  25.478  19.021  1.00  0.00     0.006 C 
HETATM    5  C   LIG     1      25.865  24.528  18.491  1.00  0.00     0.006 C 
HETATM    6  C   LIG     1      28.093  23.378  22.200  1.00  0.00     0.012 C 
HETATM    7  C   LIG     1      28.057  24.630  23.096  1.00  0.00     0.032 C 
HETATM    8  C   LIG     1      28.829  25.808  22.471  1.00  0.00     0.118 C 
HETATM    9  C   LIG     1      28.335  26.159  21.044  1.00  0.00     0.037 C 
HETATM   10  C   LIG     1      26.651  22.698  20.126  1.00  0.00    -0.002 C 
HETATM   11  C   LIG     1      26.270  23.044  18.654  1.00  0.00    -0.004 C 
HETATM   12  C   LIG     1      25.208  22.064  18.056  1.00  0.00     0.006 C 
HETATM   13  C   LIG     1      25.867  20.769  17.511  1.00  0.00     0.013 C 
HETATM   14  C   LIG     1      25.638  19.664  18.534  1.00  0.00     0.079 C 
HETATM   15  C   LIG     1      24.528  20.173  19.370  1.00  0.00     0.135 C 
HETATM   16  O   LIG     1      23.993  19.491  20.232  1.00  0.00    -0.297 OA
HETATM   17  C   LIG     1      24.119  21.579  19.060  1.00  0.00     0.021 C 
HETATM   18  C   LIG     1      22.733  21.553  18.384  1.00  0.00     0.024 C 
HETATM   19  C   LIG     1      24.047  22.433  20.344  1.00  0.00     0.018 C 
HETATM   20  C   LIG     1      25.399  22.597  21.056  1.00  0.00     0.007 C 
ENDROOT
BRANCH   8  21
HETATM   21  O   LIG     1      30.204  25.515  22.435  1.00  0.00    -0.396 OA
HETATM   22  H   LIG     1      30.684  26.384  22.428  1.00  0.00     0.210 HD
ENDBRANCH   8  21
TORSDOF 1
ENDMDL
MODEL 7
REMARK VINA RESULT:      -5.1     11.038     13.945
REMARK  1 active torsions:
REMARK  status: ('A' for Active; 'I' for Inactive)
REMARK    1  A    between atoms: C_8  and  O_9 
ROOT
HETATM    1  C   LIG     1      22.957  23.182  21.502  1.00  0.00     0.016 C 
HETATM    2  C   LIG     1      23.912  21.947  21.459  1.00  0.00    -0.036 C 
HETATM    3  C   LIG     1      25.163  22.244  20.558  1.00  0.00    -0.004 C 
HETATM    4  C   LIG     1      26.056  23.370  21.119  1.00  0.00     0.006 C 
HETATM    5  C   LIG     1      26.515  23.056  22.548  1.00  0.00     0.006 C 
HETATM    6  C   LIG     1      23.069  20.755  20.854  1.00  0.00     0.012 C 
HETATM    7  C   LIG     1      23.538  20.291  19.464  1.00  0.00     0.032 C 
HETATM    8  C   LIG     1      23.781  21.477  18.511  1.00  0.00     0.118 C 
HETATM    9  C   LIG     1      24.774  22.518  19.089  1.00  0.00     0.037 C 
HETATM   10  C   LIG     1      24.406  21.625  22.927  1.00  0.00    -0.002 C 
HETATM   11  C   LIG     1      25.322  22.757  23.485  1.00  0.00    -0.004 C 
HETATM   12  C   LIG     1      25.770  22.501  24.962  1.00  0.00     0.006 C 
HETATM   13  C   LIG     1      24.691  22.966  25.976  1.00  0.00     0.013 C 
HETATM   14  C   LIG     1      23.953  21.728  26.470  1.00  0.00     0.079 C 
HETATM   15  C   LIG     1      24.858  20.609  26.124  1.00  0.00     0.135 C 
HETATM   16  O   LIG     1      24.642  19.460  26.480  1.00  0.00    -0.297 OA
HETATM   17  C   LIG     1      26.053  21.011  25.317  1.00  0.00     0.021 C 
HETATM   18  C   LIG     1      27.310  20.895  26.204  1.00  0.00     0.024 C 
HETATM   19  C   LIG     1      26.215  20.107  24.077  1.00  0.00     0.018 C 
HETATM   20  C   LIG     1      25.053  20.209  23.077  1.00  0.00     0.007 C 
ENDROOT
BRANCH   8  21
HETATM   21  O   LIG     1      22.560  22.107  18.210  1.00  0.00    -0.396 OA
HETATM   22  H   LIG     1      22.151  22.374  19.075  1.00  0.00     0.210 HD
ENDBRANCH   8  21
TORSDOF 1
ENDMDL
MODEL 8
REMARK VINA RESULT:      -4.9     14.157     16.304
REMARK  1 active torsions:
REMARK  status: ('A' for Active; 'I' for Inactive)
REMARK    1  A    between atoms: C_8  and  O_9 
ROOT
HETATM    1  C   LIG     1      26.353  20.726  19.617  1.00  0.00     0.016 C 
HETATM    2  C   LIG     1      25.687  22.103  19.303  1.00  0.00    -0.036 C 
HETATM    3  C   LIG     1      24.968  22.675  20.577  1.00  0.00    -0.004 C 
HETATM    4  C   LIG     1      25.945  23.001  21.725  1.00  0.00     0.006 C 
HETATM    5  C   LIG     1      27.033  23.979  21.268  1.00  0.00     0.006 C 
HETATM    6  C   LIG     1      24.637  21.836  18.152  1.00  0.00     0.012 C 
HETATM    7  C   LIG     1      23.169  22.009  18.583  1.00  0.00     0.032 C 
HETATM    8  C   LIG     1      22.874  21.305  19.921  1.00  0.00     0.118 C 
HETATM    9  C   LIG     1      23.821  21.761  21.061  1.00  0.00     0.037 C 
HETATM   10  C   LIG     1      26.804  23.126  18.847  1.00  0.00    -0.002 C 
HETATM   11  C   LIG     1      27.780  23.467  20.014  1.00  0.00    -0.004 C 
HETATM   12  C   LIG     1      28.940  24.422  19.575  1.00  0.00     0.006 C 
HETATM   13  C   LIG     1      30.106  23.639  18.916  1.00  0.00     0.013 C 
HETATM   14  C   LIG     1      29.999  23.827  17.408  1.00  0.00     0.079 C 
HETATM   15  C   LIG     1      29.123  25.009  17.255  1.00  0.00     0.135 C 
HETATM   16  O   LIG     1      28.908  25.527  16.169  1.00  0.00    -0.297 OA
HETATM   17  C   LIG     1      28.539  25.513  18.538  1.00  0.00     0.021 C 
HETATM   18  C   LIG     1      29.201  26.861  18.888  1.00  0.00     0.024 C 
HETATM   19  C   LIG     1      27.013  25.708  18.415  1.00  0.00     0.018 C 
HETATM   20  C   LIG     1      26.239  24.407  18.152  1.00  0.00     0.007 C 
ENDROOT
BRANCH   8  21
HETATM   21  O   LIG     1      22.967  19.911  19.760  1.00  0.00    -0.396 OA
HETATM   22  H   LIG     1      22.039  19.559  19.745  1.00  0.00     0.210 HD
ENDBRANCH   8  21
TORSDOF 1
ENDMDL
MODEL 9
REMARK VINA RESULT:      -4.8      9.772     13.164
REMARK  1 active torsions:
REMARK  status: ('A' for Active; 'I' for Inactive)
REMARK    1  A    between atoms: C_8  and  O_9 
ROOT
HETATM    1  C   LIG     1      25.774  23.426  20.221  1.00  0.00     0.016 C 
HETATM    2  C   LIG     1      24.961  22.736  21.362  1.00  0.00    -0.036 C 
HETATM    3  C   LIG     1      24.919  21.180  21.151  1.00  0.00    -0.004 C 
HETATM    4  C   LIG     1      26.310  20.521  21.250  1.00  0.00     0.006 C 
HETATM    5  C   LIG     1      26.981  20.839  22.592  1.00  0.00     0.006 C 
HETATM    6  C   LIG     1      23.502  23.340  21.294  1.00  0.00     0.012 C 
HETATM    7  C   LIG     1      22.421  22.333  20.862  1.00  0.00     0.032 C 
HETATM    8  C   LIG     1      22.854  21.515  19.630  1.00  0.00     0.118 C 
HETATM    9  C   LIG     1      24.207  20.788  19.838  1.00  0.00     0.037 C 
HETATM   10  C   LIG     1      25.655  23.043  22.750  1.00  0.00    -0.002 C 
HETATM   11  C   LIG     1      27.053  22.362  22.855  1.00  0.00    -0.004 C 
HETATM   12  C   LIG     1      27.796  22.704  24.189  1.00  0.00     0.006 C 
HETATM   13  C   LIG     1      28.539  24.063  24.096  1.00  0.00     0.013 C 
HETATM   14  C   LIG     1      27.703  25.102  24.832  1.00  0.00     0.079 C 
HETATM   15  C   LIG     1      26.795  24.298  25.679  1.00  0.00     0.135 C 
HETATM   16  O   LIG     1      26.050  24.805  26.505  1.00  0.00    -0.297 OA
HETATM   17  C   LIG     1      26.880  22.822  25.443  1.00  0.00     0.021 C 
HETATM   18  C   LIG     1      27.549  22.162  26.666  1.00  0.00     0.024 C 
HETATM   19  C   LIG     1      25.478  22.211  25.235  1.00  0.00     0.018 C 
HETATM   20  C   LIG     1      24.750  22.737  23.987  1.00  0.00     0.007 C 
ENDROOT
BRANCH   8  21
HETATM   21  O   LIG     1      22.937  22.353  18.504  1.00  0.00    -0.396 OA
HETATM   22  H   LIG     1      22.054  22.795  18.406  1.00  0.00     0.210 HD
ENDBRANCH   8  21
TORSDOF 1
ENDMDL
MODEL 10
REMARK VINA RESULT:      -4.7     13.734     15.126
REMARK  1 active torsions:
REMARK  status: ('A' for Active; 'I' for Inactive)
REMARK    1  A    between atoms: C_8  and  O_9 
ROOT
HETATM    1  C   LIG     1      27.573  22.020  19.137  1.00  0.00     0.016 C 
HETATM    2  C   LIG     1      26.562  22.853  19.987  1.00  0.00    -0.036 C 
HETATM    3  C   LIG     1      25.468  23.505  19.068  1.00  0.00    -0.004 C 
HETATM    4  C   LIG     1      24.574  22.465  18.364  1.00  0.00     0.006 C 
HETATM    5  C   LIG     1      23.902  21.532  19.378  1.00  0.00     0.006 C 
HETATM    6  C   LIG     1      27.410  23.972  20.714  1.00  0.00     0.012 C 
HETATM    7  C   LIG     1      27.112  25.403  20.230  1.00  0.00     0.032 C 
HETATM    8  C   LIG     1      27.076  25.497  18.693  1.00  0.00     0.118 C 
HETATM    9  C   LIG     1      26.075  24.500  18.055  1.00  0.00     0.037 C 
HETATM   10  C   LIG     1      25.849  21.896  21.026  1.00  0.00    -0.002 C 
HETATM   11  C   LIG     1      24.932  20.856  20.313  1.00  0.00    -0.004 C 
HETATM   12  C   LIG     1      24.268  19.849  21.308  1.00  0.00     0.006 C 
HETATM   13  C   LIG     1      25.220  18.673  21.653  1.00  0.00     0.013 C 
HETATM   14  C   LIG     1      25.807  18.940  23.034  1.00  0.00     0.079 C 
HETATM   15  C   LIG     1      24.896  19.946  23.623  1.00  0.00     0.135 C 
HETATM   16  O   LIG     1      24.992  20.314  24.785  1.00  0.00    -0.297 OA
HETATM   17  C   LIG     1      23.851  20.457  22.681  1.00  0.00     0.021 C 
HETATM   18  C   LIG     1      22.477  19.909  23.121  1.00  0.00     0.024 C 
HETATM   19  C   LIG     1      23.811  22.000  22.679  1.00  0.00     0.018 C 
HETATM   20  C   LIG     1      25.106  22.654  22.174  1.00  0.00     0.007 C 
ENDROOT
BRANCH   8  21
HETATM   21  O   LIG     1      28.361  25.274  18.169  1.00  0.00    -0.396 OA
HETATM   22  H   LIG     1      28.287  24.517  17.531  1.00  0.00     0.210 HD
ENDBRANCH   8  21
TORSDOF 1
ENDMDL
MODEL 11
REMARK VINA RESULT:      -4.7     14.618     16.245
REMARK  1 active torsions:
REMARK  status: ('A' for Active; 'I' for Inactive)
REMARK    1  A    between atoms: C_8  and  O_9 
ROOT
HETATM    1  C   LIG     1      29.463  24.317  20.111  1.00  0.00     0.016 C 
HETATM    2  C   LIG     1      28.286  24.714  19.165  1.00  0.00    -0.036 C 
HETATM    3  C   LIG     1      28.758  24.729  17.667  1.00  0.00    -0.004 C 
HETATM    4  C   LIG     1      29.179  23.338  17.153  1.00  0.00     0.006 C 
HETATM    5  C   LIG     1      28.047  22.317  17.323  1.00  0.00     0.006 C 
HETATM    6  C   LIG     1      27.826  26.158  19.612  1.00  0.00     0.012 C 
HETATM    7  C   LIG     1      28.112  27.261  18.576  1.00  0.00     0.032 C 
HETATM    8  C   LIG     1      29.544  27.169  18.017  1.00  0.00     0.118 C 
HETATM    9  C   LIG     1      29.864  25.777  17.414  1.00  0.00     0.037 C 
HETATM   10  C   LIG     1      27.119  23.657  19.319  1.00  0.00    -0.002 C 
HETATM   11  C   LIG     1      27.541  22.255  18.784  1.00  0.00    -0.004 C 
HETATM   12  C   LIG     1      26.433  21.169  18.987  1.00  0.00     0.006 C 
HETATM   13  C   LIG     1      26.481  20.564  20.416  1.00  0.00     0.013 C 
HETATM   14  C   LIG     1      25.361  21.201  21.228  1.00  0.00     0.079 C 
HETATM   15  C   LIG     1      24.453  21.769  20.206  1.00  0.00     0.135 C 
HETATM   16  O   LIG     1      23.372  22.261  20.493  1.00  0.00    -0.297 OA
HETATM   17  C   LIG     1      24.971  21.676  18.805  1.00  0.00     0.021 C 
HETATM   18  C   LIG     1      24.130  20.637  18.034  1.00  0.00     0.024 C 
HETATM   19  C   LIG     1      24.882  23.040  18.089  1.00  0.00     0.018 C 
HETATM   20  C   LIG     1      25.754  24.134  18.725  1.00  0.00     0.007 C 
ENDROOT
BRANCH   8  21
HETATM   21  O   LIG     1      30.474  27.471  19.027  1.00  0.00    -0.396 OA
HETATM   22  H   LIG     1      30.033  27.275  19.894  1.00  0.00     0.210 HD
ENDBRANCH   8  21
TORSDOF 1
ENDMDL
MODEL 12
REMARK VINA RESULT:      -4.6      1.583      6.205
REMARK  1 active torsions:
REMARK  status: ('A' for Active; 'I' for Inactive)
REMARK    1  A    between atoms: C_8  and  O_9 
ROOT
HETATM    1  C   LIG     1      28.751  29.927  33.353  1.00  0.00     0.016 C 
HETATM    2  C   LIG     1      28.854  28.406  33.690  1.00  0.00    -0.036 C 
HETATM    3  C   LIG     1      27.678  27.964  34.633  1.00  0.00    -0.004 C 
HETATM    4  C   LIG     1      26.292  28.093  33.968  1.00  0.00     0.006 C 
HETATM    5  C   LIG     1      26.228  27.295  32.660  1.00  0.00     0.006 C 
HETATM    6  C   LIG     1      30.244  28.205  34.414  1.00  0.00     0.012 C 
HETATM    7  C   LIG     1      30.133  27.816  35.900  1.00  0.00     0.032 C 
HETATM    8  C   LIG     1      29.119  28.697  36.652  1.00  0.00     0.118 C 
HETATM    9  C   LIG     1      27.715  28.693  35.994  1.00  0.00     0.037 C 
HETATM   10  C   LIG     1      28.770  27.572  32.348  1.00  0.00    -0.002 C 
HETATM   11  C   LIG     1      27.364  27.690  31.687  1.00  0.00    -0.004 C 
HETATM   12  C   LIG     1      27.271  26.934  30.320  1.00  0.00     0.006 C 
HETATM   13  C   LIG     1      27.818  27.796  29.152  1.00  0.00     0.013 C 
HETATM   14  C   LIG     1      29.214  27.288  28.814  1.00  0.00     0.079 C 
HETATM   15  C   LIG     1      29.264  25.941  29.424  1.00  0.00     0.135 C 
HETATM   16  O   LIG     1      30.205  25.180  29.253  1.00  0.00    -0.297 OA
HETATM   17  C   LIG     1      28.065  25.595  30.251  1.00  0.00     0.021 C 
HETATM   18  C   LIG     1      27.247  24.517  29.511  1.00  0.00     0.024 C 
HETATM   19  C   LIG     1      28.483  25.060  31.637  1.00  0.00     0.018 C 
HETATM   20  C   LIG     1      29.234  26.087  32.499  1.00  0.00     0.007 C 
ENDROOT
BRANCH   8  21
HETATM   21  O   LIG     1      29.597  30.017  36.733  1.00  0.00    -0.396 OA
HETATM   22  H   LIG     1      29.360  30.464  35.879  1.00  0.00     0.210 HD
ENDBRANCH   8  21
TORSDOF 1
ENDMDL
MODEL 13
REMARK VINA RESULT:      -4.5     10.310     13.743
REMARK  1 active torsions:
REMARK  status: ('A' for Active; 'I' for Inactive)
REMARK    1  A    between atoms: C_8  and  O_9 
ROOT
HETATM    1  C   LIG     1      25.352  23.777  20.564  1.00  0.00     0.016 C 
HETATM    2  C   LIG     1      24.753  22.437  21.095  1.00  0.00    -0.036 C 
HETATM    3  C   LIG     1      25.445  21.207  20.405  1.00  0.00    -0.004 C 
HETATM    4  C   LIG     1      26.945  21.091  20.744  1.00  0.00     0.006 C 
HETATM    5  C   LIG     1      27.168  21.021  22.260  1.00  0.00     0.006 C 
HETATM    6  C   LIG     1      23.212  22.469  20.745  1.00  0.00     0.012 C 
HETATM    7  C   LIG     1      22.783  21.435  19.688  1.00  0.00     0.032 C 
HETATM    8  C   LIG     1      23.734  21.420  18.477  1.00  0.00     0.118 C 
HETATM    9  C   LIG     1      25.214  21.188  18.879  1.00  0.00     0.037 C 
HETATM   10  C   LIG     1      24.994  22.346  22.656  1.00  0.00    -0.002 C 
HETATM   11  C   LIG     1      26.509  22.212  22.996  1.00  0.00    -0.004 C 
HETATM   12  C   LIG     1      26.787  22.191  24.536  1.00  0.00     0.006 C 
HETATM   13  C   LIG     1      26.850  23.626  25.124  1.00  0.00     0.013 C 
HETATM   14  C   LIG     1      25.528  23.898  25.830  1.00  0.00     0.079 C 
HETATM   15  C   LIG     1      24.946  22.552  26.035  1.00  0.00     0.135 C 
HETATM   16  O   LIG     1      23.927  22.372  26.684  1.00  0.00    -0.297 OA
HETATM   17  C   LIG     1      25.718  21.444  25.388  1.00  0.00     0.021 C 
HETATM   18  C   LIG     1      26.396  20.605  26.491  1.00  0.00     0.024 C 
HETATM   19  C   LIG     1      24.792  20.538  24.550  1.00  0.00     0.018 C 
HETATM   20  C   LIG     1      24.127  21.255  23.365  1.00  0.00     0.007 C 
ENDROOT
BRANCH   8  21
HETATM   21  O   LIG     1      23.623  22.626  17.764  1.00  0.00    -0.396 OA
HETATM   22  H   LIG     1      24.286  22.589  17.026  1.00  0.00     0.210 HD
ENDBRANCH   8  21
TORSDOF 1
ENDMDL
MODEL 14
REMARK VINA RESULT:      -4.5     13.628     15.475
REMARK  1 active torsions:
REMARK  status: ('A' for Active; 'I' for Inactive)
REMARK    1  A    between atoms: C_8  and  O_9 
ROOT
HETATM    1  C   LIG     1      26.417  25.057  18.712  1.00  0.00     0.016 C 
HETATM    2  C   LIG     1      26.998  23.642  19.024  1.00  0.00    -0.036 C 
HETATM    3  C   LIG     1      28.319  23.757  19.866  1.00  0.00    -0.004 C 
HETATM    4  C   LIG     1      28.092  24.369  21.263  1.00  0.00     0.006 C 
HETATM    5  C   LIG     1      27.047  23.574  22.055  1.00  0.00     0.006 C 
HETATM    6  C   LIG     1      27.293  22.965  17.627  1.00  0.00     0.012 C 
HETATM    7  C   LIG     1      28.788  22.749  17.332  1.00  0.00     0.032 C 
HETATM    8  C   LIG     1      29.625  24.004  17.647  1.00  0.00     0.118 C 
HETATM    9  C   LIG     1      29.435  24.502  19.102  1.00  0.00     0.037 C 
HETATM   10  C   LIG     1      25.934  22.819  19.857  1.00  0.00    -0.002 C 
HETATM   11  C   LIG     1      25.719  23.430  21.276  1.00  0.00    -0.004 C 
HETATM   12  C   LIG     1      24.620  22.680  22.099  1.00  0.00     0.006 C 
HETATM   13  C   LIG     1      23.196  23.182  21.740  1.00  0.00     0.013 C 
HETATM   14  C   LIG     1      22.558  22.150  20.818  1.00  0.00     0.079 C 
HETATM   15  C   LIG     1      23.375  20.933  21.021  1.00  0.00     0.135 C 
HETATM   16  O   LIG     1      23.080  19.857  20.523  1.00  0.00    -0.297 OA
HETATM   17  C   LIG     1      24.577  21.137  21.890  1.00  0.00     0.021 C 
HETATM   18  C   LIG     1      24.344  20.416  23.234  1.00  0.00     0.024 C 
HETATM   19  C   LIG     1      25.849  20.575  21.220  1.00  0.00     0.018 C 
HETATM   20  C   LIG     1      26.225  21.284  19.910  1.00  0.00     0.007 C 
ENDROOT
BRANCH   8  21
HETATM   21  O   LIG     1      29.298  25.036  16.749  1.00  0.00    -0.396 OA
HETATM   22  H   LIG     1      28.514  24.725  16.224  1.00  0.00     0.210 HD
ENDBRANCH   8  21
TORSDOF 1
ENDMDL
MODEL 15
REMARK VINA RESULT:      -4.4     10.988     12.870
REMARK  1 active torsions:
REMARK  status: ('A' for Active; 'I' for Inactive)
REMARK    1  A    between atoms: C_8  and  O_9 
ROOT
HETATM    1  C   LIG     1      26.575  21.088  21.030  1.00  0.00     0.016 C 
HETATM    2  C   LIG     1      26.287  22.376  21.865  1.00  0.00    -0.036 C 
HETATM    3  C   LIG     1      25.132  23.215  21.210  1.00  0.00    -0.004 C 
HETATM    4  C   LIG     1      23.778  22.477  21.208  1.00  0.00     0.006 C 
HETATM    5  C   LIG     1      23.369  22.061  22.626  1.00  0.00     0.006 C 
HETATM    6  C   LIG     1      27.631  23.207  21.877  1.00  0.00     0.012 C 
HETATM    7  C   LIG     1      27.561  24.534  21.100  1.00  0.00     0.032 C 
HETATM    8  C   LIG     1      26.907  24.358  19.716  1.00  0.00     0.118 C 
HETATM    9  C   LIG     1      25.500  23.712  19.795  1.00  0.00     0.037 C 
HETATM   10  C   LIG     1      25.847  21.959  23.326  1.00  0.00    -0.002 C 
HETATM   11  C   LIG     1      24.470  21.227  23.323  1.00  0.00    -0.004 C 
HETATM   12  C   LIG     1      24.040  20.738  24.746  1.00  0.00     0.006 C 
HETATM   13  C   LIG     1      24.689  19.373  25.101  1.00  0.00     0.013 C 
HETATM   14  C   LIG     1      25.851  19.643  26.048  1.00  0.00     0.079 C 
HETATM   15  C   LIG     1      25.585  21.005  26.563  1.00  0.00     0.135 C 
HETATM   16  O   LIG     1      26.259  21.512  27.448  1.00  0.00    -0.297 OA
HETATM   17  C   LIG     1      24.424  21.692  25.915  1.00  0.00     0.021 C 
HETATM   18  C   LIG     1      23.272  21.786  26.937  1.00  0.00     0.024 C 
HETATM   19  C   LIG     1      24.810  23.111  25.446  1.00  0.00     0.018 C 
HETATM   20  C   LIG     1      25.895  23.132  24.358  1.00  0.00     0.007 C 
ENDROOT
BRANCH   8  21
HETATM   21  O   LIG     1      27.737  23.581  18.889  1.00  0.00    -0.396 OA
HETATM   22  H   LIG     1      27.298  23.535  18.000  1.00  0.00     0.210 HD
ENDBRANCH   8  21
TORSDOF 1
ENDMDL
MODEL 16
REMARK VINA RESULT:      -4.3     11.560     14.534
REMARK  1 active torsions:
REMARK  status: ('A' for Active; 'I' for Inactive)
REMARK    1  A    between atoms: C_8  and  O_9 
ROOT
HETATM    1  C   LIG     1      28.028  21.128  23.297  1.00  0.00     0.016 C 
HETATM    2  C   LIG     1      26.644  20.479  23.619  1.00  0.00    -0.036 C 
HETATM    3  C   LIG     1      26.185  20.844  25.076  1.00  0.00    -0.004 C 
HETATM    4  C   LIG     1      25.929  22.352  25.267  1.00  0.00     0.006 C 
HETATM    5  C   LIG     1      24.897  22.873  24.259  1.00  0.00     0.006 C 
HETATM    6  C   LIG     1      26.843  18.917  23.480  1.00  0.00     0.012 C 
HETATM    7  C   LIG     1      26.732  18.145  24.807  1.00  0.00     0.032 C 
HETATM    8  C   LIG     1      27.542  18.815  25.933  1.00  0.00     0.118 C 
HETATM    9  C   LIG     1      27.156  20.301  26.147  1.00  0.00     0.037 C 
HETATM   10  C   LIG     1      25.568  21.023  22.595  1.00  0.00    -0.002 C 
HETATM   11  C   LIG     1      25.297  22.544  22.802  1.00  0.00    -0.004 C 
HETATM   12  C   LIG     1      24.289  23.129  21.757  1.00  0.00     0.006 C 
HETATM   13  C   LIG     1      24.996  23.502  20.427  1.00  0.00     0.013 C 
HETATM   14  C   LIG     1      24.696  22.403  19.417  1.00  0.00     0.079 C 
HETATM   15  C   LIG     1      23.523  21.703  19.985  1.00  0.00     0.135 C 
HETATM   16  O   LIG     1      22.928  20.825  19.377  1.00  0.00    -0.297 OA
HETATM   17  C   LIG     1      23.130  22.170  21.352  1.00  0.00     0.021 C 
HETATM   18  C   LIG     1      21.800  22.943  21.247  1.00  0.00     0.024 C 
HETATM   19  C   LIG     1      22.956  20.978  22.317  1.00  0.00     0.018 C 
HETATM   20  C   LIG     1      24.249  20.184  22.563  1.00  0.00     0.007 C 
ENDROOT
BRANCH   8  21
HETATM   21  O   LIG     1      28.917  18.721  25.656  1.00  0.00    -0.396 OA
HETATM   22  H   LIG     1      29.198  19.596  25.281  1.00  0.00     0.210 HD
ENDBRANCH   8  21
TORSDOF 1
ENDMDL
MODEL 17
REMARK VINA RESULT:      -4.3      8.802     11.997
REMARK  1 active torsions:
REMARK  status: ('A' for Active; 'I' for Inactive)
REMARK    1  A    between atoms: C_8  and  O_9 
ROOT
HETATM    1  C   LIG     1      25.685  20.223  22.494  1.00  0.00     0.016 C 
HETATM    2  C   LIG     1      25.192  21.629  22.961  1.00  0.00    -0.036 C 
HETATM    3  C   LIG     1      23.653  21.602  23.274  1.00  0.00    -0.004 C 
HETATM    4  C   LIG     1      23.294  20.683  24.458  1.00  0.00     0.006 C 
HETATM    5  C   LIG     1      24.067  21.078  25.723  1.00  0.00     0.006 C 
HETATM    6  C   LIG     1      25.494  22.624  21.771  1.00  0.00     0.012 C 
HETATM    7  C   LIG     1      24.238  23.182  21.079  1.00  0.00     0.032 C 
HETATM    8  C   LIG     1      23.211  22.077  20.770  1.00  0.00     0.118 C 
HETATM    9  C   LIG     1      22.809  21.262  22.026  1.00  0.00     0.037 C 
HETATM   10  C   LIG     1      25.971  22.040  24.276  1.00  0.00    -0.002 C 
HETATM   11  C   LIG     1      25.594  21.119  25.477  1.00  0.00    -0.004 C 
HETATM   12  C   LIG     1      26.401  21.454  26.774  1.00  0.00     0.006 C 
HETATM   13  C   LIG     1      27.794  20.771  26.774  1.00  0.00     0.013 C 
HETATM   14  C   LIG     1      28.830  21.827  26.408  1.00  0.00     0.079 C 
HETATM   15  C   LIG     1      28.134  23.110  26.649  1.00  0.00     0.135 C 
HETATM   16  O   LIG     1      28.705  24.188  26.571  1.00  0.00    -0.297 OA
HETATM   17  C   LIG     1      26.686  22.969  27.001  1.00  0.00     0.021 C 
HETATM   18  C   LIG     1      26.500  23.339  28.487  1.00  0.00     0.024 C 
HETATM   19  C   LIG     1      25.810  23.893  26.129  1.00  0.00     0.018 C 
HETATM   20  C   LIG     1      25.852  23.558  24.631  1.00  0.00     0.007 C 
ENDROOT
BRANCH   8  21
HETATM   21  O   LIG     1      23.721  21.209  19.788  1.00  0.00    -0.396 OA
HETATM   22  H   LIG     1      23.083  20.453  19.710  1.00  0.00     0.210 HD
ENDBRANCH   8  21
TORSDOF 1
ENDMDL
MODEL 18
REMARK VINA RESULT:      -4.2     11.468     14.746
REMARK  1 active torsions:
REMARK  status: ('A' for Active; 'I' for Inactive)
REMARK    1  A    between atoms: C_8  and  O_9 
ROOT
HETATM    1  C   LIG     1      25.677  19.199  20.024  1.00  0.00     0.016 C 
HETATM    2  C   LIG     1      24.742  20.410  20.337  1.00  0.00    -0.036 C 
HETATM    3  C   LIG     1      23.245  19.945  20.437  1.00  0.00    -0.004 C 
HETATM    4  C   LIG     1      22.992  18.980  21.613  1.00  0.00     0.006 C 
HETATM    5  C   LIG     1      23.425  19.603  22.946  1.00  0.00     0.006 C 
HETATM    6  C   LIG     1      24.923  21.430  19.143  1.00  0.00     0.012 C 
HETATM    7  C   LIG     1      23.676  21.590  18.255  1.00  0.00     0.032 C 
HETATM    8  C   LIG     1      23.062  20.230  17.873  1.00  0.00     0.118 C 
HETATM    9  C   LIG     1      22.727  19.354  19.108  1.00  0.00     0.037 C 
HETATM   10  C   LIG     1      25.170  21.049  21.719  1.00  0.00    -0.002 C 
HETATM   11  C   LIG     1      24.896  20.079  22.909  1.00  0.00    -0.004 C 
HETATM   12  C   LIG     1      25.375  20.654  24.283  1.00  0.00     0.006 C 
HETATM   13  C   LIG     1      26.888  20.403  24.513  1.00  0.00     0.013 C 
HETATM   14  C   LIG     1      27.624  21.707  24.232  1.00  0.00     0.079 C 
HETATM   15  C   LIG     1      26.566  22.738  24.299  1.00  0.00     0.135 C 
HETATM   16  O   LIG     1      26.813  23.934  24.238  1.00  0.00    -0.297 OA
HETATM   17  C   LIG     1      25.182  22.191  24.458  1.00  0.00     0.021 C 
HETATM   18  C   LIG     1      24.682  22.515  25.881  1.00  0.00     0.024 C 
HETATM   19  C   LIG     1      24.218  22.808  23.422  1.00  0.00     0.018 C 
HETATM   20  C   LIG     1      24.575  22.474  21.966  1.00  0.00     0.007 C 
ENDROOT
BRANCH   8  21
HETATM   21  O   LIG     1      23.936  19.531  17.022  1.00  0.00    -0.396 OA
HETATM   22  H   LIG     1      24.601  19.076  17.602  1.00  0.00     0.210 HD
ENDBRANCH   8  21
TORSDOF 1
ENDMDL
MODEL 19
REMARK VINA RESULT:      -4.1     10.999     13.724
REMARK  1 active torsions:
REMARK  status: ('A' for Active; 'I' for Inactive)
REMARK    1  A    between atoms: C_8  and  O_9 
ROOT
HETATM    1  C   LIG     1      25.644  22.814  22.283  1.00  0.00     0.016 C 
HETATM    2  C   LIG     1      24.518  21.733  22.244  1.00  0.00    -0.036 C 
HETATM    3  C   LIG     1      25.000  20.457  21.465  1.00  0.00    -0.004 C 
HETATM    4  C   LIG     1      26.171  19.733  22.159  1.00  0.00     0.006 C 
HETATM    5  C   LIG     1      25.811  19.349  23.599  1.00  0.00     0.006 C 
HETATM    6  C   LIG     1      23.289  22.398  21.505  1.00  0.00     0.012 C 
HETATM    7  C   LIG     1      22.969  21.781  20.132  1.00  0.00     0.032 C 
HETATM    8  C   LIG     1      24.234  21.597  19.273  1.00  0.00     0.118 C 
HETATM    9  C   LIG     1      25.329  20.765  19.988  1.00  0.00     0.037 C 
HETATM   10  C   LIG     1      24.151  21.316  23.725  1.00  0.00    -0.002 C 
HETATM   11  C   LIG     1      25.330  20.569  24.420  1.00  0.00    -0.004 C 
HETATM   12  C   LIG     1      25.024  20.206  25.911  1.00  0.00     0.006 C 
HETATM   13  C   LIG     1      25.309  21.399  26.860  1.00  0.00     0.013 C 
HETATM   14  C   LIG     1      23.972  22.035  27.221  1.00  0.00     0.079 C 
HETATM   15  C   LIG     1      22.976  20.994  26.884  1.00  0.00     0.135 C 
HETATM   16  O   LIG     1      21.790  21.113  27.153  1.00  0.00    -0.297 OA
HETATM   17  C   LIG     1      23.550  19.793  26.199  1.00  0.00     0.021 C 
HETATM   18  C   LIG     1      23.504  18.599  27.175  1.00  0.00     0.024 C 
HETATM   19  C   LIG     1      22.752  19.445  24.925  1.00  0.00     0.018 C 
HETATM   20  C   LIG     1      22.802  20.535  23.844  1.00  0.00     0.007 C 
ENDROOT
BRANCH   8  21
HETATM   21  O   LIG     1      24.755  22.852  18.912  1.00  0.00    -0.396 OA
HETATM   22  H   LIG     1      25.371  22.701  18.149  1.00  0.00     0.210 HD
ENDBRANCH   8  21
TORSDOF 1
ENDMDL
