REMARK  0 active torsions:
REMARK  status: ('A' for Active; 'I' for Inactive)
ROOT
HETATM    1  C   LIG     1      -1.469  -1.664   0.913  1.00  0.00     0.025 C 
HETATM    2  C   LIG     1      -1.356  -0.902  -0.428  1.00  0.00     0.000 C 
HETATM    3  C   LIG     1      -0.404  -1.673  -1.408  1.00  0.00     0.018 C 
HETATM    4  C   LIG     1       1.114  -1.614  -1.064  1.00  0.00     0.010 C 
HETATM    5  C   LIG     1       1.454  -0.413  -0.173  1.00  0.00     0.033 C 
HETATM    6  C   LIG     1       2.894   0.125  -0.185  1.00  0.00     0.088 C 
HETATM    7  C   LIG     1       3.804  -0.595   0.815  1.00  0.00     0.021 C 
HETATM    8  C   LIG     1      -2.751  -0.894  -1.030  1.00  0.00    -0.009 C 
HETATM    9  C   LIG     1      -3.624   0.069  -0.737  1.00  0.00     0.052 C 
HETATM   10  C   LIG     1      -3.179   1.263  -0.014  1.00  0.00     0.177 C 
HETATM   11  C   LIG     1      -1.727   1.546   0.089  1.00  0.00    -0.006 C 
HETATM   12  C   LIG     1      -1.284   2.966   0.344  1.00  0.00     0.052 C 
HETATM   13  C   LIG     1      -0.847   0.544  -0.184  1.00  0.00    -0.029 C 
HETATM   14  C   LIG     1       0.607   0.801  -0.539  1.00  0.00     0.167 C 
HETATM   15  O   LIG     1       1.282   1.868   0.104  1.00  0.00    -0.311 OA
HETATM   16  C   LIG     1       2.626   1.542   0.206  1.00  0.00     0.263 C 
HETATM   17  O   LIG     1       3.507   2.370   0.558  1.00  0.00    -0.265 OA
HETATM   18  O   LIG     1      -4.034   2.065   0.448  1.00  0.00    -0.288 OA
ENDROOT
TORSDOF 0
