MODEL 1
REMARK VINA RESULT:      -6.4      0.000      0.000
REMARK  0 active torsions:
REMARK  status: ('A' for Active; 'I' for Inactive)
ROOT
HETATM    1  C   LIG     1      17.720  37.148  23.607  1.00  0.00     0.025 C 
HETATM    2  C   LIG     1      17.034  37.886  22.434  1.00  0.00     0.000 C 
HETATM    3  C   LIG     1      15.482  37.933  22.660  1.00  0.00     0.018 C 
HETATM    4  C   LIG     1      14.728  36.584  22.460  1.00  0.00     0.010 C 
HETATM    5  C   LIG     1      15.523  35.607  21.585  1.00  0.00     0.033 C 
HETATM    6  C   LIG     1      14.758  34.504  20.836  1.00  0.00     0.088 C 
HETATM    7  C   LIG     1      14.558  33.242  21.682  1.00  0.00     0.021 C 
HETATM    8  C   LIG     1      17.561  39.311  22.465  1.00  0.00    -0.009 C 
HETATM    9  C   LIG     1      18.676  39.649  21.819  1.00  0.00     0.052 C 
HETATM   10  C   LIG     1      19.288  38.709  20.877  1.00  0.00     0.177 C 
HETATM   11  C   LIG     1      18.499  37.547  20.401  1.00  0.00    -0.006 C 
HETATM   12  C   LIG     1      18.885  36.899  19.093  1.00  0.00     0.052 C 
HETATM   13  C   LIG     1      17.378  37.195  21.088  1.00  0.00    -0.029 C 
HETATM   14  C   LIG     1      16.276  36.343  20.483  1.00  0.00     0.167 C 
HETATM   15  O   LIG     1      16.638  35.301  19.592  1.00  0.00    -0.311 OA
HETATM   16  C   LIG     1      15.701  34.285  19.699  1.00  0.00     0.263 C 
HETATM   17  O   LIG     1      15.649  33.314  18.898  1.00  0.00    -0.265 OA
HETATM   18  O   LIG     1      20.445  38.937  20.434  1.00  0.00    -0.288 OA
ENDROOT
TORSDOF 0
ENDMDL
MODEL 2
REMARK VINA RESULT:      -6.1      2.101      4.401
REMARK  0 active torsions:
REMARK  status: ('A' for Active; 'I' for Inactive)
ROOT
HETATM    1  C   LIG     1      16.541  39.224  23.039  1.00  0.00     0.025 C 
HETATM    2  C   LIG     1      17.853  38.407  23.092  1.00  0.00     0.000 C 
HETATM    3  C   LIG     1      19.071  39.316  22.702  1.00  0.00     0.018 C 
HETATM    4  C   LIG     1      19.180  39.692  21.195  1.00  0.00     0.010 C 
HETATM    5  C   LIG     1      18.418  38.706  20.301  1.00  0.00     0.033 C 
HETATM    6  C   LIG     1      18.843  38.570  18.829  1.00  0.00     0.088 C 
HETATM    7  C   LIG     1      18.153  39.589  17.917  1.00  0.00     0.021 C 
HETATM    8  C   LIG     1      18.026  37.977  24.539  1.00  0.00    -0.009 C 
HETATM    9  C   LIG     1      17.488  36.846  24.992  1.00  0.00     0.052 C 
HETATM   10  C   LIG     1      16.918  35.879  24.050  1.00  0.00     0.177 C 
HETATM   11  C   LIG     1      17.238  36.002  22.607  1.00  0.00    -0.006 C 
HETATM   12  C   LIG     1      17.114  34.778  21.733  1.00  0.00     0.052 C 
HETATM   13  C   LIG     1      17.759  37.175  22.153  1.00  0.00    -0.029 C 
HETATM   14  C   LIG     1      18.517  37.284  20.842  1.00  0.00     0.167 C 
HETATM   15  O   LIG     1      18.091  36.493  19.746  1.00  0.00    -0.311 OA
HETATM   16  C   LIG     1      18.383  37.172  18.573  1.00  0.00     0.263 C 
HETATM   17  O   LIG     1      18.296  36.641  17.434  1.00  0.00    -0.265 OA
HETATM   18  O   LIG     1      16.224  34.922  24.485  1.00  0.00    -0.288 OA
ENDROOT
TORSDOF 0
ENDMDL
MODEL 3
REMARK VINA RESULT:      -5.9      2.176      3.408
REMARK  0 active torsions:
REMARK  status: ('A' for Active; 'I' for Inactive)
ROOT
HETATM    1  C   LIG     1      16.418  38.849  22.253  1.00  0.00     0.025 C 
HETATM    2  C   LIG     1      17.651  37.919  22.329  1.00  0.00     0.000 C 
HETATM    3  C   LIG     1      18.349  37.834  20.927  1.00  0.00     0.018 C 
HETATM    4  C   LIG     1      17.595  37.008  19.843  1.00  0.00     0.010 C 
HETATM    5  C   LIG     1      16.609  36.011  20.465  1.00  0.00     0.033 C 
HETATM    6  C   LIG     1      16.203  34.774  19.648  1.00  0.00     0.088 C 
HETATM    7  C   LIG     1      15.011  35.039  18.723  1.00  0.00     0.021 C 
HETATM    8  C   LIG     1      18.617  38.574  23.301  1.00  0.00    -0.009 C 
HETATM    9  C   LIG     1      18.550  38.332  24.610  1.00  0.00     0.052 C 
HETATM   10  C   LIG     1      17.696  37.252  25.110  1.00  0.00     0.177 C 
HETATM   11  C   LIG     1      17.185  36.236  24.159  1.00  0.00    -0.006 C 
HETATM   12  C   LIG     1      16.774  34.886  24.695  1.00  0.00     0.052 C 
HETATM   13  C   LIG     1      17.232  36.509  22.826  1.00  0.00    -0.029 C 
HETATM   14  C   LIG     1      17.160  35.428  21.762  1.00  0.00     0.167 C 
HETATM   15  O   LIG     1      16.323  34.308  21.991  1.00  0.00    -0.311 OA
HETATM   16  C   LIG     1      15.860  33.846  20.768  1.00  0.00     0.263 C 
HETATM   17  O   LIG     1      15.252  32.751  20.635  1.00  0.00    -0.265 OA
HETATM   18  O   LIG     1      17.467  37.162  26.346  1.00  0.00    -0.288 OA
ENDROOT
TORSDOF 0
ENDMDL
MODEL 4
REMARK VINA RESULT:      -5.4      2.375      4.031
REMARK  0 active torsions:
REMARK  status: ('A' for Active; 'I' for Inactive)
ROOT
HETATM    1  C   LIG     1      19.887  38.909  22.244  1.00  0.00     0.025 C 
HETATM    2  C   LIG     1      18.358  38.828  22.023  1.00  0.00     0.000 C 
HETATM    3  C   LIG     1      17.610  39.688  23.101  1.00  0.00     0.018 C 
HETATM    4  C   LIG     1      17.593  39.100  24.544  1.00  0.00     0.010 C 
HETATM    5  C   LIG     1      17.831  37.585  24.548  1.00  0.00     0.033 C 
HETATM    6  C   LIG     1      17.316  36.765  25.743  1.00  0.00     0.088 C 
HETATM    7  C   LIG     1      18.321  36.705  26.897  1.00  0.00     0.021 C 
HETATM    8  C   LIG     1      18.094  39.443  20.659  1.00  0.00    -0.009 C 
HETATM    9  C   LIG     1      18.135  38.706  19.550  1.00  0.00     0.052 C 
HETATM   10  C   LIG     1      18.205  37.246  19.645  1.00  0.00     0.177 C 
HETATM   11  C   LIG     1      17.895  36.590  20.938  1.00  0.00    -0.006 C 
HETATM   12  C   LIG     1      17.456  35.146  20.930  1.00  0.00     0.052 C 
HETATM   13  C   LIG     1      17.886  37.350  22.068  1.00  0.00    -0.029 C 
HETATM   14  C   LIG     1      17.177  36.922  23.341  1.00  0.00     0.167 C 
HETATM   15  O   LIG     1      17.182  35.548  23.689  1.00  0.00    -0.311 OA
HETATM   16  C   LIG     1      17.140  35.443  25.071  1.00  0.00     0.263 C 
HETATM   17  O   LIG     1      16.942  34.352  25.669  1.00  0.00    -0.265 OA
HETATM   18  O   LIG     1      18.459  36.567  18.614  1.00  0.00    -0.288 OA
ENDROOT
TORSDOF 0
ENDMDL
MODEL 5
REMARK VINA RESULT:      -5.3     15.210     16.813
REMARK  0 active torsions:
REMARK  status: ('A' for Active; 'I' for Inactive)
ROOT
HETATM    1  C   LIG     1      22.219  22.830  21.255  1.00  0.00     0.025 C 
HETATM    2  C   LIG     1      23.342  21.784  21.064  1.00  0.00     0.000 C 
HETATM    3  C   LIG     1      23.189  20.630  22.116  1.00  0.00     0.018 C 
HETATM    4  C   LIG     1      23.561  20.997  23.583  1.00  0.00     0.010 C 
HETATM    5  C   LIG     1      24.492  22.214  23.652  1.00  0.00     0.033 C 
HETATM    6  C   LIG     1      25.386  22.385  24.890  1.00  0.00     0.088 C 
HETATM    7  C   LIG     1      24.684  23.134  26.028  1.00  0.00     0.021 C 
HETATM    8  C   LIG     1      23.141  21.193  19.679  1.00  0.00    -0.009 C 
HETATM    9  C   LIG     1      23.694  21.751  18.603  1.00  0.00     0.052 C 
HETATM   10  C   LIG     1      24.697  22.807  18.762  1.00  0.00     0.177 C 
HETATM   11  C   LIG     1      25.327  23.011  20.089  1.00  0.00    -0.006 C 
HETATM   12  C   LIG     1      26.674  23.690  20.153  1.00  0.00     0.052 C 
HETATM   13  C   LIG     1      24.734  22.461  21.184  1.00  0.00    -0.029 C 
HETATM   14  C   LIG     1      25.476  22.220  22.487  1.00  0.00     0.167 C 
HETATM   15  O   LIG     1      26.450  23.165  22.895  1.00  0.00    -0.311 OA
HETATM   16  C   LIG     1      26.493  23.183  24.281  1.00  0.00     0.263 C 
HETATM   17  O   LIG     1      27.391  23.781  24.931  1.00  0.00    -0.265 OA
HETATM   18  O   LIG     1      25.059  23.478  17.759  1.00  0.00    -0.288 OA
ENDROOT
TORSDOF 0
ENDMDL
MODEL 6
REMARK VINA RESULT:      -5.1     15.016     16.292
REMARK  0 active torsions:
REMARK  status: ('A' for Active; 'I' for Inactive)
ROOT
HETATM    1  C   LIG     1      26.170  25.784  19.005  1.00  0.00     0.025 C 
HETATM    2  C   LIG     1      26.986  24.488  19.216  1.00  0.00     0.000 C 
HETATM    3  C   LIG     1      26.322  23.299  18.437  1.00  0.00     0.018 C 
HETATM    4  C   LIG     1      24.995  22.751  19.041  1.00  0.00     0.010 C 
HETATM    5  C   LIG     1      24.858  23.093  20.530  1.00  0.00     0.033 C 
HETATM    6  C   LIG     1      23.953  22.211  21.405  1.00  0.00     0.088 C 
HETATM    7  C   LIG     1      22.491  22.667  21.392  1.00  0.00     0.021 C 
HETATM    8  C   LIG     1      28.356  24.745  18.610  1.00  0.00    -0.009 C 
HETATM    9  C   LIG     1      29.336  25.292  19.327  1.00  0.00     0.052 C 
HETATM   10  C   LIG     1      29.186  25.440  20.776  1.00  0.00     0.177 C 
HETATM   11  C   LIG     1      28.112  24.691  21.472  1.00  0.00    -0.006 C 
HETATM   12  C   LIG     1      28.262  24.416  22.948  1.00  0.00     0.052 C 
HETATM   13  C   LIG     1      27.100  24.163  20.730  1.00  0.00    -0.029 C 
HETATM   14  C   LIG     1      26.211  23.040  21.233  1.00  0.00     0.167 C 
HETATM   15  O   LIG     1      25.858  23.020  22.605  1.00  0.00    -0.311 OA
HETATM   16  C   LIG     1      24.607  22.433  22.730  1.00  0.00     0.263 C 
HETATM   17  O   LIG     1      24.114  22.103  23.841  1.00  0.00    -0.265 OA
HETATM   18  O   LIG     1      30.010  26.145  21.418  1.00  0.00    -0.288 OA
ENDROOT
TORSDOF 0
ENDMDL
MODEL 7
REMARK VINA RESULT:      -4.8     15.735     17.300
REMARK  0 active torsions:
REMARK  status: ('A' for Active; 'I' for Inactive)
ROOT
HETATM    1  C   LIG     1      23.186  20.783  22.960  1.00  0.00     0.025 C 
HETATM    2  C   LIG     1      23.908  22.035  22.410  1.00  0.00     0.000 C 
HETATM    3  C   LIG     1      22.894  22.943  21.629  1.00  0.00     0.018 C 
HETATM    4  C   LIG     1      22.432  22.404  20.243  1.00  0.00     0.010 C 
HETATM    5  C   LIG     1      23.422  21.386  19.663  1.00  0.00     0.033 C 
HETATM    6  C   LIG     1      23.448  21.173  18.141  1.00  0.00     0.088 C 
HETATM    7  C   LIG     1      22.434  20.124  17.673  1.00  0.00     0.021 C 
HETATM    8  C   LIG     1      24.400  22.808  23.622  1.00  0.00    -0.009 C 
HETATM    9  C   LIG     1      25.589  22.554  24.166  1.00  0.00     0.052 C 
HETATM   10  C   LIG     1      26.543  21.690  23.466  1.00  0.00     0.177 C 
HETATM   11  C   LIG     1      26.322  21.381  22.033  1.00  0.00    -0.006 C 
HETATM   12  C   LIG     1      27.503  20.961  21.193  1.00  0.00     0.052 C 
HETATM   13  C   LIG     1      25.092  21.616  21.498  1.00  0.00    -0.029 C 
HETATM   14  C   LIG     1      24.860  21.762  20.005  1.00  0.00     0.167 C 
HETATM   15  O   LIG     1      25.619  20.957  19.120  1.00  0.00    -0.311 OA
HETATM   16  C   LIG     1      24.860  20.710  17.986  1.00  0.00     0.263 C 
HETATM   17  O   LIG     1      25.335  20.185  16.945  1.00  0.00    -0.265 OA
HETATM   18  O   LIG     1      27.570  21.279  24.071  1.00  0.00    -0.288 OA
ENDROOT
TORSDOF 0
ENDMDL
MODEL 8
REMARK VINA RESULT:      -4.7     15.863     17.066
REMARK  0 active torsions:
REMARK  status: ('A' for Active; 'I' for Inactive)
ROOT
HETATM    1  C   LIG     1      26.385  21.765  18.146  1.00  0.00     0.025 C 
HETATM    2  C   LIG     1      25.430  22.880  18.633  1.00  0.00     0.000 C 
HETATM    3  C   LIG     1      25.736  24.221  17.879  1.00  0.00     0.018 C 
HETATM    4  C   LIG     1      27.051  24.946  18.295  1.00  0.00     0.010 C 
HETATM    5  C   LIG     1      27.523  24.523  19.692  1.00  0.00     0.033 C 
HETATM    6  C   LIG     1      28.428  25.481  20.482  1.00  0.00     0.088 C 
HETATM    7  C   LIG     1      29.914  25.291  20.163  1.00  0.00     0.021 C 
HETATM    8  C   LIG     1      24.028  22.433  18.254  1.00  0.00    -0.009 C 
HETATM    9  C   LIG     1      23.302  21.670  19.071  1.00  0.00     0.052 C 
HETATM   10  C   LIG     1      23.749  21.443  20.448  1.00  0.00     0.177 C 
HETATM   11  C   LIG     1      24.804  22.315  21.018  1.00  0.00    -0.006 C 
HETATM   12  C   LIG     1      24.898  22.448  22.518  1.00  0.00     0.052 C 
HETATM   13  C   LIG     1      25.558  23.065  20.169  1.00  0.00    -0.029 C 
HETATM   14  C   LIG     1      26.339  24.286  20.624  1.00  0.00     0.167 C 
HETATM   15  O   LIG     1      26.941  24.265  21.906  1.00  0.00    -0.311 OA
HETATM   16  C   LIG     1      28.084  25.050  21.870  1.00  0.00     0.263 C 
HETATM   17  O   LIG     1      28.723  25.377  22.905  1.00  0.00    -0.265 OA
HETATM   18  O   LIG     1      23.184  20.560  21.147  1.00  0.00    -0.288 OA
ENDROOT
TORSDOF 0
ENDMDL
MODEL 9
REMARK VINA RESULT:      -4.6     15.572     16.796
REMARK  0 active torsions:
REMARK  status: ('A' for Active; 'I' for Inactive)
ROOT
HETATM    1  C   LIG     1      28.792  25.672  20.311  1.00  0.00     0.025 C 
HETATM    2  C   LIG     1      27.833  25.855  19.111  1.00  0.00     0.000 C 
HETATM    3  C   LIG     1      26.344  25.705  19.582  1.00  0.00     0.018 C 
HETATM    4  C   LIG     1      25.887  24.257  19.931  1.00  0.00     0.010 C 
HETATM    5  C   LIG     1      26.773  23.199  19.263  1.00  0.00     0.033 C 
HETATM    6  C   LIG     1      26.189  21.797  19.025  1.00  0.00     0.088 C 
HETATM    7  C   LIG     1      26.367  20.868  20.230  1.00  0.00     0.021 C 
HETATM    8  C   LIG     1      28.035  27.279  18.621  1.00  0.00    -0.009 C 
HETATM    9  C   LIG     1      28.969  27.572  17.717  1.00  0.00     0.052 C 
HETATM   10  C   LIG     1      29.663  26.495  17.007  1.00  0.00     0.177 C 
HETATM   11  C   LIG     1      29.099  25.124  17.047  1.00  0.00    -0.006 C 
HETATM   12  C   LIG     1      29.468  24.159  15.946  1.00  0.00     0.052 C 
HETATM   13  C   LIG     1      28.167  24.829  17.994  1.00  0.00    -0.029 C 
HETATM   14  C   LIG     1      27.218  23.650  17.876  1.00  0.00     0.167 C 
HETATM   15  O   LIG     1      27.697  22.453  17.288  1.00  0.00    -0.311 OA
HETATM   16  C   LIG     1      27.024  21.382  17.857  1.00  0.00     0.263 C 
HETATM   17  O   LIG     1      27.096  20.209  17.405  1.00  0.00    -0.265 OA
HETATM   18  O   LIG     1      30.684  26.760  16.319  1.00  0.00    -0.288 OA
ENDROOT
TORSDOF 0
ENDMDL
MODEL 10
REMARK VINA RESULT:      -4.6      5.914      8.336
REMARK  0 active torsions:
REMARK  status: ('A' for Active; 'I' for Inactive)
ROOT
HETATM    1  C   LIG     1      14.746  31.370  17.838  1.00  0.00     0.025 C 
HETATM    2  C   LIG     1      14.194  32.097  16.589  1.00  0.00     0.000 C 
HETATM    3  C   LIG     1      12.810  31.484  16.176  1.00  0.00     0.018 C 
HETATM    4  C   LIG     1      12.863  30.070  15.525  1.00  0.00     0.010 C 
HETATM    5  C   LIG     1      14.243  29.764  14.930  1.00  0.00     0.033 C 
HETATM    6  C   LIG     1      14.342  28.720  13.806  1.00  0.00     0.088 C 
HETATM    7  C   LIG     1      14.497  27.291  14.336  1.00  0.00     0.021 C 
HETATM    8  C   LIG     1      13.968  33.541  17.005  1.00  0.00    -0.009 C 
HETATM    9  C   LIG     1      14.940  34.447  16.909  1.00  0.00     0.052 C 
HETATM   10  C   LIG     1      16.171  34.124  16.184  1.00  0.00     0.177 C 
HETATM   11  C   LIG     1      16.194  32.940  15.291  1.00  0.00    -0.006 C 
HETATM   12  C   LIG     1      17.214  32.893  14.180  1.00  0.00     0.052 C 
HETATM   13  C   LIG     1      15.211  32.007  15.420  1.00  0.00    -0.029 C 
HETATM   14  C   LIG     1      14.871  31.014  14.323  1.00  0.00     0.167 C 
HETATM   15  O   LIG     1      15.924  30.493  13.532  1.00  0.00    -0.311 OA
HETATM   16  C   LIG     1      15.578  29.212  13.126  1.00  0.00     0.263 C 
HETATM   17  O   LIG     1      16.227  28.570  12.258  1.00  0.00    -0.265 OA
HETATM   18  O   LIG     1      17.166  34.891  16.275  1.00  0.00    -0.288 OA
ENDROOT
TORSDOF 0
ENDMDL
MODEL 11
REMARK VINA RESULT:      -4.6     15.597     16.343
REMARK  0 active torsions:
REMARK  status: ('A' for Active; 'I' for Inactive)
ROOT
HETATM    1  C   LIG     1      27.873  21.986  22.119  1.00  0.00     0.025 C 
HETATM    2  C   LIG     1      26.866  23.149  22.281  1.00  0.00     0.000 C 
HETATM    3  C   LIG     1      25.748  22.756  23.308  1.00  0.00     0.018 C 
HETATM    4  C   LIG     1      24.705  21.712  22.807  1.00  0.00     0.010 C 
HETATM    5  C   LIG     1      24.638  21.658  21.276  1.00  0.00     0.033 C 
HETATM    6  C   LIG     1      23.349  21.141  20.616  1.00  0.00     0.088 C 
HETATM    7  C   LIG     1      23.338  19.618  20.451  1.00  0.00     0.021 C 
HETATM    8  C   LIG     1      27.653  24.314  22.859  1.00  0.00    -0.009 C 
HETATM    9  C   LIG     1      28.286  25.179  22.068  1.00  0.00     0.052 C 
HETATM   10  C   LIG     1      28.043  25.162  20.624  1.00  0.00     0.177 C 
HETATM   11  C   LIG     1      26.869  24.426  20.097  1.00  0.00    -0.006 C 
HETATM   12  C   LIG     1      26.318  24.815  18.747  1.00  0.00     0.052 C 
HETATM   13  C   LIG     1      26.250  23.522  20.906  1.00  0.00    -0.029 C 
HETATM   14  C   LIG     1      24.829  23.044  20.667  1.00  0.00     0.167 C 
HETATM   15  O   LIG     1      24.388  22.871  19.332  1.00  0.00    -0.311 OA
HETATM   16  C   LIG     1      23.443  21.856  19.307  1.00  0.00     0.263 C 
HETATM   17  O   LIG     1      22.734  21.604  18.298  1.00  0.00    -0.265 OA
HETATM   18  O   LIG     1      28.793  25.826  19.859  1.00  0.00    -0.288 OA
ENDROOT
TORSDOF 0
ENDMDL
MODEL 12
REMARK VINA RESULT:      -4.5     16.960     18.951
REMARK  0 active torsions:
REMARK  status: ('A' for Active; 'I' for Inactive)
ROOT
HETATM    1  C   LIG     1      26.228  30.090  35.108  1.00  0.00     0.025 C 
HETATM    2  C   LIG     1      27.594  29.376  35.234  1.00  0.00     0.000 C 
HETATM    3  C   LIG     1      28.694  30.395  35.696  1.00  0.00     0.018 C 
HETATM    4  C   LIG     1      29.153  31.428  34.624  1.00  0.00     0.010 C 
HETATM    5  C   LIG     1      28.857  30.946  33.199  1.00  0.00     0.033 C 
HETATM    6  C   LIG     1      29.693  31.517  32.042  1.00  0.00     0.088 C 
HETATM    7  C   LIG     1      29.119  32.823  31.485  1.00  0.00     0.021 C 
HETATM    8  C   LIG     1      27.427  28.331  36.324  1.00  0.00    -0.009 C 
HETATM    9  C   LIG     1      26.990  27.104  36.044  1.00  0.00     0.052 C 
HETATM   10  C   LIG     1      26.884  26.668  34.650  1.00  0.00     0.177 C 
HETATM   11  C   LIG     1      27.568  27.452  33.593  1.00  0.00    -0.006 C 
HETATM   12  C   LIG     1      27.909  26.767  32.292  1.00  0.00     0.052 C 
HETATM   13  C   LIG     1      27.983  28.715  33.885  1.00  0.00    -0.029 C 
HETATM   14  C   LIG     1      29.047  29.438  33.077  1.00  0.00     0.167 C 
HETATM   15  O   LIG     1      29.089  29.232  31.676  1.00  0.00    -0.311 OA
HETATM   16  C   LIG     1      29.575  30.384  31.076  1.00  0.00     0.263 C 
HETATM   17  O   LIG     1      29.904  30.437  29.862  1.00  0.00    -0.265 OA
HETATM   18  O   LIG     1      26.274  25.599  34.377  1.00  0.00    -0.288 OA
ENDROOT
TORSDOF 0
ENDMDL
MODEL 13
REMARK VINA RESULT:      -4.4     16.125     16.850
REMARK  0 active torsions:
REMARK  status: ('A' for Active; 'I' for Inactive)
ROOT
HETATM    1  C   LIG     1      24.947  20.414  23.184  1.00  0.00     0.025 C 
HETATM    2  C   LIG     1      24.540  21.905  23.124  1.00  0.00     0.000 C 
HETATM    3  C   LIG     1      23.186  22.064  22.348  1.00  0.00     0.018 C 
HETATM    4  C   LIG     1      23.261  21.858  20.806  1.00  0.00     0.010 C 
HETATM    5  C   LIG     1      24.682  22.062  20.268  1.00  0.00     0.033 C 
HETATM    6  C   LIG     1      24.860  22.446  18.790  1.00  0.00     0.088 C 
HETATM    7  C   LIG     1      24.921  21.226  17.865  1.00  0.00     0.021 C 
HETATM    8  C   LIG     1      24.317  22.342  24.562  1.00  0.00    -0.009 C 
HETATM    9  C   LIG     1      25.319  22.808  25.305  1.00  0.00     0.052 C 
HETATM   10  C   LIG     1      26.605  23.128  24.680  1.00  0.00     0.177 C 
HETATM   11  C   LIG     1      26.680  23.251  23.204  1.00  0.00    -0.006 C 
HETATM   12  C   LIG     1      27.802  24.062  22.603  1.00  0.00     0.052 C 
HETATM   13  C   LIG     1      25.663  22.743  22.456  1.00  0.00    -0.029 C 
HETATM   14  C   LIG     1      25.402  23.174  21.023  1.00  0.00     0.167 C 
HETATM   15  O   LIG     1      26.511  23.462  20.190  1.00  0.00    -0.311 OA
HETATM   16  C   LIG     1      26.169  23.159  18.881  1.00  0.00     0.263 C 
HETATM   17  O   LIG     1      26.880  23.486  17.894  1.00  0.00    -0.265 OA
HETATM   18  O   LIG     1      27.609  23.360  25.406  1.00  0.00    -0.288 OA
ENDROOT
TORSDOF 0
ENDMDL
MODEL 14
REMARK VINA RESULT:      -4.4     16.157     17.229
REMARK  0 active torsions:
REMARK  status: ('A' for Active; 'I' for Inactive)
ROOT
HETATM    1  C   LIG     1      24.533  19.537  23.011  1.00  0.00     0.025 C 
HETATM    2  C   LIG     1      23.916  20.931  23.276  1.00  0.00     0.000 C 
HETATM    3  C   LIG     1      22.714  21.183  22.301  1.00  0.00     0.018 C 
HETATM    4  C   LIG     1      23.093  21.458  20.815  1.00  0.00     0.010 C 
HETATM    5  C   LIG     1      24.539  21.951  20.674  1.00  0.00     0.033 C 
HETATM    6  C   LIG     1      24.914  22.777  19.433  1.00  0.00     0.088 C 
HETATM    7  C   LIG     1      25.328  21.904  18.244  1.00  0.00     0.021 C 
HETATM    8  C   LIG     1      23.376  20.892  24.696  1.00  0.00    -0.009 C 
HETATM    9  C   LIG     1      24.145  21.208  25.737  1.00  0.00     0.052 C 
HETATM   10  C   LIG     1      25.456  21.823  25.516  1.00  0.00     0.177 C 
HETATM   11  C   LIG     1      25.773  22.390  24.182  1.00  0.00    -0.006 C 
HETATM   12  C   LIG     1      26.843  23.450  24.084  1.00  0.00     0.052 C 
HETATM   13  C   LIG     1      24.997  22.035  23.122  1.00  0.00    -0.029 C 
HETATM   14  C   LIG     1      24.930  22.850  21.842  1.00  0.00     0.167 C 
HETATM   15  O   LIG     1      26.112  23.480  21.380  1.00  0.00    -0.311 OA
HETATM   16  C   LIG     1      26.060  23.553  19.996  1.00  0.00     0.263 C 
HETATM   17  O   LIG     1      26.875  24.229  19.314  1.00  0.00    -0.265 OA
HETATM   18  O   LIG     1      26.266  21.923  26.476  1.00  0.00    -0.288 OA
ENDROOT
TORSDOF 0
ENDMDL
MODEL 15
REMARK VINA RESULT:      -4.2     16.458     17.975
REMARK  0 active torsions:
REMARK  status: ('A' for Active; 'I' for Inactive)
ROOT
HETATM    1  C   LIG     1      25.899  19.979  23.659  1.00  0.00     0.025 C 
HETATM    2  C   LIG     1      24.780  21.037  23.517  1.00  0.00     0.000 C 
HETATM    3  C   LIG     1      25.208  22.140  22.487  1.00  0.00     0.018 C 
HETATM    4  C   LIG     1      26.303  23.134  22.975  1.00  0.00     0.010 C 
HETATM    5  C   LIG     1      26.382  23.194  24.505  1.00  0.00     0.033 C 
HETATM    6  C   LIG     1      26.965  24.457  25.160  1.00  0.00     0.088 C 
HETATM    7  C   LIG     1      28.489  24.400  25.303  1.00  0.00     0.021 C 
HETATM    8  C   LIG     1      23.573  20.304  22.954  1.00  0.00    -0.009 C 
HETATM    9  C   LIG     1      22.692  19.708  23.755  1.00  0.00     0.052 C 
HETATM   10  C   LIG     1      22.741  19.945  25.200  1.00  0.00     0.177 C 
HETATM   11  C   LIG     1      23.536  21.084  25.718  1.00  0.00    -0.006 C 
HETATM   12  C   LIG     1      23.190  21.648  27.075  1.00  0.00     0.052 C 
HETATM   13  C   LIG     1      24.454  21.665  24.898  1.00  0.00    -0.029 C 
HETATM   14  C   LIG     1      24.998  23.063  25.133  1.00  0.00     0.167 C 
HETATM   15  O   LIG     1      25.210  23.492  26.467  1.00  0.00    -0.311 OA
HETATM   16  C   LIG     1      26.266  24.390  26.479  1.00  0.00     0.263 C 
HETATM   17  O   LIG     1      26.563  25.085  27.486  1.00  0.00    -0.265 OA
HETATM   18  O   LIG     1      22.055  19.223  25.972  1.00  0.00    -0.288 OA
ENDROOT
TORSDOF 0
ENDMDL
MODEL 16
REMARK VINA RESULT:      -4.2     15.938     17.467
REMARK  0 active torsions:
REMARK  status: ('A' for Active; 'I' for Inactive)
ROOT
HETATM    1  C   LIG     1      28.795  23.695  19.507  1.00  0.00     0.025 C 
HETATM    2  C   LIG     1      27.725  23.872  18.405  1.00  0.00     0.000 C 
HETATM    3  C   LIG     1      26.762  25.055  18.772  1.00  0.00     0.018 C 
HETATM    4  C   LIG     1      25.755  24.775  19.926  1.00  0.00     0.010 C 
HETATM    5  C   LIG     1      25.520  23.274  20.132  1.00  0.00     0.033 C 
HETATM    6  C   LIG     1      24.210  22.820  20.796  1.00  0.00     0.088 C 
HETATM    7  C   LIG     1      24.300  22.792  22.325  1.00  0.00     0.021 C 
HETATM    8  C   LIG     1      28.478  24.248  17.140  1.00  0.00    -0.009 C 
HETATM    9  C   LIG     1      28.949  23.315  16.314  1.00  0.00     0.052 C 
HETATM   10  C   LIG     1      28.548  21.916  16.487  1.00  0.00     0.177 C 
HETATM   11  C   LIG     1      27.383  21.600  17.347  1.00  0.00    -0.006 C 
HETATM   12  C   LIG     1      26.655  20.296  17.128  1.00  0.00     0.052 C 
HETATM   13  C   LIG     1      26.931  22.552  18.208  1.00  0.00    -0.029 C 
HETATM   14  C   LIG     1      25.534  22.527  18.802  1.00  0.00     0.167 C 
HETATM   15  O   LIG     1      24.961  21.274  19.132  1.00  0.00    -0.311 OA
HETATM   16  C   LIG     1      24.101  21.451  20.206  1.00  0.00     0.263 C 
HETATM   17  O   LIG     1      23.306  20.559  20.601  1.00  0.00    -0.265 OA
HETATM   18  O   LIG     1      29.153  21.012  15.850  1.00  0.00    -0.288 OA
ENDROOT
TORSDOF 0
ENDMDL
MODEL 17
REMARK VINA RESULT:      -4.1     16.111     17.453
REMARK  0 active torsions:
REMARK  status: ('A' for Active; 'I' for Inactive)
ROOT
HETATM    1  C   LIG     1      25.951  21.713  21.617  1.00  0.00     0.025 C 
HETATM    2  C   LIG     1      25.547  22.640  20.446  1.00  0.00     0.000 C 
HETATM    3  C   LIG     1      24.015  22.969  20.522  1.00  0.00     0.018 C 
HETATM    4  C   LIG     1      23.053  21.805  20.141  1.00  0.00     0.010 C 
HETATM    5  C   LIG     1      23.746  20.748  19.273  1.00  0.00     0.033 C 
HETATM    6  C   LIG     1      22.878  19.860  18.366  1.00  0.00     0.088 C 
HETATM    7  C   LIG     1      22.357  18.611  19.083  1.00  0.00     0.021 C 
HETATM    8  C   LIG     1      26.321  23.933  20.643  1.00  0.00    -0.009 C 
HETATM    9  C   LIG     1      27.544  24.089  20.138  1.00  0.00     0.052 C 
HETATM   10  C   LIG     1      28.073  23.108  19.188  1.00  0.00     0.177 C 
HETATM   11  C   LIG     1      27.141  22.150  18.544  1.00  0.00    -0.006 C 
HETATM   12  C   LIG     1      27.544  21.521  17.233  1.00  0.00     0.052 C 
HETATM   13  C   LIG     1      25.905  21.978  19.088  1.00  0.00    -0.029 C 
HETATM   14  C   LIG     1      24.740  21.392  18.312  1.00  0.00     0.167 C 
HETATM   15  O   LIG     1      25.000  20.357  17.380  1.00  0.00    -0.311 OA
HETATM   16  C   LIG     1      23.886  19.534  17.312  1.00  0.00     0.263 C 
HETATM   17  O   LIG     1      23.745  18.642  16.434  1.00  0.00    -0.265 OA
HETATM   18  O   LIG     1      29.294  23.137  18.879  1.00  0.00    -0.288 OA
ENDROOT
TORSDOF 0
ENDMDL
MODEL 18
REMARK VINA RESULT:      -4.0     15.836     16.840
REMARK  0 active torsions:
REMARK  status: ('A' for Active; 'I' for Inactive)
ROOT
HETATM    1  C   LIG     1      28.435  26.182  23.878  1.00  0.00     0.025 C 
HETATM    2  C   LIG     1      28.535  24.687  24.263  1.00  0.00     0.000 C 
HETATM    3  C   LIG     1      29.388  23.912  23.199  1.00  0.00     0.018 C 
HETATM    4  C   LIG     1      28.700  23.675  21.821  1.00  0.00     0.010 C 
HETATM    5  C   LIG     1      27.172  23.760  21.921  1.00  0.00     0.033 C 
HETATM    6  C   LIG     1      26.326  23.036  20.861  1.00  0.00     0.088 C 
HETATM    7  C   LIG     1      26.073  23.895  19.618  1.00  0.00     0.021 C 
HETATM    8  C   LIG     1      29.274  24.639  25.589  1.00  0.00    -0.009 C 
HETATM    9  C   LIG     1      28.621  24.732  26.747  1.00  0.00     0.052 C 
HETATM   10  C   LIG     1      27.159  24.647  26.770  1.00  0.00     0.177 C 
HETATM   11  C   LIG     1      26.446  24.130  25.576  1.00  0.00    -0.006 C 
HETATM   12  C   LIG     1      25.062  23.554  25.754  1.00  0.00     0.052 C 
HETATM   13  C   LIG     1      27.117  24.069  24.393  1.00  0.00    -0.029 C 
HETATM   14  C   LIG     1      26.674  23.183  23.242  1.00  0.00     0.167 C 
HETATM   15  O   LIG     1      25.285  23.014  23.014  1.00  0.00    -0.311 OA
HETATM   16  C   LIG     1      25.083  22.807  21.658  1.00  0.00     0.263 C 
HETATM   17  O   LIG     1      23.979  22.437  21.179  1.00  0.00    -0.265 OA
HETATM   18  O   LIG     1      26.534  24.946  27.823  1.00  0.00    -0.288 OA
ENDROOT
TORSDOF 0
ENDMDL
MODEL 19
REMARK VINA RESULT:      -4.0     17.680     19.351
REMARK  0 active torsions:
REMARK  status: ('A' for Active; 'I' for Inactive)
ROOT
HETATM    1  C   LIG     1      26.983  30.997  34.380  1.00  0.00     0.025 C 
HETATM    2  C   LIG     1      28.273  30.271  34.825  1.00  0.00     0.000 C 
HETATM    3  C   LIG     1      29.467  30.671  33.889  1.00  0.00     0.018 C 
HETATM    4  C   LIG     1      29.434  30.069  32.453  1.00  0.00     0.010 C 
HETATM    5  C   LIG     1      28.563  28.809  32.379  1.00  0.00     0.033 C 
HETATM    6  C   LIG     1      28.834  27.794  31.257  1.00  0.00     0.088 C 
HETATM    7  C   LIG     1      28.081  28.124  29.965  1.00  0.00     0.021 C 
HETATM    8  C   LIG     1      28.580  30.771  36.226  1.00  0.00    -0.009 C 
HETATM    9  C   LIG     1      28.063  30.177  37.300  1.00  0.00     0.052 C 
HETATM   10  C   LIG     1      27.378  28.889  37.163  1.00  0.00     0.177 C 
HETATM   11  C   LIG     1      27.554  28.106  35.917  1.00  0.00    -0.006 C 
HETATM   12  C   LIG     1      27.313  26.616  35.959  1.00  0.00     0.052 C 
HETATM   13  C   LIG     1      28.055  28.734  34.818  1.00  0.00    -0.029 C 
HETATM   14  C   LIG     1      28.681  27.983  33.656  1.00  0.00     0.167 C 
HETATM   15  O   LIG     1      28.128  26.734  33.281  1.00  0.00    -0.311 OA
HETATM   16  C   LIG     1      28.317  26.558  31.918  1.00  0.00     0.263 C 
HETATM   17  O   LIG     1      28.104  25.464  31.332  1.00  0.00    -0.265 OA
HETATM   18  O   LIG     1      26.708  28.435  38.129  1.00  0.00    -0.288 OA
ENDROOT
TORSDOF 0
ENDMDL
