REMARK  1 active torsions:
REMARK  status: ('A' for Active; 'I' for Inactive)
REMARK    1  A    between atoms: C_8  and  O_9 
ROOT
HETATM    1  C   LIG     1       1.673   1.736  -1.069  1.00  0.00     0.016 C 
HETATM    2  C   LIG     1       1.343   0.256  -0.696  1.00  0.00    -0.036 C 
HETATM    3  C   LIG     1       2.050  -0.149   0.647  1.00  0.00    -0.004 C 
HETATM    4  C   LIG     1       1.539   0.651   1.862  1.00  0.00     0.006 C 
HETATM    5  C   LIG     1       0.020   0.512   2.020  1.00  0.00     0.006 C 
HETATM    6  C   LIG     1       1.878  -0.632  -1.889  1.00  0.00     0.012 C 
HETATM    7  C   LIG     1       3.069  -1.535  -1.520  1.00  0.00     0.032 C 
HETATM    8  C   LIG     1       4.149  -0.771  -0.731  1.00  0.00     0.118 C 
HETATM    9  C   LIG     1       3.589  -0.082   0.540  1.00  0.00     0.037 C 
HETATM   10  C   LIG     1      -0.221   0.105  -0.513  1.00  0.00    -0.002 C 
HETATM   11  C   LIG     1      -0.733   0.901   0.726  1.00  0.00    -0.004 C 
HETATM   12  C   LIG     1      -2.287   0.830   0.893  1.00  0.00     0.006 C 
HETATM   13  C   LIG     1      -3.006   1.880   0.005  1.00  0.00     0.013 C 
HETATM   14  C   LIG     1      -3.564   1.155  -1.213  1.00  0.00     0.079 C 
HETATM   15  C   LIG     1      -3.572  -0.269  -0.811  1.00  0.00     0.135 C 
HETATM   16  O   LIG     1      -4.071  -1.142  -1.506  1.00  0.00    -0.297 OA
HETATM   17  C   LIG     1      -2.929  -0.538   0.514  1.00  0.00     0.021 C 
HETATM   18  C   LIG     1      -4.027  -0.920   1.528  1.00  0.00     0.024 C 
HETATM   19  C   LIG     1      -1.904  -1.687   0.411  1.00  0.00     0.018 C 
HETATM   20  C   LIG     1      -0.715  -1.378  -0.512  1.00  0.00     0.007 C 
ENDROOT
BRANCH   8  21
HETATM   21  O   LIG     1       4.758   0.189  -1.558  1.00  0.00    -0.396 OA
HETATM   22  H   LIG     1       5.349  -0.303  -2.186  1.00  0.00     0.210 HD
ENDBRANCH   8  21
TORSDOF 1
