MODEL 1
REMARK VINA RESULT:      -6.4      0.000      0.000
REMARK  3 active torsions:
REMARK  status: ('A' for Active; 'I' for Inactive)
REMARK    1  A    between atoms: C_7  and  C_8 
REMARK    2  A    between atoms: C_8  and  O_9 
REMARK    3  A    between atoms: C_11  and  O_12 
ROOT
HETATM    1  C   LIG     1      17.646  37.907  24.771  1.00  0.00     0.310 C 
HETATM    2  N   LIG     1      17.670  37.506  23.353  1.00  0.00     0.094 N 
HETATM    3  C   LIG     1      17.519  38.646  22.437  1.00  0.00     0.225 C 
HETATM    4  C   LIG     1      16.014  38.963  22.396  1.00  0.00     0.038 C 
HETATM    5  C   LIG     1      15.349  37.656  22.798  1.00  0.00     0.039 C 
HETATM    6  C   LIG     1      16.523  36.672  22.971  1.00  0.00     0.239 C 
HETATM    7  C   LIG     1      16.930  35.917  21.653  1.00  0.00     0.145 C 
HETATM    8  C   LIG     1      18.077  36.660  20.879  1.00  0.00     0.136 C 
HETATM    9  C   LIG     1      18.024  38.204  21.032  1.00  0.00     0.068 C 
ENDROOT
BRANCH   7  10
HETATM   10  C   LIG     1      15.762  35.553  20.766  1.00  0.00     0.148 C 
HETATM   11  O   LIG     1      15.966  35.187  19.577  1.00  0.00    -0.650 OA
BRANCH  10  12
HETATM   12  O   LIG     1      14.458  35.631  21.249  1.00  0.00    -0.776 OA
HETATM   13  H   LIG     1      13.964  34.799  21.548  1.00  0.00     0.167 HD
ENDBRANCH  10  12
ENDBRANCH   7  10
BRANCH   8  14
HETATM   14  O   LIG     1      18.106  36.316  19.516  1.00  0.00    -0.395 OA
HETATM   15  H   LIG     1      17.172  36.380  19.186  1.00  0.00     0.210 HD
ENDBRANCH   8  14
TORSDOF 3
ENDMDL
MODEL 2
REMARK VINA RESULT:      -4.7     19.801     20.794
REMARK  3 active torsions:
REMARK  status: ('A' for Active; 'I' for Inactive)
REMARK    1  A    between atoms: C_7  and  C_8 
REMARK    2  A    between atoms: C_8  and  O_9 
REMARK    3  A    between atoms: C_11  and  O_12 
ROOT
HETATM    1  C   LIG     1      18.629  19.416  36.287  1.00  0.00     0.310 C 
HETATM    2  N   LIG     1      19.162  20.486  35.425  1.00  0.00     0.094 N 
HETATM    3  C   LIG     1      20.189  20.003  34.490  1.00  0.00     0.225 C 
HETATM    4  C   LIG     1      21.493  19.908  35.300  1.00  0.00     0.038 C 
HETATM    5  C   LIG     1      21.286  20.881  36.450  1.00  0.00     0.039 C 
HETATM    6  C   LIG     1      19.906  21.510  36.170  1.00  0.00     0.239 C 
HETATM    7  C   LIG     1      19.955  22.789  35.257  1.00  0.00     0.145 C 
HETATM    8  C   LIG     1      19.755  22.439  33.740  1.00  0.00     0.136 C 
HETATM    9  C   LIG     1      20.329  21.052  33.346  1.00  0.00     0.068 C 
ENDROOT
BRANCH   7  10
HETATM   10  C   LIG     1      21.154  23.676  35.503  1.00  0.00     0.148 C 
HETATM   11  O   LIG     1      22.184  23.552  34.787  1.00  0.00    -0.650 OA
BRANCH  10  12
HETATM   12  O   LIG     1      21.135  24.621  36.526  1.00  0.00    -0.776 OA
HETATM   13  H   LIG     1      21.482  25.561  36.372  1.00  0.00     0.167 HD
ENDBRANCH  10  12
ENDBRANCH   7  10
BRANCH   8  14
HETATM   14  O   LIG     1      20.278  23.431  32.893  1.00  0.00    -0.395 OA
HETATM   15  H   LIG     1      19.742  24.251  33.050  1.00  0.00     0.210 HD
ENDBRANCH   8  14
TORSDOF 3
ENDMDL
MODEL 3
REMARK VINA RESULT:      -4.6     19.702     20.760
REMARK  3 active torsions:
REMARK  status: ('A' for Active; 'I' for Inactive)
REMARK    1  A    between atoms: C_7  and  C_8 
REMARK    2  A    between atoms: C_8  and  O_9 
REMARK    3  A    between atoms: C_11  and  O_12 
ROOT
HETATM    1  C   LIG     1      24.599  20.655  34.813  1.00  0.00     0.310 C 
HETATM    2  N   LIG     1      23.553  21.626  35.182  1.00  0.00     0.094 N 
HETATM    3  C   LIG     1      22.848  21.259  36.419  1.00  0.00     0.225 C 
HETATM    4  C   LIG     1      21.815  20.191  36.019  1.00  0.00     0.038 C 
HETATM    5  C   LIG     1      21.580  20.439  34.538  1.00  0.00     0.039 C 
HETATM    6  C   LIG     1      22.445  21.675  34.219  1.00  0.00     0.239 C 
HETATM    7  C   LIG     1      21.713  23.048  34.440  1.00  0.00     0.145 C 
HETATM    8  C   LIG     1      21.968  23.629  35.876  1.00  0.00     0.136 C 
HETATM    9  C   LIG     1      22.136  22.533  36.963  1.00  0.00     0.068 C 
ENDROOT
BRANCH   7  10
HETATM   10  C   LIG     1      20.249  23.033  34.064  1.00  0.00     0.148 C 
HETATM   11  O   LIG     1      19.904  23.251  32.871  1.00  0.00    -0.650 OA
BRANCH  10  12
HETATM   12  O   LIG     1      19.275  22.794  35.031  1.00  0.00    -0.776 OA
HETATM   13  H   LIG     1      19.531  22.629  35.997  1.00  0.00     0.167 HD
ENDBRANCH  10  12
ENDBRANCH   7  10
BRANCH   8  14
HETATM   14  O   LIG     1      20.971  24.539  36.266  1.00  0.00    -0.395 OA
HETATM   15  H   LIG     1      20.439  24.093  36.975  1.00  0.00     0.210 HD
ENDBRANCH   8  14
TORSDOF 3
ENDMDL
MODEL 4
REMARK VINA RESULT:      -4.6      2.702      3.935
REMARK  3 active torsions:
REMARK  status: ('A' for Active; 'I' for Inactive)
REMARK    1  A    between atoms: C_7  and  C_8 
REMARK    2  A    between atoms: C_8  and  O_9 
REMARK    3  A    between atoms: C_11  and  O_12 
ROOT
HETATM    1  C   LIG     1      18.753  37.435  20.141  1.00  0.00     0.310 C 
HETATM    2  N   LIG     1      17.735  37.602  21.193  1.00  0.00     0.094 N 
HETATM    3  C   LIG     1      17.335  39.005  21.380  1.00  0.00     0.225 C 
HETATM    4  C   LIG     1      18.434  39.649  22.242  1.00  0.00     0.038 C 
HETATM    5  C   LIG     1      19.062  38.477  22.979  1.00  0.00     0.039 C 
HETATM    6  C   LIG     1      18.228  37.259  22.533  1.00  0.00     0.239 C 
HETATM    7  C   LIG     1      16.963  36.984  23.425  1.00  0.00     0.145 C 
HETATM    8  C   LIG     1      15.676  37.679  22.854  1.00  0.00     0.136 C 
HETATM    9  C   LIG     1      15.970  39.020  22.130  1.00  0.00     0.068 C 
ENDROOT
BRANCH   7  10
HETATM   10  C   LIG     1      17.175  37.257  24.896  1.00  0.00     0.148 C 
HETATM   11  O   LIG     1      17.669  36.363  25.636  1.00  0.00    -0.650 OA
BRANCH  10  12
HETATM   12  O   LIG     1      16.816  38.486  25.445  1.00  0.00    -0.776 OA
HETATM   13  H   LIG     1      16.905  39.341  24.908  1.00  0.00     0.167 HD
ENDBRANCH  10  12
ENDBRANCH   7  10
BRANCH   8  14
HETATM   14  O   LIG     1      14.696  37.875  23.843  1.00  0.00    -0.395 OA
HETATM   15  H   LIG     1      14.517  38.851  23.877  1.00  0.00     0.210 HD
ENDBRANCH   8  14
TORSDOF 3
ENDMDL
MODEL 5
REMARK VINA RESULT:      -4.6     20.088     21.135
REMARK  3 active torsions:
REMARK  status: ('A' for Active; 'I' for Inactive)
REMARK    1  A    between atoms: C_7  and  C_8 
REMARK    2  A    between atoms: C_8  and  O_9 
REMARK    3  A    between atoms: C_11  and  O_12 
ROOT
HETATM    1  C   LIG     1      19.899  19.230  35.791  1.00  0.00     0.310 C 
HETATM    2  N   LIG     1      20.245  20.661  35.864  1.00  0.00     0.094 N 
HETATM    3  C   LIG     1      19.809  21.412  34.678  1.00  0.00     0.225 C 
HETATM    4  C   LIG     1      20.862  21.140  33.590  1.00  0.00     0.038 C 
HETATM    5  C   LIG     1      22.109  20.757  34.370  1.00  0.00     0.039 C 
HETATM    6  C   LIG     1      21.692  20.906  35.847  1.00  0.00     0.239 C 
HETATM    7  C   LIG     1      21.915  22.347  36.437  1.00  0.00     0.145 C 
HETATM    8  C   LIG     1      20.630  23.241  36.309  1.00  0.00     0.136 C 
HETATM    9  C   LIG     1      19.782  22.924  35.048  1.00  0.00     0.068 C 
ENDROOT
BRANCH   7  10
HETATM   10  C   LIG     1      23.162  23.034  35.929  1.00  0.00     0.148 C 
HETATM   11  O   LIG     1      24.274  22.799  36.475  1.00  0.00    -0.650 OA
BRANCH  10  12
HETATM   12  O   LIG     1      23.090  23.937  34.871  1.00  0.00    -0.776 OA
HETATM   13  H   LIG     1      23.870  24.058  34.237  1.00  0.00     0.167 HD
ENDBRANCH  10  12
ENDBRANCH   7  10
BRANCH   8  14
HETATM   14  O   LIG     1      20.933  24.613  36.348  1.00  0.00    -0.395 OA
HETATM   15  H   LIG     1      21.799  24.728  35.876  1.00  0.00     0.210 HD
ENDBRANCH   8  14
TORSDOF 3
ENDMDL
MODEL 6
REMARK VINA RESULT:      -4.5     15.966     16.928
REMARK  3 active torsions:
REMARK  status: ('A' for Active; 'I' for Inactive)
REMARK    1  A    between atoms: C_7  and  C_8 
REMARK    2  A    between atoms: C_8  and  O_9 
REMARK    3  A    between atoms: C_11  and  O_12 
ROOT
HETATM    1  C   LIG     1      24.504  21.373  23.516  1.00  0.00     0.310 C 
HETATM    2  N   LIG     1      24.675  21.567  22.065  1.00  0.00     0.094 N 
HETATM    3  C   LIG     1      24.631  22.983  21.672  1.00  0.00     0.225 C 
HETATM    4  C   LIG     1      23.141  23.365  21.619  1.00  0.00     0.038 C 
HETATM    5  C   LIG     1      22.428  22.041  21.400  1.00  0.00     0.039 C 
HETATM    6  C   LIG     1      23.569  21.011  21.275  1.00  0.00     0.239 C 
HETATM    7  C   LIG     1      24.108  20.823  19.810  1.00  0.00     0.145 C 
HETATM    8  C   LIG     1      25.336  21.754  19.509  1.00  0.00     0.136 C 
HETATM    9  C   LIG     1      25.280  23.111  20.261  1.00  0.00     0.068 C 
ENDROOT
BRANCH   7  10
HETATM   10  C   LIG     1      23.038  20.899  18.745  1.00  0.00     0.148 C 
HETATM   11  O   LIG     1      22.420  19.856  18.401  1.00  0.00    -0.650 OA
BRANCH  10  12
HETATM   12  O   LIG     1      22.740  22.112  18.130  1.00  0.00    -0.776 OA
HETATM   13  H   LIG     1      21.784  22.360  17.904  1.00  0.00     0.167 HD
ENDBRANCH  10  12
ENDBRANCH   7  10
BRANCH   8  14
HETATM   14  O   LIG     1      25.508  21.978  18.132  1.00  0.00    -0.395 OA
HETATM   15  H   LIG     1      25.672  22.951  18.020  1.00  0.00     0.210 HD
ENDBRANCH   8  14
TORSDOF 3
ENDMDL
MODEL 7
REMARK VINA RESULT:      -4.4      2.593      4.028
REMARK  3 active torsions:
REMARK  status: ('A' for Active; 'I' for Inactive)
REMARK    1  A    between atoms: C_7  and  C_8 
REMARK    2  A    between atoms: C_8  and  O_9 
REMARK    3  A    between atoms: C_11  and  O_12 
ROOT
HETATM    1  C   LIG     1      18.978  39.274  17.751  1.00  0.00     0.310 C 
HETATM    2  N   LIG     1      18.606  38.990  19.148  1.00  0.00     0.094 N 
HETATM    3  C   LIG     1      19.750  39.067  20.069  1.00  0.00     0.225 C 
HETATM    4  C   LIG     1      20.504  37.734  19.923  1.00  0.00     0.038 C 
HETATM    5  C   LIG     1      19.452  36.768  19.403  1.00  0.00     0.039 C 
HETATM    6  C   LIG     1      18.159  37.607  19.356  1.00  0.00     0.239 C 
HETATM    7  C   LIG     1      17.333  37.593  20.694  1.00  0.00     0.145 C 
HETATM    8  C   LIG     1      17.707  38.796  21.630  1.00  0.00     0.136 C 
HETATM    9  C   LIG     1      19.194  39.228  21.515  1.00  0.00     0.068 C 
ENDROOT
BRANCH   7  10
HETATM   10  C   LIG     1      17.346  36.263  21.412  1.00  0.00     0.148 C 
HETATM   11  O   LIG     1      17.697  36.205  22.622  1.00  0.00    -0.650 OA
BRANCH  10  12
HETATM   12  O   LIG     1      16.987  35.096  20.742  1.00  0.00    -0.776 OA
HETATM   13  H   LIG     1      16.185  35.077  20.123  1.00  0.00     0.167 HD
ENDBRANCH  10  12
ENDBRANCH   7  10
BRANCH   8  14
HETATM   14  O   LIG     1      17.387  38.542  22.975  1.00  0.00    -0.395 OA
HETATM   15  H   LIG     1      17.959  39.140  23.522  1.00  0.00     0.210 HD
ENDBRANCH   8  14
TORSDOF 3
ENDMDL
MODEL 8
REMARK VINA RESULT:      -4.4     17.463     18.802
REMARK  3 active torsions:
REMARK  status: ('A' for Active; 'I' for Inactive)
REMARK    1  A    between atoms: C_7  and  C_8 
REMARK    2  A    between atoms: C_8  and  O_9 
REMARK    3  A    between atoms: C_11  and  O_12 
ROOT
HETATM    1  C   LIG     1      26.242  31.518  37.082  1.00  0.00     0.310 C 
HETATM    2  N   LIG     1      26.802  30.262  36.551  1.00  0.00     0.094 N 
HETATM    3  C   LIG     1      28.264  30.308  36.406  1.00  0.00     0.225 C 
HETATM    4  C   LIG     1      28.539  31.068  35.097  1.00  0.00     0.038 C 
HETATM    5  C   LIG     1      27.263  30.889  34.290  1.00  0.00     0.039 C 
HETATM    6  C   LIG     1      26.382  29.981  35.172  1.00  0.00     0.239 C 
HETATM    7  C   LIG     1      26.603  28.442  34.935  1.00  0.00     0.145 C 
HETATM    8  C   LIG     1      27.665  27.840  35.922  1.00  0.00     0.136 C 
HETATM    9  C   LIG     1      28.785  28.843  36.309  1.00  0.00     0.068 C 
ENDROOT
BRANCH   7  10
HETATM   10  C   LIG     1      26.863  28.073  33.493  1.00  0.00     0.148 C 
HETATM   11  O   LIG     1      28.032  28.150  33.026  1.00  0.00    -0.650 OA
BRANCH  10  12
HETATM   12  O   LIG     1      25.818  27.659  32.671  1.00  0.00    -0.776 OA
HETATM   13  H   LIG     1      25.516  26.692  32.660  1.00  0.00     0.167 HD
ENDBRANCH  10  12
ENDBRANCH   7  10
BRANCH   8  14
HETATM   14  O   LIG     1      28.236  26.655  35.428  1.00  0.00    -0.395 OA
HETATM   15  H   LIG     1      28.799  26.912  34.652  1.00  0.00     0.210 HD
ENDBRANCH   8  14
TORSDOF 3
ENDMDL
MODEL 9
REMARK VINA RESULT:      -4.1     19.740     20.790
REMARK  3 active torsions:
REMARK  status: ('A' for Active; 'I' for Inactive)
REMARK    1  A    between atoms: C_7  and  C_8 
REMARK    2  A    between atoms: C_8  and  O_9 
REMARK    3  A    between atoms: C_11  and  O_12 
ROOT
HETATM    1  C   LIG     1      24.537  23.526  35.572  1.00  0.00     0.310 C 
HETATM    2  N   LIG     1      23.100  23.287  35.353  1.00  0.00     0.094 N 
HETATM    3  C   LIG     1      22.312  23.381  36.591  1.00  0.00     0.225 C 
HETATM    4  C   LIG     1      22.498  22.037  37.317  1.00  0.00     0.038 C 
HETATM    5  C   LIG     1      22.870  21.066  36.209  1.00  0.00     0.039 C 
HETATM    6  C   LIG     1      22.802  21.914  34.923  1.00  0.00     0.239 C 
HETATM    7  C   LIG     1      21.382  21.948  34.249  1.00  0.00     0.145 C 
HETATM    8  C   LIG     1      20.530  23.176  34.730  1.00  0.00     0.136 C 
HETATM    9  C   LIG     1      20.820  23.590  36.198  1.00  0.00     0.068 C 
ENDROOT
BRANCH   7  10
HETATM   10  C   LIG     1      20.629  20.640  34.333  1.00  0.00     0.148 C 
HETATM   11  O   LIG     1      20.845  19.736  33.482  1.00  0.00    -0.650 OA
BRANCH  10  12
HETATM   12  O   LIG     1      19.686  20.432  35.337  1.00  0.00    -0.776 OA
HETATM   13  H   LIG     1      19.539  21.123  36.063  1.00  0.00     0.167 HD
ENDBRANCH  10  12
ENDBRANCH   7  10
BRANCH   8  14
HETATM   14  O   LIG     1      19.151  22.965  34.557  1.00  0.00    -0.395 OA
HETATM   15  H   LIG     1      19.047  22.050  34.186  1.00  0.00     0.210 HD
ENDBRANCH   8  14
TORSDOF 3
ENDMDL
MODEL 10
REMARK VINA RESULT:      -4.1     20.170     21.071
REMARK  3 active torsions:
REMARK  status: ('A' for Active; 'I' for Inactive)
REMARK    1  A    between atoms: C_7  and  C_8 
REMARK    2  A    between atoms: C_8  and  O_9 
REMARK    3  A    between atoms: C_11  and  O_12 
ROOT
HETATM    1  C   LIG     1      21.606  24.026  36.358  1.00  0.00     0.310 C 
HETATM    2  N   LIG     1      21.543  22.634  35.879  1.00  0.00     0.094 N 
HETATM    3  C   LIG     1      21.863  22.509  34.450  1.00  0.00     0.225 C 
HETATM    4  C   LIG     1      20.585  22.903  33.691  1.00  0.00     0.038 C 
HETATM    5  C   LIG     1      19.468  22.653  34.691  1.00  0.00     0.039 C 
HETATM    6  C   LIG     1      20.188  22.069  35.924  1.00  0.00     0.239 C 
HETATM    7  C   LIG     1      20.347  20.505  35.896  1.00  0.00     0.145 C 
HETATM    8  C   LIG     1      21.720  20.063  35.275  1.00  0.00     0.136 C 
HETATM    9  C   LIG     1      22.233  21.022  34.168  1.00  0.00     0.068 C 
ENDROOT
BRANCH   7  10
HETATM   10  C   LIG     1      19.167  19.777  35.294  1.00  0.00     0.148 C 
HETATM   11  O   LIG     1      18.159  19.519  36.005  1.00  0.00    -0.650 OA
BRANCH  10  12
HETATM   12  O   LIG     1      19.192  19.375  33.961  1.00  0.00    -0.776 OA
HETATM   13  H   LIG     1      19.958  18.819  33.599  1.00  0.00     0.167 HD
ENDBRANCH  10  12
ENDBRANCH   7  10
BRANCH   8  14
HETATM   14  O   LIG     1      21.681  18.746  34.786  1.00  0.00    -0.395 OA
HETATM   15  H   LIG     1      20.731  18.459  34.815  1.00  0.00     0.210 HD
ENDBRANCH   8  14
TORSDOF 3
ENDMDL
MODEL 11
REMARK VINA RESULT:      -3.9     16.071     17.116
REMARK  3 active torsions:
REMARK  status: ('A' for Active; 'I' for Inactive)
REMARK    1  A    between atoms: C_7  and  C_8 
REMARK    2  A    between atoms: C_8  and  O_9 
REMARK    3  A    between atoms: C_11  and  O_12 
ROOT
HETATM    1  C   LIG     1      27.994  21.925  19.622  1.00  0.00     0.310 C 
HETATM    2  N   LIG     1      26.553  21.940  19.308  1.00  0.00     0.094 N 
HETATM    3  C   LIG     1      26.078  23.264  18.882  1.00  0.00     0.225 C 
HETATM    4  C   LIG     1      25.878  24.080  20.172  1.00  0.00     0.038 C 
HETATM    5  C   LIG     1      25.674  23.026  21.248  1.00  0.00     0.039 C 
HETATM    6  C   LIG     1      25.705  21.689  20.480  1.00  0.00     0.239 C 
HETATM    7  C   LIG     1      24.304  21.227  19.935  1.00  0.00     0.145 C 
HETATM    8  C   LIG     1      24.056  21.709  18.461  1.00  0.00     0.136 C 
HETATM    9  C   LIG     1      24.723  23.073  18.139  1.00  0.00     0.068 C 
ENDROOT
BRANCH   7  10
HETATM   10  C   LIG     1      23.150  21.542  20.859  1.00  0.00     0.148 C 
HETATM   11  O   LIG     1      22.871  20.759  21.806  1.00  0.00    -0.650 OA
BRANCH  10  12
HETATM   12  O   LIG     1      22.381  22.687  20.662  1.00  0.00    -0.776 OA
HETATM   13  H   LIG     1      22.421  23.196  19.786  1.00  0.00     0.167 HD
ENDBRANCH  10  12
ENDBRANCH   7  10
BRANCH   8  14
HETATM   14  O   LIG     1      22.689  21.758  18.142  1.00  0.00    -0.395 OA
HETATM   15  H   LIG     1      22.198  21.427  18.939  1.00  0.00     0.210 HD
ENDBRANCH   8  14
TORSDOF 3
ENDMDL
MODEL 12
REMARK VINA RESULT:      -3.9     15.808     16.939
REMARK  3 active torsions:
REMARK  status: ('A' for Active; 'I' for Inactive)
REMARK    1  A    between atoms: C_7  and  C_8 
REMARK    2  A    between atoms: C_8  and  O_9 
REMARK    3  A    between atoms: C_11  and  O_12 
ROOT
HETATM    1  C   LIG     1      25.265  22.808  24.779  1.00  0.00     0.310 C 
HETATM    2  N   LIG     1      24.513  22.652  23.521  1.00  0.00     0.094 N 
HETATM    3  C   LIG     1      23.942  21.306  23.364  1.00  0.00     0.225 C 
HETATM    4  C   LIG     1      25.091  20.410  22.872  1.00  0.00     0.038 C 
HETATM    5  C   LIG     1      26.063  21.379  22.219  1.00  0.00     0.039 C 
HETATM    6  C   LIG     1      25.362  22.749  22.327  1.00  0.00     0.239 C 
HETATM    7  C   LIG     1      24.410  23.081  21.120  1.00  0.00     0.145 C 
HETATM    8  C   LIG     1      22.927  22.650  21.402  1.00  0.00     0.136 C 
HETATM    9  C   LIG     1      22.812  21.385  22.294  1.00  0.00     0.068 C 
ENDROOT
BRANCH   7  10
HETATM   10  C   LIG     1      24.919  22.596  19.782  1.00  0.00     0.148 C 
HETATM   11  O   LIG     1      25.746  23.292  19.134  1.00  0.00    -0.650 OA
BRANCH  10  12
HETATM   12  O   LIG     1      24.470  21.388  19.252  1.00  0.00    -0.776 OA
HETATM   13  H   LIG     1      24.880  21.006  18.409  1.00  0.00     0.167 HD
ENDBRANCH  10  12
ENDBRANCH   7  10
BRANCH   8  14
HETATM   14  O   LIG     1      22.193  22.468  20.218  1.00  0.00    -0.395 OA
HETATM   15  H   LIG     1      22.814  22.655  19.466  1.00  0.00     0.210 HD
ENDBRANCH   8  14
TORSDOF 3
ENDMDL
MODEL 13
REMARK VINA RESULT:      -3.9     16.424     17.629
REMARK  3 active torsions:
REMARK  status: ('A' for Active; 'I' for Inactive)
REMARK    1  A    between atoms: C_7  and  C_8 
REMARK    2  A    between atoms: C_8  and  O_9 
REMARK    3  A    between atoms: C_11  and  O_12 
ROOT
HETATM    1  C   LIG     1      22.869  20.124  23.171  1.00  0.00     0.310 C 
HETATM    2  N   LIG     1      23.020  20.648  21.802  1.00  0.00     0.094 N 
HETATM    3  C   LIG     1      23.403  19.610  20.834  1.00  0.00     0.225 C 
HETATM    4  C   LIG     1      24.919  19.411  21.001  1.00  0.00     0.038 C 
HETATM    5  C   LIG     1      25.401  20.722  21.601  1.00  0.00     0.039 C 
HETATM    6  C   LIG     1      24.133  21.597  21.667  1.00  0.00     0.239 C 
HETATM    7  C   LIG     1      23.860  22.434  20.365  1.00  0.00     0.145 C 
HETATM    8  C   LIG     1      22.909  21.681  19.368  1.00  0.00     0.136 C 
HETATM    9  C   LIG     1      23.073  20.138  19.406  1.00  0.00     0.068 C 
ENDROOT
BRANCH   7  10
HETATM   10  C   LIG     1      25.110  22.964  19.700  1.00  0.00     0.148 C 
HETATM   11  O   LIG     1      25.628  24.040  20.102  1.00  0.00    -0.650 OA
BRANCH  10  12
HETATM   12  O   LIG     1      25.687  22.276  18.634  1.00  0.00    -0.776 OA
HETATM   13  H   LIG     1      25.156  22.080  17.794  1.00  0.00     0.167 HD
ENDBRANCH  10  12
ENDBRANCH   7  10
BRANCH   8  14
HETATM   14  O   LIG     1      23.051  22.144  18.048  1.00  0.00    -0.395 OA
HETATM   15  H   LIG     1      22.429  22.911  17.947  1.00  0.00     0.210 HD
ENDBRANCH   8  14
TORSDOF 3
ENDMDL
MODEL 14
REMARK VINA RESULT:      -3.8     15.747     17.125
REMARK  3 active torsions:
REMARK  status: ('A' for Active; 'I' for Inactive)
REMARK    1  A    between atoms: C_7  and  C_8 
REMARK    2  A    between atoms: C_8  and  O_9 
REMARK    3  A    between atoms: C_11  and  O_12 
ROOT
HETATM    1  C   LIG     1      26.516  22.173  21.198  1.00  0.00     0.310 C 
HETATM    2  N   LIG     1      26.832  23.443  20.519  1.00  0.00     0.094 N 
HETATM    3  C   LIG     1      25.740  23.913  19.655  1.00  0.00     0.225 C 
HETATM    4  C   LIG     1      25.850  23.105  18.350  1.00  0.00     0.038 C 
HETATM    5  C   LIG     1      27.306  22.671  18.306  1.00  0.00     0.039 C 
HETATM    6  C   LIG     1      27.934  23.322  19.555  1.00  0.00     0.239 C 
HETATM    7  C   LIG     1      28.487  24.775  19.314  1.00  0.00     0.145 C 
HETATM    8  C   LIG     1      27.422  25.876  19.660  1.00  0.00     0.136 C 
HETATM    9  C   LIG     1      25.962  25.430  19.381  1.00  0.00     0.068 C 
ENDROOT
BRANCH   7  10
HETATM   10  C   LIG     1      29.122  24.975  17.957  1.00  0.00     0.148 C 
HETATM   11  O   LIG     1      28.435  25.432  17.004  1.00  0.00    -0.650 OA
BRANCH  10  12
HETATM   12  O   LIG     1      30.458  24.645  17.748  1.00  0.00    -0.776 OA
HETATM   13  H   LIG     1      31.189  25.039  18.329  1.00  0.00     0.167 HD
ENDBRANCH  10  12
ENDBRANCH   7  10
BRANCH   8  14
HETATM   14  O   LIG     1      27.684  27.091  19.005  1.00  0.00    -0.395 OA
HETATM   15  H   LIG     1      27.509  27.813  19.663  1.00  0.00     0.210 HD
ENDBRANCH   8  14
TORSDOF 3
ENDMDL
MODEL 15
REMARK VINA RESULT:      -3.8     15.792     16.914
REMARK  3 active torsions:
REMARK  status: ('A' for Active; 'I' for Inactive)
REMARK    1  A    between atoms: C_7  and  C_8 
REMARK    2  A    between atoms: C_8  and  O_9 
REMARK    3  A    between atoms: C_11  and  O_12 
ROOT
HETATM    1  C   LIG     1      29.620  24.290  18.785  1.00  0.00     0.310 C 
HETATM    2  N   LIG     1      28.208  23.869  18.784  1.00  0.00     0.094 N 
HETATM    3  C   LIG     1      27.288  24.964  18.447  1.00  0.00     0.225 C 
HETATM    4  C   LIG     1      27.115  25.788  19.735  1.00  0.00     0.038 C 
HETATM    5  C   LIG     1      27.450  24.809  20.848  1.00  0.00     0.039 C 
HETATM    6  C   LIG     1      27.721  23.480  20.114  1.00  0.00     0.239 C 
HETATM    7  C   LIG     1      26.441  22.596  19.889  1.00  0.00     0.145 C 
HETATM    8  C   LIG     1      25.775  22.869  18.493  1.00  0.00     0.136 C 
HETATM    9  C   LIG     1      25.930  24.336  18.012  1.00  0.00     0.068 C 
ENDROOT
BRANCH   7  10
HETATM   10  C   LIG     1      25.452  22.641  21.031  1.00  0.00     0.148 C 
HETATM   11  O   LIG     1      24.487  23.451  20.995  1.00  0.00    -0.650 OA
BRANCH  10  12
HETATM   12  O   LIG     1      25.608  21.802  22.132  1.00  0.00    -0.776 OA
HETATM   13  H   LIG     1      25.084  20.937  22.205  1.00  0.00     0.167 HD
ENDBRANCH  10  12
ENDBRANCH   7  10
BRANCH   8  14
HETATM   14  O   LIG     1      24.419  22.500  18.471  1.00  0.00    -0.395 OA
HETATM   15  H   LIG     1      24.284  21.956  17.652  1.00  0.00     0.210 HD
ENDBRANCH   8  14
TORSDOF 3
ENDMDL
MODEL 16
REMARK VINA RESULT:      -3.7     15.954     17.097
REMARK  3 active torsions:
REMARK  status: ('A' for Active; 'I' for Inactive)
REMARK    1  A    between atoms: C_7  and  C_8 
REMARK    2  A    between atoms: C_8  and  O_9 
REMARK    3  A    between atoms: C_11  and  O_12 
ROOT
HETATM    1  C   LIG     1      26.703  22.356  23.274  1.00  0.00     0.310 C 
HETATM    2  N   LIG     1      25.400  22.417  22.588  1.00  0.00     0.094 N 
HETATM    3  C   LIG     1      24.490  21.339  23.000  1.00  0.00     0.225 C 
HETATM    4  C   LIG     1      24.926  20.090  22.213  1.00  0.00     0.038 C 
HETATM    5  C   LIG     1      25.640  20.651  20.995  1.00  0.00     0.039 C 
HETATM    6  C   LIG     1      25.497  22.180  21.143  1.00  0.00     0.239 C 
HETATM    7  C   LIG     1      24.191  22.770  20.497  1.00  0.00     0.145 C 
HETATM    8  C   LIG     1      23.016  22.875  21.533  1.00  0.00     0.136 C 
HETATM    9  C   LIG     1      23.041  21.755  22.608  1.00  0.00     0.068 C 
ENDROOT
BRANCH   7  10
HETATM   10  C   LIG     1      23.780  22.093  19.209  1.00  0.00     0.148 C 
HETATM   11  O   LIG     1      22.943  21.152  19.234  1.00  0.00    -0.650 OA
BRANCH  10  12
HETATM   12  O   LIG     1      24.332  22.494  17.994  1.00  0.00    -0.776 OA
HETATM   13  H   LIG     1      23.990  22.118  17.118  1.00  0.00     0.167 HD
ENDBRANCH  10  12
ENDBRANCH   7  10
BRANCH   8  14
HETATM   14  O   LIG     1      21.758  22.908  20.908  1.00  0.00    -0.395 OA
HETATM   15  H   LIG     1      21.367  22.001  21.006  1.00  0.00     0.210 HD
ENDBRANCH   8  14
TORSDOF 3
ENDMDL
MODEL 17
REMARK VINA RESULT:      -3.7     16.883     17.652
REMARK  3 active torsions:
REMARK  status: ('A' for Active; 'I' for Inactive)
REMARK    1  A    between atoms: C_7  and  C_8 
REMARK    2  A    between atoms: C_8  and  O_9 
REMARK    3  A    between atoms: C_11  and  O_12 
ROOT
HETATM    1  C   LIG     1      29.789  26.432  32.025  1.00  0.00     0.310 C 
HETATM    2  N   LIG     1      29.383  26.200  30.627  1.00  0.00     0.094 N 
HETATM    3  C   LIG     1      28.858  27.410  29.979  1.00  0.00     0.225 C 
HETATM    4  C   LIG     1      27.401  27.550  30.453  1.00  0.00     0.038 C 
HETATM    5  C   LIG     1      27.003  26.138  30.847  1.00  0.00     0.039 C 
HETATM    6  C   LIG     1      28.241  25.285  30.503  1.00  0.00     0.239 C 
HETATM    7  C   LIG     1      28.256  24.738  29.028  1.00  0.00     0.145 C 
HETATM    8  C   LIG     1      29.031  25.694  28.053  1.00  0.00     0.136 C 
HETATM    9  C   LIG     1      28.914  27.194  28.437  1.00  0.00     0.068 C 
ENDROOT
BRANCH   7  10
HETATM   10  C   LIG     1      26.895  24.341  28.505  1.00  0.00     0.148 C 
HETATM   11  O   LIG     1      26.468  23.170  28.690  1.00  0.00    -0.650 OA
BRANCH  10  12
HETATM   12  O   LIG     1      26.113  25.258  27.806  1.00  0.00    -0.776 OA
HETATM   13  H   LIG     1      26.055  26.225  28.103  1.00  0.00     0.167 HD
ENDBRANCH  10  12
ENDBRANCH   7  10
BRANCH   8  14
HETATM   14  O   LIG     1      28.644  25.513  26.714  1.00  0.00    -0.395 OA
HETATM   15  H   LIG     1      29.396  25.049  26.261  1.00  0.00     0.210 HD
ENDBRANCH   8  14
TORSDOF 3
ENDMDL
MODEL 18
REMARK VINA RESULT:      -3.7     17.487     18.511
REMARK  3 active torsions:
REMARK  status: ('A' for Active; 'I' for Inactive)
REMARK    1  A    between atoms: C_7  and  C_8 
REMARK    2  A    between atoms: C_8  and  O_9 
REMARK    3  A    between atoms: C_11  and  O_12 
ROOT
HETATM    1  C   LIG     1      25.754  23.028  20.168  1.00  0.00     0.310 C 
HETATM    2  N   LIG     1      25.429  21.688  19.648  1.00  0.00     0.094 N 
HETATM    3  C   LIG     1      24.975  21.715  18.250  1.00  0.00     0.225 C 
HETATM    4  C   LIG     1      23.495  22.135  18.291  1.00  0.00     0.038 C 
HETATM    5  C   LIG     1      23.039  21.749  19.689  1.00  0.00     0.039 C 
HETATM    6  C   LIG     1      24.275  21.074  20.317  1.00  0.00     0.239 C 
HETATM    7  C   LIG     1      24.367  19.526  20.053  1.00  0.00     0.145 C 
HETATM    8  C   LIG     1      25.224  19.196  18.779  1.00  0.00     0.136 C 
HETATM    9  C   LIG     1      25.120  20.277  17.669  1.00  0.00     0.068 C 
ENDROOT
BRANCH   7  10
HETATM   10  C   LIG     1      23.031  18.819  20.063  1.00  0.00     0.148 C 
HETATM   11  O   LIG     1      22.562  18.380  21.147  1.00  0.00    -0.650 OA
BRANCH  10  12
HETATM   12  O   LIG     1      22.321  18.637  18.879  1.00  0.00    -0.776 OA
HETATM   13  H   LIG     1      22.192  19.401  18.227  1.00  0.00     0.167 HD
ENDBRANCH  10  12
ENDBRANCH   7  10
BRANCH   8  14
HETATM   14  O   LIG     1      24.916  17.933  18.246  1.00  0.00    -0.395 OA
HETATM   15  H   LIG     1      25.286  17.914  17.325  1.00  0.00     0.210 HD
ENDBRANCH   8  14
TORSDOF 3
ENDMDL
MODEL 19
REMARK VINA RESULT:      -3.6     16.949     17.859
REMARK  3 active torsions:
REMARK  status: ('A' for Active; 'I' for Inactive)
REMARK    1  A    between atoms: C_7  and  C_8 
REMARK    2  A    between atoms: C_8  and  O_9 
REMARK    3  A    between atoms: C_11  and  O_12 
ROOT
HETATM    1  C   LIG     1      29.175  22.394  24.336  1.00  0.00     0.310 C 
HETATM    2  N   LIG     1      27.974  22.662  25.147  1.00  0.00     0.094 N 
HETATM    3  C   LIG     1      27.069  23.636  24.519  1.00  0.00     0.225 C 
HETATM    4  C   LIG     1      27.665  25.023  24.814  1.00  0.00     0.038 C 
HETATM    5  C   LIG     1      28.509  24.807  26.060  1.00  0.00     0.039 C 
HETATM    6  C   LIG     1      28.276  23.326  26.422  1.00  0.00     0.239 C 
HETATM    7  C   LIG     1      27.042  23.080  27.365  1.00  0.00     0.145 C 
HETATM    8  C   LIG     1      25.735  22.763  26.554  1.00  0.00     0.136 C 
HETATM    9  C   LIG     1      25.668  23.488  25.184  1.00  0.00     0.068 C 
ENDROOT
BRANCH   7  10
HETATM   10  C   LIG     1      26.840  24.155  28.408  1.00  0.00     0.148 C 
HETATM   11  O   LIG     1      27.337  24.014  29.559  1.00  0.00    -0.650 OA
BRANCH  10  12
HETATM   12  O   LIG     1      26.097  25.295  28.112  1.00  0.00    -0.776 OA
HETATM   13  H   LIG     1      26.462  26.220  28.309  1.00  0.00     0.167 HD
ENDBRANCH  10  12
ENDBRANCH   7  10
BRANCH   8  14
HETATM   14  O   LIG     1      24.572  23.034  27.296  1.00  0.00    -0.395 OA
HETATM   15  H   LIG     1      24.301  23.962  27.070  1.00  0.00     0.210 HD
ENDBRANCH   8  14
TORSDOF 3
ENDMDL
MODEL 20
REMARK VINA RESULT:      -3.5     20.714     21.710
REMARK  3 active torsions:
REMARK  status: ('A' for Active; 'I' for Inactive)
REMARK    1  A    between atoms: C_7  and  C_8 
REMARK    2  A    between atoms: C_8  and  O_9 
REMARK    3  A    between atoms: C_11  and  O_12 
ROOT
HETATM    1  C   LIG     1      19.360  23.152  35.556  1.00  0.00     0.310 C 
HETATM    2  N   LIG     1      20.634  22.711  36.151  1.00  0.00     0.094 N 
HETATM    3  C   LIG     1      21.727  23.669  35.928  1.00  0.00     0.225 C 
HETATM    4  C   LIG     1      22.227  23.419  34.494  1.00  0.00     0.038 C 
HETATM    5  C   LIG     1      21.819  21.984  34.205  1.00  0.00     0.039 C 
HETATM    6  C   LIG     1      21.176  21.500  35.521  1.00  0.00     0.239 C 
HETATM    7  C   LIG     1      22.195  20.875  36.542  1.00  0.00     0.145 C 
HETATM    8  C   LIG     1      22.735  21.939  37.563  1.00  0.00     0.136 C 
HETATM    9  C   LIG     1      22.852  23.365  36.962  1.00  0.00     0.068 C 
ENDROOT
BRANCH   7  10
HETATM   10  C   LIG     1      23.297  20.066  35.897  1.00  0.00     0.148 C 
HETATM   11  O   LIG     1      23.135  18.832  35.696  1.00  0.00    -0.650 OA
BRANCH  10  12
HETATM   12  O   LIG     1      24.497  20.673  35.533  1.00  0.00    -0.776 OA
HETATM   13  H   LIG     1      25.156  20.199  34.927  1.00  0.00     0.167 HD
ENDBRANCH  10  12
ENDBRANCH   7  10
BRANCH   8  14
HETATM   14  O   LIG     1      23.965  21.556  38.126  1.00  0.00    -0.395 OA
HETATM   15  H   LIG     1      24.605  21.457  37.374  1.00  0.00     0.210 HD
ENDBRANCH   8  14
TORSDOF 3
ENDMDL
