REMARK  3 active torsions:
REMARK  status: ('A' for Active; 'I' for Inactive)
REMARK    1  A    between atoms: C_7  and  C_8 
REMARK    2  A    between atoms: C_8  and  O_9 
REMARK    3  A    between atoms: C_11  and  O_12 
ROOT
HETATM    1  C   LIG     1      -2.655   0.093   1.029  1.00  0.00     0.310 C 
HETATM    2  N   LIG     1      -1.404   0.434   0.328  1.00  0.00     0.094 N 
HETATM    3  C   LIG     1      -1.190  -0.376  -0.880  1.00  0.00     0.225 C 
HETATM    4  C   LIG     1      -0.634  -1.726  -0.395  1.00  0.00     0.038 C 
HETATM    5  C   LIG     1      -0.013  -1.407   0.955  1.00  0.00     0.039 C 
HETATM    6  C   LIG     1      -0.201   0.116   1.108  1.00  0.00     0.239 C 
HETATM    7  C   LIG     1       0.971   0.973   0.504  1.00  0.00     0.145 C 
HETATM    8  C   LIG     1       0.684   1.402  -0.979  1.00  0.00     0.136 C 
HETATM    9  C   LIG     1      -0.146   0.358  -1.773  1.00  0.00     0.068 C 
ENDROOT
BRANCH   7  10
HETATM   10  C   LIG     1       2.340   0.358   0.684  1.00  0.00     0.148 C 
HETATM   11  O   LIG     1       3.053   0.690   1.669  1.00  0.00    -0.650 OA
BRANCH  10  12
HETATM   12  O   LIG     1       2.826  -0.564  -0.240  1.00  0.00    -0.776 OA
HETATM   13  H   LIG     1       3.744  -0.978  -0.128  1.00  0.00     0.167 HD
ENDBRANCH  10  12
ENDBRANCH   7  10
BRANCH   8  14
HETATM   14  O   LIG     1       1.863   1.708  -1.680  1.00  0.00    -0.395 OA
HETATM   15  H   LIG     1       2.220   2.546  -1.285  1.00  0.00     0.210 HD
ENDBRANCH   8  14
TORSDOF 3
