REMARK  5 active torsions:
REMARK  status: ('A' for Active; 'I' for Inactive)
REMARK    1  A    between atoms: C_2  and  C_3 
REMARK    2  A    between atoms: C_2  and  O_18 
REMARK    3  A    between atoms: C_4  and  C_5 
REMARK    4  A    between atoms: C_10  and  C_11 
REMARK    5  A    between atoms: C_11  and  O_12 
ROOT
HETATM    1  C   LIG     1       1.756  -0.463  -0.047  1.00  0.00     0.048 A 
HETATM    2  C   LIG     1       0.644   0.252   0.478  1.00  0.00    -0.008 A 
HETATM    3  C   LIG     1       0.860   1.414   1.238  1.00  0.00     0.013 A 
HETATM    4  C   LIG     1       2.155   1.871   1.482  1.00  0.00     0.001 A 
HETATM    5  C   LIG     1       3.249   1.171   0.980  1.00  0.00     0.001 A 
HETATM    6  C   LIG     1       3.053   0.013   0.224  1.00  0.00     0.019 A 
ENDROOT
BRANCH   2   7
HETATM    7  C   LIG     1      -0.751  -0.215   0.311  1.00  0.00    -0.008 A 
HETATM    8  C   LIG     1      -1.175  -1.306   1.089  1.00  0.00     0.013 A 
HETATM    9  C   LIG     1      -2.493  -1.755   1.022  1.00  0.00     0.001 A 
HETATM   10  C   LIG     1      -3.406  -1.117   0.186  1.00  0.00     0.001 A 
HETATM   11  C   LIG     1      -3.003  -0.030  -0.593  1.00  0.00     0.019 A 
HETATM   12  C   LIG     1      -1.675   0.435  -0.552  1.00  0.00     0.048 A 
BRANCH  12  13
HETATM   13  C   LIG     1      -1.296   1.572  -1.431  1.00  0.00     0.177 C 
HETATM   14  O   LIG     1      -0.088   1.811  -1.702  1.00  0.00    -0.646 OA
BRANCH  13  15
HETATM   15  O   LIG     1      -2.285   2.376  -1.993  1.00  0.00    -0.773 OA
HETATM   16  H   LIG     1      -2.044   3.149  -2.602  1.00  0.00     0.167 HD
ENDBRANCH  13  15
ENDBRANCH  12  13
ENDBRANCH   2   7
BRANCH   1  17
HETATM   17  C   LIG     1       1.609  -1.680  -0.888  1.00  0.00     0.177 C 
HETATM   18  O   LIG     1       0.514  -1.957  -1.446  1.00  0.00    -0.646 OA
BRANCH  17  19
HETATM   19  O   LIG     1       2.702  -2.519  -1.093  1.00  0.00    -0.773 OA
HETATM   20  H   LIG     1       2.621  -3.347  -1.671  1.00  0.00     0.167 HD
ENDBRANCH  17  19
ENDBRANCH   1  17
TORSDOF 5
