MODEL 1
REMARK VINA RESULT:      -6.3      0.000      0.000
REMARK  5 active torsions:
REMARK  status: ('A' for Active; 'I' for Inactive)
REMARK    1  A    between atoms: C_2  and  C_3 
REMARK    2  A    between atoms: C_2  and  O_18 
REMARK    3  A    between atoms: C_4  and  C_5 
REMARK    4  A    between atoms: C_10  and  C_11 
REMARK    5  A    between atoms: C_11  and  O_12 
ROOT
HETATM    1  C   LIG     1      17.026  37.519  23.631  1.00  0.00     0.048 A 
HETATM    2  C   LIG     1      17.232  36.297  22.933  1.00  0.00    -0.008 A 
HETATM    3  C   LIG     1      17.443  35.110  23.655  1.00  0.00     0.013 A 
HETATM    4  C   LIG     1      17.453  35.121  25.050  1.00  0.00     0.001 A 
HETATM    5  C   LIG     1      17.262  36.314  25.740  1.00  0.00     0.001 A 
HETATM    6  C   LIG     1      17.052  37.504  25.039  1.00  0.00     0.019 A 
ENDROOT
BRANCH   2   7
HETATM    7  C   LIG     1      17.299  36.228  21.456  1.00  0.00    -0.008 A 
HETATM    8  C   LIG     1      18.458  36.716  20.828  1.00  0.00     0.013 A 
HETATM    9  C   LIG     1      18.607  36.625  19.445  1.00  0.00     0.001 A 
HETATM   10  C   LIG     1      17.607  36.039  18.672  1.00  0.00     0.001 A 
HETATM   11  C   LIG     1      16.450  35.547  19.279  1.00  0.00     0.019 A 
HETATM   12  C   LIG     1      16.270  35.637  20.672  1.00  0.00     0.048 A 
BRANCH  12  13
HETATM   13  C   LIG     1      15.001  35.130  21.256  1.00  0.00     0.177 C 
HETATM   14  O   LIG     1      14.875  33.920  21.588  1.00  0.00    -0.646 OA
BRANCH  13  15
HETATM   15  O   LIG     1      13.937  36.003  21.472  1.00  0.00    -0.773 OA
HETATM   16  H   LIG     1      13.630  36.639  20.746  1.00  0.00     0.167 HD
ENDBRANCH  13  15
ENDBRANCH  12  13
ENDBRANCH   2   7
BRANCH   1  17
HETATM   17  C   LIG     1      16.762  38.808  22.941  1.00  0.00     0.177 C 
HETATM   18  O   LIG     1      17.708  39.544  22.553  1.00  0.00    -0.646 OA
BRANCH  17  19
HETATM   19  O   LIG     1      15.451  39.205  22.687  1.00  0.00    -0.773 OA
HETATM   20  H   LIG     1      15.232  39.806  21.902  1.00  0.00     0.167 HD
ENDBRANCH  17  19
ENDBRANCH   1  17
TORSDOF 5
ENDMDL
MODEL 2
REMARK VINA RESULT:      -5.6      1.458      4.570
REMARK  5 active torsions:
REMARK  status: ('A' for Active; 'I' for Inactive)
REMARK    1  A    between atoms: C_2  and  C_3 
REMARK    2  A    between atoms: C_2  and  O_18 
REMARK    3  A    between atoms: C_4  and  C_5 
REMARK    4  A    between atoms: C_10  and  C_11 
REMARK    5  A    between atoms: C_11  and  O_12 
ROOT
HETATM    1  C   LIG     1      17.060  35.966  20.983  1.00  0.00     0.048 A 
HETATM    2  C   LIG     1      16.490  35.506  22.202  1.00  0.00    -0.008 A 
HETATM    3  C   LIG     1      15.389  34.633  22.170  1.00  0.00     0.013 A 
HETATM    4  C   LIG     1      14.850  34.217  20.952  1.00  0.00     0.001 A 
HETATM    5  C   LIG     1      15.396  34.671  19.755  1.00  0.00     0.001 A 
HETATM    6  C   LIG     1      16.490  35.540  19.768  1.00  0.00     0.019 A 
ENDROOT
BRANCH   2   7
HETATM    7  C   LIG     1      16.972  35.961  23.526  1.00  0.00    -0.008 A 
HETATM    8  C   LIG     1      17.725  35.058  24.296  1.00  0.00     0.013 A 
HETATM    9  C   LIG     1      18.258  35.446  25.524  1.00  0.00     0.001 A 
HETATM   10  C   LIG     1      18.055  36.740  25.995  1.00  0.00     0.001 A 
HETATM   11  C   LIG     1      17.311  37.652  25.243  1.00  0.00     0.019 A 
HETATM   12  C   LIG     1      16.752  37.281  24.005  1.00  0.00     0.048 A 
BRANCH  12  13
HETATM   13  C   LIG     1      15.940  38.283  23.267  1.00  0.00     0.177 C 
HETATM   14  O   LIG     1      16.383  39.442  23.041  1.00  0.00    -0.646 OA
BRANCH  13  15
HETATM   15  O   LIG     1      14.678  37.938  22.788  1.00  0.00    -0.773 OA
HETATM   16  H   LIG     1      14.280  37.026  22.978  1.00  0.00     0.167 HD
ENDBRANCH  13  15
ENDBRANCH  12  13
ENDBRANCH   2   7
BRANCH   1  17
HETATM   17  C   LIG     1      18.245  36.862  20.933  1.00  0.00     0.177 C 
HETATM   18  O   LIG     1      19.288  36.528  20.311  1.00  0.00    -0.646 OA
BRANCH  17  19
HETATM   19  O   LIG     1      18.202  38.106  21.558  1.00  0.00    -0.773 OA
HETATM   20  H   LIG     1      17.879  38.927  21.060  1.00  0.00     0.167 HD
ENDBRANCH  17  19
ENDBRANCH   1  17
TORSDOF 5
ENDMDL
MODEL 3
REMARK VINA RESULT:      -5.5      1.727      2.401
REMARK  5 active torsions:
REMARK  status: ('A' for Active; 'I' for Inactive)
REMARK    1  A    between atoms: C_2  and  C_3 
REMARK    2  A    between atoms: C_2  and  O_18 
REMARK    3  A    between atoms: C_4  and  C_5 
REMARK    4  A    between atoms: C_10  and  C_11 
REMARK    5  A    between atoms: C_11  and  O_12 
ROOT
HETATM    1  C   LIG     1      16.618  37.937  23.602  1.00  0.00     0.048 A 
HETATM    2  C   LIG     1      17.952  37.871  23.114  1.00  0.00    -0.008 A 
HETATM    3  C   LIG     1      19.015  37.698  24.016  1.00  0.00     0.013 A 
HETATM    4  C   LIG     1      18.773  37.591  25.386  1.00  0.00     0.001 A 
HETATM    5  C   LIG     1      17.470  37.665  25.872  1.00  0.00     0.001 A 
HETATM    6  C   LIG     1      16.401  37.839  24.989  1.00  0.00     0.019 A 
ENDROOT
BRANCH   2   7
HETATM    7  C   LIG     1      18.283  38.042  21.681  1.00  0.00    -0.008 A 
HETATM    8  C   LIG     1      18.898  39.243  21.289  1.00  0.00     0.013 A 
HETATM    9  C   LIG     1      19.289  39.441  19.965  1.00  0.00     0.001 A 
HETATM   10  C   LIG     1      19.080  38.440  19.019  1.00  0.00     0.001 A 
HETATM   11  C   LIG     1      18.472  37.239  19.391  1.00  0.00     0.019 A 
HETATM   12  C   LIG     1      18.058  37.020  20.718  1.00  0.00     0.048 A 
BRANCH  12  13
HETATM   13  C   LIG     1      17.383  35.737  21.046  1.00  0.00     0.177 C 
HETATM   14  O   LIG     1      17.697  35.081  22.077  1.00  0.00    -0.646 OA
BRANCH  13  15
HETATM   15  O   LIG     1      16.367  35.256  20.224  1.00  0.00    -0.773 OA
HETATM   16  H   LIG     1      15.402  35.259  20.533  1.00  0.00     0.167 HD
ENDBRANCH  13  15
ENDBRANCH  12  13
ENDBRANCH   2   7
BRANCH   1  17
HETATM   17  C   LIG     1      15.438  38.084  22.709  1.00  0.00     0.177 C 
HETATM   18  O   LIG     1      14.823  37.075  22.272  1.00  0.00    -0.646 OA
BRANCH  17  19
HETATM   19  O   LIG     1      14.979  39.354  22.368  1.00  0.00    -0.773 OA
HETATM   20  H   LIG     1      14.346  39.486  21.588  1.00  0.00     0.167 HD
ENDBRANCH  17  19
ENDBRANCH   1  17
TORSDOF 5
ENDMDL
MODEL 4
REMARK VINA RESULT:      -5.0      4.747      7.154
REMARK  5 active torsions:
REMARK  status: ('A' for Active; 'I' for Inactive)
REMARK    1  A    between atoms: C_2  and  C_3 
REMARK    2  A    between atoms: C_2  and  O_18 
REMARK    3  A    between atoms: C_4  and  C_5 
REMARK    4  A    between atoms: C_10  and  C_11 
REMARK    5  A    between atoms: C_11  and  O_12 
ROOT
HETATM    1  C   LIG     1      15.505  32.689  19.523  1.00  0.00     0.048 A 
HETATM    2  C   LIG     1      15.126  33.116  18.220  1.00  0.00    -0.008 A 
HETATM    3  C   LIG     1      15.081  34.489  17.924  1.00  0.00     0.013 A 
HETATM    4  C   LIG     1      15.403  35.435  18.897  1.00  0.00     0.001 A 
HETATM    5  C   LIG     1      15.765  35.025  20.177  1.00  0.00     0.001 A 
HETATM    6  C   LIG     1      15.813  33.665  20.490  1.00  0.00     0.019 A 
ENDROOT
BRANCH   2   7
HETATM    7  C   LIG     1      14.710  32.167  17.163  1.00  0.00    -0.008 A 
HETATM    8  C   LIG     1      13.519  31.447  17.360  1.00  0.00     0.013 A 
HETATM    9  C   LIG     1      13.042  30.583  16.376  1.00  0.00     0.001 A 
HETATM   10  C   LIG     1      13.741  30.432  15.180  1.00  0.00     0.001 A 
HETATM   11  C   LIG     1      14.925  31.141  14.967  1.00  0.00     0.019 A 
HETATM   12  C   LIG     1      15.434  32.011  15.949  1.00  0.00     0.048 A 
BRANCH  12  13
HETATM   13  C   LIG     1      16.718  32.710  15.680  1.00  0.00     0.177 C 
HETATM   14  O   LIG     1      17.808  32.077  15.643  1.00  0.00    -0.646 OA
BRANCH  13  15
HETATM   15  O   LIG     1      16.725  34.081  15.435  1.00  0.00    -0.773 OA
HETATM   16  H   LIG     1      16.319  34.731  16.098  1.00  0.00     0.167 HD
ENDBRANCH  13  15
ENDBRANCH  12  13
ENDBRANCH   2   7
BRANCH   1  17
HETATM   17  C   LIG     1      15.609  31.256  19.904  1.00  0.00     0.177 C 
HETATM   18  O   LIG     1      16.729  30.722  20.126  1.00  0.00    -0.646 OA
BRANCH  17  19
HETATM   19  O   LIG     1      14.455  30.489  20.050  1.00  0.00    -0.773 OA
HETATM   20  H   LIG     1      13.644  30.858  20.532  1.00  0.00     0.167 HD
ENDBRANCH  17  19
ENDBRANCH   1  17
TORSDOF 5
ENDMDL
MODEL 5
REMARK VINA RESULT:      -4.9     17.201     18.694
REMARK  5 active torsions:
REMARK  status: ('A' for Active; 'I' for Inactive)
REMARK    1  A    between atoms: C_2  and  C_3 
REMARK    2  A    between atoms: C_2  and  O_18 
REMARK    3  A    between atoms: C_4  and  C_5 
REMARK    4  A    between atoms: C_10  and  C_11 
REMARK    5  A    between atoms: C_11  and  O_12 
ROOT
HETATM    1  C   LIG     1      27.052  28.655  36.460  1.00  0.00     0.048 A 
HETATM    2  C   LIG     1      26.832  29.304  35.214  1.00  0.00    -0.008 A 
HETATM    3  C   LIG     1      26.167  30.542  35.182  1.00  0.00     0.013 A 
HETATM    4  C   LIG     1      25.722  31.138  36.362  1.00  0.00     0.001 A 
HETATM    5  C   LIG     1      25.925  30.503  37.585  1.00  0.00     0.001 A 
HETATM    6  C   LIG     1      26.582  29.272  37.635  1.00  0.00     0.019 A 
ENDROOT
BRANCH   2   7
HETATM    7  C   LIG     1      27.221  28.695  33.921  1.00  0.00    -0.008 A 
HETATM    8  C   LIG     1      26.307  27.823  33.306  1.00  0.00     0.013 A 
HETATM    9  C   LIG     1      26.588  27.265  32.060  1.00  0.00     0.001 A 
HETATM   10  C   LIG     1      27.779  27.576  31.408  1.00  0.00     0.001 A 
HETATM   11  C   LIG     1      28.698  28.443  32.004  1.00  0.00     0.019 A 
HETATM   12  C   LIG     1      28.443  29.010  33.267  1.00  0.00     0.048 A 
BRANCH  12  13
HETATM   13  C   LIG     1      29.475  29.896  33.866  1.00  0.00     0.177 C 
HETATM   14  O   LIG     1      29.531  31.121  33.573  1.00  0.00    -0.646 OA
BRANCH  13  15
HETATM   15  O   LIG     1      30.381  29.381  34.790  1.00  0.00    -0.773 OA
HETATM   16  H   LIG     1      31.138  29.950  35.150  1.00  0.00     0.167 HD
ENDBRANCH  13  15
ENDBRANCH  12  13
ENDBRANCH   2   7
BRANCH   1  17
HETATM   17  C   LIG     1      27.777  27.362  36.579  1.00  0.00     0.177 C 
HETATM   18  O   LIG     1      27.152  26.271  36.666  1.00  0.00    -0.646 OA
BRANCH  17  19
HETATM   19  O   LIG     1      29.170  27.342  36.567  1.00  0.00    -0.773 OA
HETATM   20  H   LIG     1      29.688  26.810  37.256  1.00  0.00     0.167 HD
ENDBRANCH  17  19
ENDBRANCH   1  17
TORSDOF 5
ENDMDL
MODEL 6
REMARK VINA RESULT:      -4.9     17.187     18.872
REMARK  5 active torsions:
REMARK  status: ('A' for Active; 'I' for Inactive)
REMARK    1  A    between atoms: C_2  and  C_3 
REMARK    2  A    between atoms: C_2  and  O_18 
REMARK    3  A    between atoms: C_4  and  C_5 
REMARK    4  A    between atoms: C_10  and  C_11 
REMARK    5  A    between atoms: C_11  and  O_12 
ROOT
HETATM    1  C   LIG     1      28.454  29.050  33.251  1.00  0.00     0.048 A 
HETATM    2  C   LIG     1      27.237  28.722  33.909  1.00  0.00    -0.008 A 
HETATM    3  C   LIG     1      26.329  27.842  33.296  1.00  0.00     0.013 A 
HETATM    4  C   LIG     1      26.612  27.289  32.047  1.00  0.00     0.001 A 
HETATM    5  C   LIG     1      27.796  27.614  31.391  1.00  0.00     0.001 A 
HETATM    6  C   LIG     1      28.709  28.488  31.985  1.00  0.00     0.019 A 
ENDROOT
BRANCH   2   7
HETATM    7  C   LIG     1      26.848  29.324  35.205  1.00  0.00    -0.008 A 
HETATM    8  C   LIG     1      26.166  30.553  35.178  1.00  0.00     0.013 A 
HETATM    9  C   LIG     1      25.720  31.142  36.360  1.00  0.00     0.001 A 
HETATM   10  C   LIG     1      25.939  30.509  37.581  1.00  0.00     0.001 A 
HETATM   11  C   LIG     1      26.613  29.286  37.627  1.00  0.00     0.019 A 
HETATM   12  C   LIG     1      27.083  28.677  36.448  1.00  0.00     0.048 A 
BRANCH  12  13
HETATM   13  C   LIG     1      27.826  27.394  36.563  1.00  0.00     0.177 C 
HETATM   14  O   LIG     1      27.216  26.291  36.612  1.00  0.00    -0.646 OA
BRANCH  13  15
HETATM   15  O   LIG     1      29.218  27.397  36.589  1.00  0.00    -0.773 OA
HETATM   16  H   LIG     1      29.755  27.229  35.747  1.00  0.00     0.167 HD
ENDBRANCH  13  15
ENDBRANCH  12  13
ENDBRANCH   2   7
BRANCH   1  17
HETATM   17  C   LIG     1      29.480  29.945  33.848  1.00  0.00     0.177 C 
HETATM   18  O   LIG     1      29.513  31.174  33.571  1.00  0.00    -0.646 OA
BRANCH  17  19
HETATM   19  O   LIG     1      30.405  29.433  34.755  1.00  0.00    -0.773 OA
HETATM   20  H   LIG     1      30.847  30.032  35.441  1.00  0.00     0.167 HD
ENDBRANCH  17  19
ENDBRANCH   1  17
TORSDOF 5
ENDMDL
MODEL 7
REMARK VINA RESULT:      -4.8      5.282      8.635
REMARK  5 active torsions:
REMARK  status: ('A' for Active; 'I' for Inactive)
REMARK    1  A    between atoms: C_2  and  C_3 
REMARK    2  A    between atoms: C_2  and  O_18 
REMARK    3  A    between atoms: C_4  and  C_5 
REMARK    4  A    between atoms: C_10  and  C_11 
REMARK    5  A    between atoms: C_11  and  O_12 
ROOT
HETATM    1  C   LIG     1      13.821  30.998  15.898  1.00  0.00     0.048 A 
HETATM    2  C   LIG     1      15.010  31.604  16.391  1.00  0.00    -0.008 A 
HETATM    3  C   LIG     1      16.178  31.580  15.611  1.00  0.00     0.013 A 
HETATM    4  C   LIG     1      16.182  30.968  14.358  1.00  0.00     0.001 A 
HETATM    5  C   LIG     1      15.025  30.364  13.873  1.00  0.00     0.001 A 
HETATM    6  C   LIG     1      13.855  30.376  14.636  1.00  0.00     0.019 A 
ENDROOT
BRANCH   2   7
HETATM    7  C   LIG     1      15.091  32.213  17.739  1.00  0.00    -0.008 A 
HETATM    8  C   LIG     1      15.051  31.354  18.850  1.00  0.00     0.013 A 
HETATM    9  C   LIG     1      15.183  31.859  20.142  1.00  0.00     0.001 A 
HETATM   10  C   LIG     1      15.365  33.226  20.342  1.00  0.00     0.001 A 
HETATM   11  C   LIG     1      15.409  34.094  19.249  1.00  0.00     0.019 A 
HETATM   12  C   LIG     1      15.266  33.610  17.935  1.00  0.00     0.048 A 
BRANCH  12  13
HETATM   13  C   LIG     1      15.284  34.586  16.815  1.00  0.00     0.177 C 
HETATM   14  O   LIG     1      14.226  35.151  16.426  1.00  0.00    -0.646 OA
BRANCH  13  15
HETATM   15  O   LIG     1      16.489  34.912  16.196  1.00  0.00    -0.773 OA
HETATM   16  H   LIG     1      17.306  34.323  16.305  1.00  0.00     0.167 HD
ENDBRANCH  13  15
ENDBRANCH  12  13
ENDBRANCH   2   7
BRANCH   1  17
HETATM   17  C   LIG     1      12.538  31.011  16.648  1.00  0.00     0.177 C 
HETATM   18  O   LIG     1      11.932  29.940  16.919  1.00  0.00    -0.646 OA
BRANCH  17  19
HETATM   19  O   LIG     1      12.002  32.219  17.088  1.00  0.00    -0.773 OA
HETATM   20  H   LIG     1      11.228  32.654  16.599  1.00  0.00     0.167 HD
ENDBRANCH  17  19
ENDBRANCH   1  17
TORSDOF 5
ENDMDL
MODEL 8
REMARK VINA RESULT:      -4.7     17.138     18.959
REMARK  5 active torsions:
REMARK  status: ('A' for Active; 'I' for Inactive)
REMARK    1  A    between atoms: C_2  and  C_3 
REMARK    2  A    between atoms: C_2  and  O_18 
REMARK    3  A    between atoms: C_4  and  C_5 
REMARK    4  A    between atoms: C_10  and  C_11 
REMARK    5  A    between atoms: C_11  and  O_12 
ROOT
HETATM    1  C   LIG     1      28.218  29.117  33.473  1.00  0.00     0.048 A 
HETATM    2  C   LIG     1      28.211  30.474  33.897  1.00  0.00    -0.008 A 
HETATM    3  C   LIG     1      28.833  31.454  33.105  1.00  0.00     0.013 A 
HETATM    4  C   LIG     1      29.458  31.106  31.908  1.00  0.00     0.001 A 
HETATM    5  C   LIG     1      29.478  29.778  31.491  1.00  0.00     0.001 A 
HETATM    6  C   LIG     1      28.866  28.790  32.267  1.00  0.00     0.019 A 
ENDROOT
BRANCH   2   7
HETATM    7  C   LIG     1      27.623  30.900  35.188  1.00  0.00    -0.008 A 
HETATM    8  C   LIG     1      26.253  31.213  35.213  1.00  0.00     0.013 A 
HETATM    9  C   LIG     1      25.627  31.562  36.408  1.00  0.00     0.001 A 
HETATM   10  C   LIG     1      26.356  31.595  37.594  1.00  0.00     0.001 A 
HETATM   11  C   LIG     1      27.718  31.285  37.589  1.00  0.00     0.019 A 
HETATM   12  C   LIG     1      28.376  30.941  36.393  1.00  0.00     0.048 A 
BRANCH  12  13
HETATM   13  C   LIG     1      29.834  30.658  36.443  1.00  0.00     0.177 C 
HETATM   14  O   LIG     1      30.679  31.593  36.451  1.00  0.00    -0.646 OA
BRANCH  13  15
HETATM   15  O   LIG     1      30.284  29.341  36.512  1.00  0.00    -0.773 OA
HETATM   16  H   LIG     1      29.826  28.606  35.986  1.00  0.00     0.167 HD
ENDBRANCH  13  15
ENDBRANCH  12  13
ENDBRANCH   2   7
BRANCH   1  17
HETATM   17  C   LIG     1      27.553  28.029  34.237  1.00  0.00     0.177 C 
HETATM   18  O   LIG     1      28.125  27.475  35.213  1.00  0.00    -0.646 OA
BRANCH  17  19
HETATM   19  O   LIG     1      26.263  27.628  33.895  1.00  0.00    -0.773 OA
HETATM   20  H   LIG     1      26.109  26.925  33.182  1.00  0.00     0.167 HD
ENDBRANCH  17  19
ENDBRANCH   1  17
TORSDOF 5
ENDMDL
MODEL 9
REMARK VINA RESULT:      -4.7     17.224     18.470
REMARK  5 active torsions:
REMARK  status: ('A' for Active; 'I' for Inactive)
REMARK    1  A    between atoms: C_2  and  C_3 
REMARK    2  A    between atoms: C_2  and  O_18 
REMARK    3  A    between atoms: C_4  and  C_5 
REMARK    4  A    between atoms: C_10  and  C_11 
REMARK    5  A    between atoms: C_11  and  O_12 
ROOT
HETATM    1  C   LIG     1      28.391  30.855  36.512  1.00  0.00     0.048 A 
HETATM    2  C   LIG     1      27.635  30.836  35.307  1.00  0.00    -0.008 A 
HETATM    3  C   LIG     1      26.262  31.131  35.343  1.00  0.00     0.013 A 
HETATM    4  C   LIG     1      25.634  31.440  36.550  1.00  0.00     0.001 A 
HETATM    5  C   LIG     1      26.365  31.451  37.735  1.00  0.00     0.001 A 
HETATM    6  C   LIG     1      27.731  31.158  37.718  1.00  0.00     0.019 A 
ENDROOT
BRANCH   2   7
HETATM    7  C   LIG     1      28.225  30.452  34.005  1.00  0.00    -0.008 A 
HETATM    8  C   LIG     1      28.845  31.458  33.244  1.00  0.00     0.013 A 
HETATM    9  C   LIG     1      29.472  31.150  32.037  1.00  0.00     0.001 A 
HETATM   10  C   LIG     1      29.497  29.835  31.580  1.00  0.00     0.001 A 
HETATM   11  C   LIG     1      28.888  28.822  32.324  1.00  0.00     0.019 A 
HETATM   12  C   LIG     1      28.238  29.109  33.539  1.00  0.00     0.048 A 
BRANCH  12  13
HETATM   13  C   LIG     1      27.576  27.996  34.268  1.00  0.00     0.177 C 
HETATM   14  O   LIG     1      28.155  27.405  35.219  1.00  0.00    -0.646 OA
BRANCH  13  15
HETATM   15  O   LIG     1      26.283  27.610  33.922  1.00  0.00    -0.773 OA
HETATM   16  H   LIG     1      25.936  27.739  32.979  1.00  0.00     0.167 HD
ENDBRANCH  13  15
ENDBRANCH  12  13
ENDBRANCH   2   7
BRANCH   1  17
HETATM   17  C   LIG     1      29.853  30.588  36.552  1.00  0.00     0.177 C 
HETATM   18  O   LIG     1      30.684  31.531  36.634  1.00  0.00    -0.646 OA
BRANCH  17  19
HETATM   19  O   LIG     1      30.321  29.276  36.527  1.00  0.00    -0.773 OA
HETATM   20  H   LIG     1      31.314  29.078  36.532  1.00  0.00     0.167 HD
ENDBRANCH  17  19
ENDBRANCH   1  17
TORSDOF 5
ENDMDL
MODEL 10
REMARK VINA RESULT:      -4.6     16.247     17.806
REMARK  5 active torsions:
REMARK  status: ('A' for Active; 'I' for Inactive)
REMARK    1  A    between atoms: C_2  and  C_3 
REMARK    2  A    between atoms: C_2  and  O_18 
REMARK    3  A    between atoms: C_4  and  C_5 
REMARK    4  A    between atoms: C_10  and  C_11 
REMARK    5  A    between atoms: C_11  and  O_12 
ROOT
HETATM    1  C   LIG     1      25.623  20.922  17.918  1.00  0.00     0.048 A 
HETATM    2  C   LIG     1      24.999  22.011  18.587  1.00  0.00    -0.008 A 
HETATM    3  C   LIG     1      23.601  22.034  18.726  1.00  0.00     0.013 A 
HETATM    4  C   LIG     1      22.820  20.999  18.211  1.00  0.00     0.001 A 
HETATM    5  C   LIG     1      23.423  19.934  17.546  1.00  0.00     0.001 A 
HETATM    6  C   LIG     1      24.811  19.896  17.398  1.00  0.00     0.019 A 
ENDROOT
BRANCH   2   7
HETATM    7  C   LIG     1      25.763  23.172  19.098  1.00  0.00    -0.008 A 
HETATM    8  C   LIG     1      25.915  24.282  18.248  1.00  0.00     0.013 A 
HETATM    9  C   LIG     1      26.572  25.429  18.691  1.00  0.00     0.001 A 
HETATM   10  C   LIG     1      27.076  25.487  19.988  1.00  0.00     0.001 A 
HETATM   11  C   LIG     1      26.933  24.395  20.847  1.00  0.00     0.019 A 
HETATM   12  C   LIG     1      26.284  23.221  20.419  1.00  0.00     0.048 A 
BRANCH  12  13
HETATM   13  C   LIG     1      26.194  22.078  21.365  1.00  0.00     0.177 C 
HETATM   14  O   LIG     1      27.088  21.189  21.399  1.00  0.00    -0.646 OA
BRANCH  13  15
HETATM   15  O   LIG     1      25.124  21.993  22.253  1.00  0.00    -0.773 OA
HETATM   16  H   LIG     1      24.393  21.303  22.122  1.00  0.00     0.167 HD
ENDBRANCH  13  15
ENDBRANCH  12  13
ENDBRANCH   2   7
BRANCH   1  17
HETATM   17  C   LIG     1      27.097  20.808  17.761  1.00  0.00     0.177 C 
HETATM   18  O   LIG     1      27.678  21.252  16.736  1.00  0.00    -0.646 OA
BRANCH  17  19
HETATM   19  O   LIG     1      27.860  20.230  18.772  1.00  0.00    -0.773 OA
HETATM   20  H   LIG     1      28.502  19.472  18.571  1.00  0.00     0.167 HD
ENDBRANCH  17  19
ENDBRANCH   1  17
TORSDOF 5
ENDMDL
MODEL 11
REMARK VINA RESULT:      -4.6     15.065     16.419
REMARK  5 active torsions:
REMARK  status: ('A' for Active; 'I' for Inactive)
REMARK    1  A    between atoms: C_2  and  C_3 
REMARK    2  A    between atoms: C_2  and  O_18 
REMARK    3  A    between atoms: C_4  and  C_5 
REMARK    4  A    between atoms: C_10  and  C_11 
REMARK    5  A    between atoms: C_11  and  O_12 
ROOT
HETATM    1  C   LIG     1      23.485  21.853  21.636  1.00  0.00     0.048 A 
HETATM    2  C   LIG     1      24.810  21.824  21.119  1.00  0.00    -0.008 A 
HETATM    3  C   LIG     1      25.679  20.784  21.490  1.00  0.00     0.013 A 
HETATM    4  C   LIG     1      25.253  19.781  22.360  1.00  0.00     0.001 A 
HETATM    5  C   LIG     1      23.961  19.808  22.878  1.00  0.00     0.001 A 
HETATM    6  C   LIG     1      23.084  20.835  22.522  1.00  0.00     0.019 A 
ENDROOT
BRANCH   2   7
HETATM    7  C   LIG     1      25.344  22.892  20.244  1.00  0.00    -0.008 A 
HETATM    8  C   LIG     1      26.096  23.917  20.844  1.00  0.00     0.013 A 
HETATM    9  C   LIG     1      26.676  24.918  20.067  1.00  0.00     0.001 A 
HETATM   10  C   LIG     1      26.522  24.905  18.683  1.00  0.00     0.001 A 
HETATM   11  C   LIG     1      25.780  23.894  18.069  1.00  0.00     0.019 A 
HETATM   12  C   LIG     1      25.174  22.878  18.832  1.00  0.00     0.048 A 
BRANCH  12  13
HETATM   13  C   LIG     1      24.366  21.850  18.127  1.00  0.00     0.177 C 
HETATM   14  O   LIG     1      24.896  20.795  17.685  1.00  0.00    -0.646 OA
BRANCH  13  15
HETATM   15  O   LIG     1      22.993  22.031  17.970  1.00  0.00    -0.773 OA
HETATM   16  H   LIG     1      22.428  22.403  18.724  1.00  0.00     0.167 HD
ENDBRANCH  13  15
ENDBRANCH  12  13
ENDBRANCH   2   7
BRANCH   1  17
HETATM   17  C   LIG     1      22.496  22.899  21.265  1.00  0.00     0.177 C 
HETATM   18  O   LIG     1      21.664  22.709  20.338  1.00  0.00    -0.646 OA
BRANCH  17  19
HETATM   19  O   LIG     1      22.461  24.102  21.967  1.00  0.00    -0.773 OA
HETATM   20  H   LIG     1      21.814  24.238  22.735  1.00  0.00     0.167 HD
ENDBRANCH  17  19
ENDBRANCH   1  17
TORSDOF 5
ENDMDL
MODEL 12
REMARK VINA RESULT:      -4.6     16.242     17.606
REMARK  5 active torsions:
REMARK  status: ('A' for Active; 'I' for Inactive)
REMARK    1  A    between atoms: C_2  and  C_3 
REMARK    2  A    between atoms: C_2  and  O_18 
REMARK    3  A    between atoms: C_4  and  C_5 
REMARK    4  A    between atoms: C_10  and  C_11 
REMARK    5  A    between atoms: C_11  and  O_12 
ROOT
HETATM    1  C   LIG     1      26.277  23.241  20.418  1.00  0.00     0.048 A 
HETATM    2  C   LIG     1      25.773  23.184  19.089  1.00  0.00    -0.008 A 
HETATM    3  C   LIG     1      25.934  24.288  18.235  1.00  0.00     0.013 A 
HETATM    4  C   LIG     1      26.582  25.440  18.681  1.00  0.00     0.001 A 
HETATM    5  C   LIG     1      27.068  25.508  19.984  1.00  0.00     0.001 A 
HETATM    6  C   LIG     1      26.916  24.420  20.847  1.00  0.00     0.019 A 
ENDROOT
BRANCH   2   7
HETATM    7  C   LIG     1      25.020  22.018  18.575  1.00  0.00    -0.008 A 
HETATM    8  C   LIG     1      23.621  22.030  18.708  1.00  0.00     0.013 A 
HETATM    9  C   LIG     1      22.850  20.990  18.191  1.00  0.00     0.001 A 
HETATM   10  C   LIG     1      23.462  19.930  17.528  1.00  0.00     0.001 A 
HETATM   11  C   LIG     1      24.851  19.902  17.384  1.00  0.00     0.019 A 
HETATM   12  C   LIG     1      25.653  20.934  17.907  1.00  0.00     0.048 A 
BRANCH  12  13
HETATM   13  C   LIG     1      27.128  20.830  17.755  1.00  0.00     0.177 C 
HETATM   14  O   LIG     1      27.708  21.264  16.724  1.00  0.00    -0.646 OA
BRANCH  13  15
HETATM   15  O   LIG     1      27.894  20.272  18.776  1.00  0.00    -0.773 OA
HETATM   16  H   LIG     1      28.897  20.415  18.812  1.00  0.00     0.167 HD
ENDBRANCH  13  15
ENDBRANCH  12  13
ENDBRANCH   2   7
BRANCH   1  17
HETATM   17  C   LIG     1      26.176  22.103  21.369  1.00  0.00     0.177 C 
HETATM   18  O   LIG     1      27.071  21.217  21.420  1.00  0.00    -0.646 OA
BRANCH  17  19
HETATM   19  O   LIG     1      25.095  22.022  22.243  1.00  0.00    -0.773 OA
HETATM   20  H   LIG     1      24.168  21.792  21.904  1.00  0.00     0.167 HD
ENDBRANCH  17  19
ENDBRANCH   1  17
TORSDOF 5
ENDMDL
MODEL 13
REMARK VINA RESULT:      -4.5     15.749     17.458
REMARK  5 active torsions:
REMARK  status: ('A' for Active; 'I' for Inactive)
REMARK    1  A    between atoms: C_2  and  C_3 
REMARK    2  A    between atoms: C_2  and  O_18 
REMARK    3  A    between atoms: C_4  and  C_5 
REMARK    4  A    between atoms: C_10  and  C_11 
REMARK    5  A    between atoms: C_11  and  O_12 
ROOT
HETATM    1  C   LIG     1      25.110  22.960  18.808  1.00  0.00     0.048 A 
HETATM    2  C   LIG     1      25.233  23.020  20.223  1.00  0.00    -0.008 A 
HETATM    3  C   LIG     1      26.021  24.024  20.811  1.00  0.00     0.013 A 
HETATM    4  C   LIG     1      26.684  24.961  20.018  1.00  0.00     0.001 A 
HETATM    5  C   LIG     1      26.576  24.902  18.631  1.00  0.00     0.001 A 
HETATM    6  C   LIG     1      25.799  23.910  18.030  1.00  0.00     0.019 A 
ENDROOT
BRANCH   2   7
HETATM    7  C   LIG     1      24.609  22.019  21.118  1.00  0.00    -0.008 A 
HETATM    8  C   LIG     1      23.340  22.312  21.647  1.00  0.00     0.013 A 
HETATM    9  C   LIG     1      22.674  21.385  22.447  1.00  0.00     0.001 A 
HETATM   10  C   LIG     1      23.261  20.152  22.722  1.00  0.00     0.001 A 
HETATM   11  C   LIG     1      24.520  19.843  22.204  1.00  0.00     0.019 A 
HETATM   12  C   LIG     1      25.218  20.767  21.403  1.00  0.00     0.048 A 
BRANCH  12  13
HETATM   13  C   LIG     1      26.571  20.396  20.911  1.00  0.00     0.177 C 
HETATM   14  O   LIG     1      27.594  20.566  21.628  1.00  0.00    -0.646 OA
BRANCH  13  15
HETATM   15  O   LIG     1      26.719  19.825  19.649  1.00  0.00    -0.773 OA
HETATM   16  H   LIG     1      27.529  19.260  19.425  1.00  0.00     0.167 HD
ENDBRANCH  13  15
ENDBRANCH  12  13
ENDBRANCH   2   7
BRANCH   1  17
HETATM   17  C   LIG     1      24.268  21.951  18.113  1.00  0.00     0.177 C 
HETATM   18  O   LIG     1      24.776  20.909  17.618  1.00  0.00    -0.646 OA
BRANCH  17  19
HETATM   19  O   LIG     1      22.890  22.135  18.027  1.00  0.00    -0.773 OA
HETATM   20  H   LIG     1      22.407  22.750  18.671  1.00  0.00     0.167 HD
ENDBRANCH  17  19
ENDBRANCH   1  17
TORSDOF 5
ENDMDL
MODEL 14
REMARK VINA RESULT:      -4.5     15.804     17.219
REMARK  5 active torsions:
REMARK  status: ('A' for Active; 'I' for Inactive)
REMARK    1  A    between atoms: C_2  and  C_3 
REMARK    2  A    between atoms: C_2  and  O_18 
REMARK    3  A    between atoms: C_4  and  C_5 
REMARK    4  A    between atoms: C_10  and  C_11 
REMARK    5  A    between atoms: C_11  and  O_12 
ROOT
HETATM    1  C   LIG     1      25.166  20.641  21.367  1.00  0.00     0.048 A 
HETATM    2  C   LIG     1      24.574  21.912  21.129  1.00  0.00    -0.008 A 
HETATM    3  C   LIG     1      23.325  22.215  21.697  1.00  0.00     0.013 A 
HETATM    4  C   LIG     1      22.661  21.280  22.490  1.00  0.00     0.001 A 
HETATM    5  C   LIG     1      23.230  20.029  22.719  1.00  0.00     0.001 A 
HETATM    6  C   LIG     1      24.470  19.711  22.162  1.00  0.00     0.019 A 
ENDROOT
BRANCH   2   7
HETATM    7  C   LIG     1      25.195  22.924  20.245  1.00  0.00    -0.008 A 
HETATM    8  C   LIG     1      25.999  23.912  20.840  1.00  0.00     0.013 A 
HETATM    9  C   LIG     1      26.659  24.856  20.057  1.00  0.00     0.001 A 
HETATM   10  C   LIG     1      26.534  24.823  18.670  1.00  0.00     0.001 A 
HETATM   11  C   LIG     1      25.741  23.848  18.060  1.00  0.00     0.019 A 
HETATM   12  C   LIG     1      25.054  22.891  18.831  1.00  0.00     0.048 A 
BRANCH  12  13
HETATM   13  C   LIG     1      24.197  21.901  18.128  1.00  0.00     0.177 C 
HETATM   14  O   LIG     1      24.689  20.859  17.616  1.00  0.00    -0.646 OA
BRANCH  13  15
HETATM   15  O   LIG     1      22.820  22.103  18.054  1.00  0.00    -0.773 OA
HETATM   16  H   LIG     1      22.393  22.931  18.450  1.00  0.00     0.167 HD
ENDBRANCH  13  15
ENDBRANCH  12  13
ENDBRANCH   2   7
BRANCH   1  17
HETATM   17  C   LIG     1      26.499  20.258  20.832  1.00  0.00     0.177 C 
HETATM   18  O   LIG     1      27.549  20.447  21.502  1.00  0.00    -0.646 OA
BRANCH  17  19
HETATM   19  O   LIG     1      26.597  19.653  19.581  1.00  0.00    -0.773 OA
HETATM   20  H   LIG     1      25.775  19.295  19.110  1.00  0.00     0.167 HD
ENDBRANCH  17  19
ENDBRANCH   1  17
TORSDOF 5
ENDMDL
MODEL 15
REMARK VINA RESULT:      -4.5     19.427     21.571
REMARK  5 active torsions:
REMARK  status: ('A' for Active; 'I' for Inactive)
REMARK    1  A    between atoms: C_2  and  C_3 
REMARK    2  A    between atoms: C_2  and  O_18 
REMARK    3  A    between atoms: C_4  and  C_5 
REMARK    4  A    between atoms: C_10  and  C_11 
REMARK    5  A    between atoms: C_11  and  O_12 
ROOT
HETATM    1  C   LIG     1      21.801  21.363  36.733  1.00  0.00     0.048 A 
HETATM    2  C   LIG     1      20.520  21.510  36.133  1.00  0.00    -0.008 A 
HETATM    3  C   LIG     1      20.014  22.796  35.880  1.00  0.00     0.013 A 
HETATM    4  C   LIG     1      20.757  23.929  36.212  1.00  0.00     0.001 A 
HETATM    5  C   LIG     1      22.008  23.793  36.808  1.00  0.00     0.001 A 
HETATM    6  C   LIG     1      22.526  22.523  37.069  1.00  0.00     0.019 A 
ENDROOT
BRANCH   2   7
HETATM    7  C   LIG     1      19.653  20.352  35.817  1.00  0.00    -0.008 A 
HETATM    8  C   LIG     1      18.776  19.897  36.816  1.00  0.00     0.013 A 
HETATM    9  C   LIG     1      17.892  18.849  36.561  1.00  0.00     0.001 A 
HETATM   10  C   LIG     1      17.866  18.249  35.305  1.00  0.00     0.001 A 
HETATM   11  C   LIG     1      18.730  18.689  34.299  1.00  0.00     0.019 A 
HETATM   12  C   LIG     1      19.639  19.737  34.535  1.00  0.00     0.048 A 
BRANCH  12  13
HETATM   13  C   LIG     1      20.559  20.137  33.438  1.00  0.00     0.177 C 
HETATM   14  O   LIG     1      20.191  20.945  32.543  1.00  0.00    -0.646 OA
BRANCH  13  15
HETATM   15  O   LIG     1      21.859  19.640  33.405  1.00  0.00    -0.773 OA
HETATM   16  H   LIG     1      22.035  18.651  33.266  1.00  0.00     0.167 HD
ENDBRANCH  13  15
ENDBRANCH  12  13
ENDBRANCH   2   7
BRANCH   1  17
HETATM   17  C   LIG     1      22.420  20.038  37.002  1.00  0.00     0.177 C 
HETATM   18  O   LIG     1      22.275  19.466  38.115  1.00  0.00    -0.646 OA
BRANCH  17  19
HETATM   19  O   LIG     1      23.148  19.396  36.003  1.00  0.00    -0.773 OA
HETATM   20  H   LIG     1      23.564  18.487  36.165  1.00  0.00     0.167 HD
ENDBRANCH  17  19
ENDBRANCH   1  17
TORSDOF 5
ENDMDL
MODEL 16
REMARK VINA RESULT:      -4.4     15.450     16.935
REMARK  5 active torsions:
REMARK  status: ('A' for Active; 'I' for Inactive)
REMARK    1  A    between atoms: C_2  and  C_3 
REMARK    2  A    between atoms: C_2  and  O_18 
REMARK    3  A    between atoms: C_4  and  C_5 
REMARK    4  A    between atoms: C_10  and  C_11 
REMARK    5  A    between atoms: C_11  and  O_12 
ROOT
HETATM    1  C   LIG     1      23.974  22.263  20.320  1.00  0.00     0.048 A 
HETATM    2  C   LIG     1      25.098  22.555  19.498  1.00  0.00    -0.008 A 
HETATM    3  C   LIG     1      25.281  21.854  18.295  1.00  0.00     0.013 A 
HETATM    4  C   LIG     1      24.371  20.874  17.900  1.00  0.00     0.001 A 
HETATM    5  C   LIG     1      23.274  20.574  18.703  1.00  0.00     0.001 A 
HETATM    6  C   LIG     1      23.077  21.260  19.904  1.00  0.00     0.019 A 
ENDROOT
BRANCH   2   7
HETATM    7  C   LIG     1      26.135  23.537  19.891  1.00  0.00    -0.008 A 
HETATM    8  C   LIG     1      26.003  24.854  19.419  1.00  0.00     0.013 A 
HETATM    9  C   LIG     1      26.913  25.839  19.801  1.00  0.00     0.001 A 
HETATM   10  C   LIG     1      27.958  25.525  20.666  1.00  0.00     0.001 A 
HETATM   11  C   LIG     1      28.104  24.222  21.147  1.00  0.00     0.019 A 
HETATM   12  C   LIG     1      27.205  23.207  20.766  1.00  0.00     0.048 A 
BRANCH  12  13
HETATM   13  C   LIG     1      27.432  21.831  21.281  1.00  0.00     0.177 C 
HETATM   14  O   LIG     1      26.993  21.477  22.409  1.00  0.00    -0.646 OA
BRANCH  13  15
HETATM   15  O   LIG     1      28.115  20.901  20.501  1.00  0.00    -0.773 OA
HETATM   16  H   LIG     1      27.737  20.587  19.615  1.00  0.00     0.167 HD
ENDBRANCH  13  15
ENDBRANCH  12  13
ENDBRANCH   2   7
BRANCH   1  17
HETATM   17  C   LIG     1      23.693  22.984  21.589  1.00  0.00     0.177 C 
HETATM   18  O   LIG     1      22.841  23.911  21.636  1.00  0.00    -0.646 OA
BRANCH  17  19
HETATM   19  O   LIG     1      24.354  22.616  22.759  1.00  0.00    -0.773 OA
HETATM   20  H   LIG     1      25.350  22.428  22.756  1.00  0.00     0.167 HD
ENDBRANCH  17  19
ENDBRANCH   1  17
TORSDOF 5
ENDMDL
MODEL 17
REMARK VINA RESULT:      -4.4     15.751     17.405
REMARK  5 active torsions:
REMARK  status: ('A' for Active; 'I' for Inactive)
REMARK    1  A    between atoms: C_2  and  C_3 
REMARK    2  A    between atoms: C_2  and  O_18 
REMARK    3  A    between atoms: C_4  and  C_5 
REMARK    4  A    between atoms: C_10  and  C_11 
REMARK    5  A    between atoms: C_11  and  O_12 
ROOT
HETATM    1  C   LIG     1      26.971  22.389  19.138  1.00  0.00     0.048 A 
HETATM    2  C   LIG     1      25.875  23.110  19.688  1.00  0.00    -0.008 A 
HETATM    3  C   LIG     1      25.668  24.450  19.318  1.00  0.00     0.013 A 
HETATM    4  C   LIG     1      26.527  25.077  18.417  1.00  0.00     0.001 A 
HETATM    5  C   LIG     1      27.608  24.381  17.881  1.00  0.00     0.001 A 
HETATM    6  C   LIG     1      27.830  23.049  18.239  1.00  0.00     0.019 A 
ENDROOT
BRANCH   2   7
HETATM    7  C   LIG     1      24.965  22.523  20.698  1.00  0.00    -0.008 A 
HETATM    8  C   LIG     1      25.224  22.798  22.052  1.00  0.00     0.013 A 
HETATM    9  C   LIG     1      24.370  22.325  23.047  1.00  0.00     0.001 A 
HETATM   10  C   LIG     1      23.244  21.581  22.705  1.00  0.00     0.001 A 
HETATM   11  C   LIG     1      22.970  21.300  21.365  1.00  0.00     0.019 A 
HETATM   12  C   LIG     1      23.823  21.756  20.342  1.00  0.00     0.048 A 
BRANCH  12  13
HETATM   13  C   LIG     1      23.499  21.395  18.937  1.00  0.00     0.177 C 
HETATM   14  O   LIG     1      23.872  20.295  18.445  1.00  0.00    -0.646 OA
BRANCH  13  15
HETATM   15  O   LIG     1      22.748  22.265  18.151  1.00  0.00    -0.773 OA
HETATM   16  H   LIG     1      22.836  22.263  17.141  1.00  0.00     0.167 HD
ENDBRANCH  13  15
ENDBRANCH  12  13
ENDBRANCH   2   7
BRANCH   1  17
HETATM   17  C   LIG     1      27.237  20.961  19.453  1.00  0.00     0.177 C 
HETATM   18  O   LIG     1      27.880  20.631  20.484  1.00  0.00    -0.646 OA
BRANCH  17  19
HETATM   19  O   LIG     1      26.745  19.961  18.616  1.00  0.00    -0.773 OA
HETATM   20  H   LIG     1      25.934  19.414  18.879  1.00  0.00     0.167 HD
ENDBRANCH  17  19
ENDBRANCH   1  17
TORSDOF 5
ENDMDL
MODEL 18
REMARK VINA RESULT:      -4.4     18.489     20.803
REMARK  5 active torsions:
REMARK  status: ('A' for Active; 'I' for Inactive)
REMARK    1  A    between atoms: C_2  and  C_3 
REMARK    2  A    between atoms: C_2  and  O_18 
REMARK    3  A    between atoms: C_4  and  C_5 
REMARK    4  A    between atoms: C_10  and  C_11 
REMARK    5  A    between atoms: C_11  and  O_12 
ROOT
HETATM    1  C   LIG     1      20.630  22.574  35.375  1.00  0.00     0.048 A 
HETATM    2  C   LIG     1      20.673  21.284  35.974  1.00  0.00    -0.008 A 
HETATM    3  C   LIG     1      21.642  21.003  36.952  1.00  0.00     0.013 A 
HETATM    4  C   LIG     1      22.562  21.978  37.339  1.00  0.00     0.001 A 
HETATM    5  C   LIG     1      22.533  23.239  36.750  1.00  0.00     0.001 A 
HETATM    6  C   LIG     1      21.578  23.535  35.775  1.00  0.00     0.019 A 
ENDROOT
BRANCH   2   7
HETATM    7  C   LIG     1      19.768  20.187  35.562  1.00  0.00    -0.008 A 
HETATM    8  C   LIG     1      18.620  19.958  36.339  1.00  0.00     0.013 A 
HETATM    9  C   LIG     1      17.698  18.979  35.969  1.00  0.00     0.001 A 
HETATM   10  C   LIG     1      17.905  18.224  34.818  1.00  0.00     0.001 A 
HETATM   11  C   LIG     1      19.041  18.439  34.033  1.00  0.00     0.019 A 
HETATM   12  C   LIG     1      19.992  19.413  34.391  1.00  0.00     0.048 A 
BRANCH  12  13
HETATM   13  C   LIG     1      21.198  19.571  33.537  1.00  0.00     0.177 C 
HETATM   14  O   LIG     1      21.169  20.280  32.494  1.00  0.00    -0.646 OA
BRANCH  13  15
HETATM   15  O   LIG     1      22.393  18.954  33.900  1.00  0.00    -0.773 OA
HETATM   16  H   LIG     1      22.641  18.833  34.875  1.00  0.00     0.167 HD
ENDBRANCH  13  15
ENDBRANCH  12  13
ENDBRANCH   2   7
BRANCH   1  17
HETATM   17  C   LIG     1      19.615  22.959  34.360  1.00  0.00     0.177 C 
HETATM   18  O   LIG     1      18.459  23.326  34.702  1.00  0.00    -0.646 OA
BRANCH  17  19
HETATM   19  O   LIG     1      19.946  22.946  33.007  1.00  0.00    -0.773 OA
HETATM   20  H   LIG     1      19.324  23.349  32.315  1.00  0.00     0.167 HD
ENDBRANCH  17  19
ENDBRANCH   1  17
TORSDOF 5
ENDMDL
MODEL 19
REMARK VINA RESULT:      -4.3     16.896     18.682
REMARK  5 active torsions:
REMARK  status: ('A' for Active; 'I' for Inactive)
REMARK    1  A    between atoms: C_2  and  C_3 
REMARK    2  A    between atoms: C_2  and  O_18 
REMARK    3  A    between atoms: C_4  and  C_5 
REMARK    4  A    between atoms: C_10  and  C_11 
REMARK    5  A    between atoms: C_11  and  O_12 
ROOT
HETATM    1  C   LIG     1      28.307  26.317  33.285  1.00  0.00     0.048 A 
HETATM    2  C   LIG     1      27.593  27.421  32.743  1.00  0.00    -0.008 A 
HETATM    3  C   LIG     1      27.030  27.323  31.459  1.00  0.00     0.013 A 
HETATM    4  C   LIG     1      27.166  26.153  30.713  1.00  0.00     0.001 A 
HETATM    5  C   LIG     1      27.872  25.071  31.233  1.00  0.00     0.001 A 
HETATM    6  C   LIG     1      28.440  25.152  32.506  1.00  0.00     0.019 A 
ENDROOT
BRANCH   2   7
HETATM    7  C   LIG     1      27.468  28.713  33.455  1.00  0.00    -0.008 A 
HETATM    8  C   LIG     1      26.370  28.884  34.316  1.00  0.00     0.013 A 
HETATM    9  C   LIG     1      26.229  30.054  35.061  1.00  0.00     0.001 A 
HETATM   10  C   LIG     1      27.183  31.063  34.963  1.00  0.00     0.001 A 
HETATM   11  C   LIG     1      28.281  30.910  34.114  1.00  0.00     0.019 A 
HETATM   12  C   LIG     1      28.441  29.744  33.343  1.00  0.00     0.048 A 
BRANCH  12  13
HETATM   13  C   LIG     1      29.610  29.653  32.430  1.00  0.00     0.177 C 
HETATM   14  O   LIG     1      30.684  29.106  32.799  1.00  0.00    -0.646 OA
BRANCH  13  15
HETATM   15  O   LIG     1      29.520  30.154  31.133  1.00  0.00    -0.773 OA
HETATM   16  H   LIG     1      28.640  30.142  30.630  1.00  0.00     0.167 HD
ENDBRANCH  13  15
ENDBRANCH  12  13
ENDBRANCH   2   7
BRANCH   1  17
HETATM   17  C   LIG     1      28.901  26.331  34.648  1.00  0.00     0.177 C 
HETATM   18  O   LIG     1      28.295  25.821  35.627  1.00  0.00    -0.646 OA
BRANCH  17  19
HETATM   19  O   LIG     1      30.162  26.888  34.850  1.00  0.00    -0.773 OA
HETATM   20  H   LIG     1      30.637  27.385  34.106  1.00  0.00     0.167 HD
ENDBRANCH  17  19
ENDBRANCH   1  17
TORSDOF 5
ENDMDL
MODEL 20
REMARK VINA RESULT:      -4.3     15.875     17.432
REMARK  5 active torsions:
REMARK  status: ('A' for Active; 'I' for Inactive)
REMARK    1  A    between atoms: C_2  and  C_3 
REMARK    2  A    between atoms: C_2  and  O_18 
REMARK    3  A    between atoms: C_4  and  C_5 
REMARK    4  A    between atoms: C_10  and  C_11 
REMARK    5  A    between atoms: C_11  and  O_12 
ROOT
HETATM    1  C   LIG     1      27.601  23.371  18.353  1.00  0.00     0.048 A 
HETATM    2  C   LIG     1      26.343  23.789  18.869  1.00  0.00    -0.008 A 
HETATM    3  C   LIG     1      26.139  25.140  19.195  1.00  0.00     0.013 A 
HETATM    4  C   LIG     1      27.160  26.074  19.017  1.00  0.00     0.001 A 
HETATM    5  C   LIG     1      28.397  25.671  18.522  1.00  0.00     0.001 A 
HETATM    6  C   LIG     1      28.618  24.331  18.195  1.00  0.00     0.019 A 
ENDROOT
BRANCH   2   7
HETATM    7  C   LIG     1      25.241  22.838  19.142  1.00  0.00    -0.008 A 
HETATM    8  C   LIG     1      24.317  22.593  18.113  1.00  0.00     0.013 A 
HETATM    9  C   LIG     1      23.292  21.664  18.287  1.00  0.00     0.001 A 
HETATM   10  C   LIG     1      23.182  20.962  19.485  1.00  0.00     0.001 A 
HETATM   11  C   LIG     1      24.093  21.192  20.518  1.00  0.00     0.019 A 
HETATM   12  C   LIG     1      25.130  22.133  20.371  1.00  0.00     0.048 A 
BRANCH  12  13
HETATM   13  C   LIG     1      26.046  22.361  21.519  1.00  0.00     0.177 C 
HETATM   14  O   LIG     1      25.727  23.132  22.464  1.00  0.00    -0.646 OA
BRANCH  13  15
HETATM   15  O   LIG     1      27.268  21.695  21.575  1.00  0.00    -0.773 OA
HETATM   16  H   LIG     1      28.114  22.127  21.223  1.00  0.00     0.167 HD
ENDBRANCH  13  15
ENDBRANCH  12  13
ENDBRANCH   2   7
BRANCH   1  17
HETATM   17  C   LIG     1      27.884  21.967  17.953  1.00  0.00     0.177 C 
HETATM   18  O   LIG     1      27.781  21.599  16.753  1.00  0.00    -0.646 OA
BRANCH  17  19
HETATM   19  O   LIG     1      28.298  21.042  18.909  1.00  0.00    -0.773 OA
HETATM   20  H   LIG     1      29.194  20.577  18.828  1.00  0.00     0.167 HD
ENDBRANCH  17  19
ENDBRANCH   1  17
TORSDOF 5
ENDMDL
