REMARK  3 active torsions:
REMARK  status: ('A' for Active; 'I' for Inactive)
REMARK    1  A    between atoms: C_10  and  O_11 
REMARK    2  A    between atoms: C_13  and  C_14 
REMARK    3  A    between atoms: C_14  and  C_15 
ROOT
HETATM    1  O   LIG     1       0.645  -3.731  -1.883  1.00  0.00    -0.260 OA
HETATM    2  C   LIG     1      -0.261  -2.955  -1.480  1.00  0.00     0.288 A 
HETATM    3  O   LIG     1       0.030  -1.686  -1.212  1.00  0.00    -0.274 OA
HETATM    4  C   LIG     1      -0.877  -0.810  -0.781  1.00  0.00     0.099 A 
HETATM    5  C   LIG     1      -2.214  -1.224  -0.590  1.00  0.00    -0.001 A 
HETATM    6  C   LIG     1      -2.550  -2.554  -0.866  1.00  0.00     0.020 A 
HETATM    7  C   LIG     1      -1.565  -3.431  -1.315  1.00  0.00     0.083 A 
HETATM    8  C   LIG     1      -3.169  -0.316  -0.128  1.00  0.00     0.017 A 
HETATM    9  C   LIG     1      -2.803   1.000   0.156  1.00  0.00     0.038 A 
HETATM   10  C   LIG     1      -1.474   1.432  -0.024  1.00  0.00     0.077 A 
HETATM   11  C   LIG     1      -0.508   0.525  -0.514  1.00  0.00     0.013 A 
ENDROOT
BRANCH  11  12
HETATM   12  C   LIG     1       0.929   0.962  -0.686  1.00  0.00     0.072 C 
BRANCH  12  13
HETATM   13  C   LIG     1       1.683   0.755   0.605  1.00  0.00    -0.020 C 
HETATM   14  C   LIG     1       2.796  -0.000   0.742  1.00  0.00    -0.091 C 
HETATM   15  C   LIG     1       3.423  -0.728  -0.423  1.00  0.00     0.042 C 
HETATM   16  C   LIG     1       3.427  -0.105   2.106  1.00  0.00     0.042 C 
ENDBRANCH  12  13
ENDBRANCH  11  12
BRANCH  10  17
HETATM   17  O   LIG     1      -1.082   2.748   0.277  1.00  0.00    -0.355 OA
HETATM   18  C   LIG     1      -1.950   3.756   0.785  1.00  0.00     0.210 C 
ENDBRANCH  10  17
TORSDOF 3
