REMARK  4 active torsions:
REMARK  status: ('A' for Active; 'I' for Inactive)
REMARK       I    between atoms: C_2  and  N_6 
REMARK       I    between atoms: C_2  and  N_3 
REMARK    1  A    between atoms: N_6  and  C_7 
REMARK    2  A    between atoms: C_9  and  O_10 
REMARK    3  A    between atoms: O_10  and  C_11 
REMARK       I    between atoms: C_11  and  N_12 
REMARK    4  A    between atoms: N_12  and  C_13 
ROOT
HETATM    1  C   LIG     1      -1.810   0.756  -0.558  1.00  0.00     0.039 A 
HETATM    2  C   LIG     1      -0.523   0.208  -0.432  1.00  0.00     0.067 A 
HETATM    3  C   LIG     1       0.593   1.032  -0.241  1.00  0.00     0.083 A 
HETATM    4  C   LIG     1       0.414   2.425  -0.157  1.00  0.00     0.037 A 
HETATM    5  C   LIG     1      -0.861   2.978  -0.302  1.00  0.00     0.005 A 
HETATM    6  C   LIG     1      -1.967   2.152  -0.513  1.00  0.00     0.030 A 
ENDROOT
BRANCH   3   7
HETATM    7  O   LIG     1       1.850   0.428  -0.097  1.00  0.00    -0.262 OA
BRANCH   7   8
HETATM    8  C   LIG     1       3.078   1.013  -0.430  1.00  0.00     0.366 C 
HETATM    9  N   LIG     1       4.310   0.448   0.047  1.00  0.00    -0.329 N 
HETATM   10  H   LIG     1       5.189   0.919  -0.271  1.00  0.00     0.165 HD
HETATM   11  O   LIG     1       3.121   2.014  -1.195  1.00  0.00    -0.238 OA
BRANCH   9  12
HETATM   12  C   LIG     1       4.415  -0.716   0.948  1.00  0.00     0.024 C 
HETATM   13  C   LIG     1       5.905  -0.987   1.243  1.00  0.00     0.037 C 
HETATM   14  C   LIG     1       3.816  -1.968   0.277  1.00  0.00     0.037 C 
HETATM   15  C   LIG     1       3.699  -0.426   2.281  1.00  0.00     0.037 C 
ENDBRANCH   9  12
ENDBRANCH   7   8
ENDBRANCH   3   7
BRANCH   1  16
HETATM   16  N   LIG     1      -2.929  -0.118  -0.786  1.00  0.00    -0.309 N 
HETATM   17  C   LIG     1      -4.262   0.153  -0.316  1.00  0.00     0.322 C 
HETATM   18  O   LIG     1      -4.436   0.988   0.615  1.00  0.00    -0.247 OA
HETATM   19  N   LIG     1      -5.400  -0.540  -0.871  1.00  0.00    -0.343 N 
HETATM   20  C   LIG     1      -6.731  -0.302  -0.301  1.00  0.00     0.154 C 
HETATM   21  C   LIG     1      -5.240  -1.442  -2.015  1.00  0.00     0.154 C 
HETATM   22  H   LIG     1      -2.735  -1.043  -1.230  1.00  0.00     0.170 HD
ENDBRANCH   1  16
TORSDOF 4
