MODEL 1
REMARK VINA RESULT:      -7.3      0.000      0.000
REMARK  4 active torsions:
REMARK  status: ('A' for Active; 'I' for Inactive)
REMARK       I    between atoms: C_2  and  N_6 
REMARK       I    between atoms: C_2  and  N_3 
REMARK    1  A    between atoms: N_6  and  C_7 
REMARK    2  A    between atoms: C_9  and  O_10 
REMARK    3  A    between atoms: O_10  and  C_11 
REMARK       I    between atoms: C_11  and  N_12 
REMARK    4  A    between atoms: N_12  and  C_13 
ROOT
HETATM    1  C   LIG     1      15.708  32.678  15.999  1.00  0.00     0.039 A 
HETATM    2  C   LIG     1      16.755  33.282  15.283  1.00  0.00     0.067 A 
HETATM    3  C   LIG     1      17.082  32.854  13.991  1.00  0.00     0.083 A 
HETATM    4  C   LIG     1      16.337  31.817  13.399  1.00  0.00     0.037 A 
HETATM    5  C   LIG     1      15.307  31.199  14.114  1.00  0.00     0.005 A 
HETATM    6  C   LIG     1      15.000  31.617  15.410  1.00  0.00     0.030 A 
ENDROOT
BRANCH   3   7
HETATM    7  O   LIG     1      18.121  33.510  13.315  1.00  0.00    -0.262 OA
BRANCH   7   8
HETATM    8  C   LIG     1      17.960  34.447  12.287  1.00  0.00     0.366 C 
HETATM    9  N   LIG     1      18.915  34.530  11.217  1.00  0.00    -0.329 N 
HETATM   10  H   LIG     1      18.711  35.231  10.467  1.00  0.00     0.165 HD
HETATM   11  O   LIG     1      16.946  35.197  12.260  1.00  0.00    -0.238 OA
BRANCH   9  12
HETATM   12  C   LIG     1      20.146  33.722  11.116  1.00  0.00     0.024 C 
HETATM   13  C   LIG     1      21.040  34.310  10.005  1.00  0.00     0.037 C 
HETATM   14  C   LIG     1      19.802  32.266  10.745  1.00  0.00     0.037 C 
HETATM   15  C   LIG     1      20.926  33.769  12.444  1.00  0.00     0.037 C 
ENDBRANCH   9  12
ENDBRANCH   7   8
ENDBRANCH   3   7
BRANCH   1  16
HETATM   16  N   LIG     1      15.421  33.122  17.336  1.00  0.00    -0.309 N 
HETATM   17  C   LIG     1      14.870  32.271  18.358  1.00  0.00     0.322 C 
HETATM   18  O   LIG     1      14.287  31.200  18.029  1.00  0.00    -0.247 OA
HETATM   19  N   LIG     1      14.946  32.639  19.751  1.00  0.00    -0.343 N 
HETATM   20  C   LIG     1      14.291  31.790  20.753  1.00  0.00     0.154 C 
HETATM   21  C   LIG     1      15.698  33.825  20.170  1.00  0.00     0.154 C 
HETATM   22  H   LIG     1      15.528  34.140  17.539  1.00  0.00     0.170 HD
ENDBRANCH   1  16
TORSDOF 4
ENDMDL
MODEL 2
REMARK VINA RESULT:      -7.2      3.194      8.050
REMARK  4 active torsions:
REMARK  status: ('A' for Active; 'I' for Inactive)
REMARK       I    between atoms: C_2  and  N_6 
REMARK       I    between atoms: C_2  and  N_3 
REMARK    1  A    between atoms: N_6  and  C_7 
REMARK    2  A    between atoms: C_9  and  O_10 
REMARK    3  A    between atoms: O_10  and  C_11 
REMARK       I    between atoms: C_11  and  N_12 
REMARK    4  A    between atoms: N_12  and  C_13 
ROOT
HETATM    1  C   LIG     1      15.185  32.781  17.858  1.00  0.00     0.039 A 
HETATM    2  C   LIG     1      15.485  34.085  18.283  1.00  0.00     0.067 A 
HETATM    3  C   LIG     1      15.523  34.405  19.646  1.00  0.00     0.083 A 
HETATM    4  C   LIG     1      15.274  33.399  20.597  1.00  0.00     0.037 A 
HETATM    5  C   LIG     1      14.955  32.104  20.180  1.00  0.00     0.005 A 
HETATM    6  C   LIG     1      14.898  31.796  18.819  1.00  0.00     0.030 A 
ENDROOT
BRANCH   3   7
HETATM    7  O   LIG     1      15.853  35.718  20.013  1.00  0.00    -0.262 OA
BRANCH   7   8
HETATM    8  C   LIG     1      17.152  36.220  20.161  1.00  0.00     0.366 C 
HETATM    9  N   LIG     1      17.633  36.634  21.450  1.00  0.00    -0.329 N 
HETATM   10  H   LIG     1      18.625  36.967  21.489  1.00  0.00     0.165 HD
HETATM   11  O   LIG     1      17.933  36.269  19.173  1.00  0.00    -0.238 OA
BRANCH   9  12
HETATM   12  C   LIG     1      16.835  36.636  22.691  1.00  0.00     0.024 C 
HETATM   13  C   LIG     1      17.429  37.675  23.666  1.00  0.00     0.037 C 
HETATM   14  C   LIG     1      16.888  35.251  23.364  1.00  0.00     0.037 C 
HETATM   15  C   LIG     1      15.376  37.031  22.388  1.00  0.00     0.037 C 
ENDBRANCH   9  12
ENDBRANCH   7   8
ENDBRANCH   3   7
BRANCH   1  16
HETATM   16  N   LIG     1      15.122  32.496  16.449  1.00  0.00    -0.309 N 
HETATM   17  C   LIG     1      16.069  33.001  15.490  1.00  0.00     0.322 C 
HETATM   18  O   LIG     1      16.784  33.999  15.787  1.00  0.00    -0.247 OA
HETATM   19  N   LIG     1      16.189  32.405  14.181  1.00  0.00    -0.343 N 
HETATM   20  C   LIG     1      17.100  33.008  13.201  1.00  0.00     0.154 C 
HETATM   21  C   LIG     1      15.442  31.191  13.842  1.00  0.00     0.154 C 
HETATM   22  H   LIG     1      14.287  31.977  16.100  1.00  0.00     0.170 HD
ENDBRANCH   1  16
TORSDOF 4
ENDMDL
MODEL 3
REMARK VINA RESULT:      -6.7      5.343      9.742
REMARK  4 active torsions:
REMARK  status: ('A' for Active; 'I' for Inactive)
REMARK       I    between atoms: C_2  and  N_6 
REMARK       I    between atoms: C_2  and  N_3 
REMARK    1  A    between atoms: N_6  and  C_7 
REMARK    2  A    between atoms: C_9  and  O_10 
REMARK    3  A    between atoms: O_10  and  C_11 
REMARK       I    between atoms: C_11  and  N_12 
REMARK    4  A    between atoms: N_12  and  C_13 
ROOT
HETATM    1  C   LIG     1      17.027  35.824  20.071  1.00  0.00     0.039 A 
HETATM    2  C   LIG     1      17.018  36.621  21.228  1.00  0.00     0.067 A 
HETATM    3  C   LIG     1      17.869  37.726  21.347  1.00  0.00     0.083 A 
HETATM    4  C   LIG     1      18.731  38.048  20.282  1.00  0.00     0.037 A 
HETATM    5  C   LIG     1      18.760  37.248  19.137  1.00  0.00     0.005 A 
HETATM    6  C   LIG     1      17.923  36.136  19.034  1.00  0.00     0.030 A 
ENDROOT
BRANCH   3   7
HETATM    7  O   LIG     1      17.799  38.499  22.514  1.00  0.00    -0.262 OA
BRANCH   7   8
HETATM    8  C   LIG     1      16.664  38.656  23.320  1.00  0.00     0.366 C 
HETATM    9  N   LIG     1      16.594  38.034  24.613  1.00  0.00    -0.329 N 
HETATM   10  H   LIG     1      15.730  38.224  25.173  1.00  0.00     0.165 HD
HETATM   11  O   LIG     1      15.709  39.387  22.942  1.00  0.00    -0.238 OA
BRANCH   9  12
HETATM   12  C   LIG     1      17.630  37.152  25.186  1.00  0.00     0.024 C 
HETATM   13  C   LIG     1      17.492  37.151  26.722  1.00  0.00     0.037 C 
HETATM   14  C   LIG     1      19.035  37.672  24.824  1.00  0.00     0.037 C 
HETATM   15  C   LIG     1      17.443  35.709  24.678  1.00  0.00     0.037 C 
ENDBRANCH   9  12
ENDBRANCH   7   8
ENDBRANCH   3   7
BRANCH   1  16
HETATM   16  N   LIG     1      16.163  34.678  19.997  1.00  0.00    -0.309 N 
HETATM   17  C   LIG     1      15.629  34.159  18.766  1.00  0.00     0.322 C 
HETATM   18  O   LIG     1      15.608  34.893  17.738  1.00  0.00    -0.247 OA
HETATM   19  N   LIG     1      15.086  32.823  18.696  1.00  0.00    -0.343 N 
HETATM   20  C   LIG     1      14.469  32.366  17.446  1.00  0.00     0.154 C 
HETATM   21  C   LIG     1      15.184  31.917  19.844  1.00  0.00     0.154 C 
HETATM   22  H   LIG     1      15.829  34.267  20.898  1.00  0.00     0.170 HD
ENDBRANCH   1  16
TORSDOF 4
ENDMDL
MODEL 4
REMARK VINA RESULT:      -6.6      1.598      7.500
REMARK  4 active torsions:
REMARK  status: ('A' for Active; 'I' for Inactive)
REMARK       I    between atoms: C_2  and  N_6 
REMARK       I    between atoms: C_2  and  N_3 
REMARK    1  A    between atoms: N_6  and  C_7 
REMARK    2  A    between atoms: C_9  and  O_10 
REMARK    3  A    between atoms: O_10  and  C_11 
REMARK       I    between atoms: C_11  and  N_12 
REMARK    4  A    between atoms: N_12  and  C_13 
ROOT
HETATM    1  C   LIG     1      16.408  32.416  13.472  1.00  0.00     0.039 A 
HETATM    2  C   LIG     1      16.037  32.736  14.788  1.00  0.00     0.067 A 
HETATM    3  C   LIG     1      15.221  31.876  15.533  1.00  0.00     0.083 A 
HETATM    4  C   LIG     1      14.784  30.669  14.957  1.00  0.00     0.037 A 
HETATM    5  C   LIG     1      15.133  30.355  13.641  1.00  0.00     0.005 A 
HETATM    6  C   LIG     1      15.931  31.226  12.896  1.00  0.00     0.030 A 
ENDROOT
BRANCH   3   7
HETATM    7  O   LIG     1      14.903  32.235  16.851  1.00  0.00    -0.262 OA
BRANCH   7   8
HETATM    8  C   LIG     1      13.932  31.620  17.651  1.00  0.00     0.366 C 
HETATM    9  N   LIG     1      13.974  31.751  19.082  1.00  0.00    -0.329 N 
HETATM   10  H   LIG     1      13.197  31.293  19.612  1.00  0.00     0.165 HD
HETATM   11  O   LIG     1      12.979  30.986  17.124  1.00  0.00    -0.238 OA
BRANCH   9  12
HETATM   12  C   LIG     1      15.026  32.459  19.837  1.00  0.00     0.024 C 
HETATM   13  C   LIG     1      16.232  31.514  20.020  1.00  0.00     0.037 C 
HETATM   14  C   LIG     1      14.506  32.861  21.231  1.00  0.00     0.037 C 
HETATM   15  C   LIG     1      15.497  33.703  19.059  1.00  0.00     0.037 C 
ENDBRANCH   9  12
ENDBRANCH   7   8
ENDBRANCH   3   7
BRANCH   1  16
HETATM   16  N   LIG     1      17.221  33.337  12.725  1.00  0.00    -0.309 N 
HETATM   17  C   LIG     1      18.633  33.514  12.943  1.00  0.00     0.322 C 
HETATM   18  O   LIG     1      19.148  33.130  14.030  1.00  0.00    -0.247 OA
HETATM   19  N   LIG     1      19.463  34.154  11.950  1.00  0.00    -0.343 N 
HETATM   20  C   LIG     1      20.878  34.397  12.250  1.00  0.00     0.154 C 
HETATM   21  C   LIG     1      18.913  34.523  10.643  1.00  0.00     0.154 C 
HETATM   22  H   LIG     1      16.735  33.979  12.061  1.00  0.00     0.170 HD
ENDBRANCH   1  16
TORSDOF 4
ENDMDL
MODEL 5
REMARK VINA RESULT:      -6.5      1.772      7.575
REMARK  4 active torsions:
REMARK  status: ('A' for Active; 'I' for Inactive)
REMARK       I    between atoms: C_2  and  N_6 
REMARK       I    between atoms: C_2  and  N_3 
REMARK    1  A    between atoms: N_6  and  C_7 
REMARK    2  A    between atoms: C_9  and  O_10 
REMARK    3  A    between atoms: O_10  and  C_11 
REMARK       I    between atoms: C_11  and  N_12 
REMARK    4  A    between atoms: N_12  and  C_13 
ROOT
HETATM    1  C   LIG     1      16.424  32.232  15.080  1.00  0.00     0.039 A 
HETATM    2  C   LIG     1      16.305  32.886  16.317  1.00  0.00     0.067 A 
HETATM    3  C   LIG     1      15.216  32.635  17.160  1.00  0.00     0.083 A 
HETATM    4  C   LIG     1      14.240  31.701  16.766  1.00  0.00     0.037 A 
HETATM    5  C   LIG     1      14.342  31.062  15.527  1.00  0.00     0.005 A 
HETATM    6  C   LIG     1      15.420  31.332  14.682  1.00  0.00     0.030 A 
ENDROOT
BRANCH   3   7
HETATM    7  O   LIG     1      15.162  33.299  18.394  1.00  0.00    -0.262 OA
BRANCH   7   8
HETATM    8  C   LIG     1      15.274  32.692  19.651  1.00  0.00     0.366 C 
HETATM    9  N   LIG     1      15.591  33.473  20.814  1.00  0.00    -0.329 N 
HETATM   10  H   LIG     1      15.623  32.957  21.724  1.00  0.00     0.165 HD
HETATM   11  O   LIG     1      15.047  31.459  19.787  1.00  0.00    -0.238 OA
BRANCH   9  12
HETATM   12  C   LIG     1      15.883  34.920  20.809  1.00  0.00     0.024 C 
HETATM   13  C   LIG     1      17.001  35.208  21.833  1.00  0.00     0.037 C 
HETATM   14  C   LIG     1      14.630  35.720  21.218  1.00  0.00     0.037 C 
HETATM   15  C   LIG     1      16.372  35.361  19.416  1.00  0.00     0.037 C 
ENDBRANCH   9  12
ENDBRANCH   7   8
ENDBRANCH   3   7
BRANCH   1  16
HETATM   16  N   LIG     1      17.538  32.538  14.225  1.00  0.00    -0.309 N 
HETATM   17  C   LIG     1      17.452  33.410  13.083  1.00  0.00     0.322 C 
HETATM   18  O   LIG     1      16.324  33.662  12.576  1.00  0.00    -0.247 OA
HETATM   19  N   LIG     1      18.641  33.975  12.489  1.00  0.00    -0.343 N 
HETATM   20  C   LIG     1      18.517  34.784  11.271  1.00  0.00     0.154 C 
HETATM   21  C   LIG     1      19.953  33.777  13.111  1.00  0.00     0.154 C 
HETATM   22  H   LIG     1      18.429  32.018  14.389  1.00  0.00     0.170 HD
ENDBRANCH   1  16
TORSDOF 4
ENDMDL
MODEL 6
REMARK VINA RESULT:      -6.5      5.483      8.276
REMARK  4 active torsions:
REMARK  status: ('A' for Active; 'I' for Inactive)
REMARK       I    between atoms: C_2  and  N_6 
REMARK       I    between atoms: C_2  and  N_3 
REMARK    1  A    between atoms: N_6  and  C_7 
REMARK    2  A    between atoms: C_9  and  O_10 
REMARK    3  A    between atoms: O_10  and  C_11 
REMARK       I    between atoms: C_11  and  N_12 
REMARK    4  A    between atoms: N_12  and  C_13 
ROOT
HETATM    1  C   LIG     1      16.158  34.988  21.973  1.00  0.00     0.039 A 
HETATM    2  C   LIG     1      16.424  36.223  21.358  1.00  0.00     0.067 A 
HETATM    3  C   LIG     1      17.065  37.251  22.060  1.00  0.00     0.083 A 
HETATM    4  C   LIG     1      17.460  37.033  23.393  1.00  0.00     0.037 A 
HETATM    5  C   LIG     1      17.179  35.815  24.017  1.00  0.00     0.005 A 
HETATM    6  C   LIG     1      16.522  34.800  23.318  1.00  0.00     0.030 A 
ENDROOT
BRANCH   3   7
HETATM    7  O   LIG     1      17.327  38.453  21.388  1.00  0.00    -0.262 OA
BRANCH   7   8
HETATM    8  C   LIG     1      18.410  39.306  21.636  1.00  0.00     0.366 C 
HETATM    9  N   LIG     1      19.457  39.459  20.664  1.00  0.00    -0.329 N 
HETATM   10  H   LIG     1      20.216  40.139  20.904  1.00  0.00     0.165 HD
HETATM   11  O   LIG     1      18.455  39.989  22.695  1.00  0.00    -0.238 OA
BRANCH   9  12
HETATM   12  C   LIG     1      19.540  38.727  19.386  1.00  0.00     0.024 C 
HETATM   13  C   LIG     1      20.943  38.936  18.779  1.00  0.00     0.037 C 
HETATM   14  C   LIG     1      18.494  39.267  18.390  1.00  0.00     0.037 C 
HETATM   15  C   LIG     1      19.330  37.219  19.620  1.00  0.00     0.037 C 
ENDBRANCH   9  12
ENDBRANCH   7   8
ENDBRANCH   3   7
BRANCH   1  16
HETATM   16  N   LIG     1      15.469  33.966  21.232  1.00  0.00    -0.309 N 
HETATM   17  C   LIG     1      15.537  33.836  19.801  1.00  0.00     0.322 C 
HETATM   18  O   LIG     1      15.914  34.818  19.103  1.00  0.00    -0.247 OA
HETATM   19  N   LIG     1      15.148  32.608  19.148  1.00  0.00    -0.343 N 
HETATM   20  C   LIG     1      15.144  32.547  17.682  1.00  0.00     0.154 C 
HETATM   21  C   LIG     1      14.798  31.422  19.935  1.00  0.00     0.154 C 
HETATM   22  H   LIG     1      14.808  33.353  21.759  1.00  0.00     0.170 HD
ENDBRANCH   1  16
TORSDOF 4
ENDMDL
MODEL 7
REMARK VINA RESULT:      -6.1      4.724      7.798
REMARK  4 active torsions:
REMARK  status: ('A' for Active; 'I' for Inactive)
REMARK       I    between atoms: C_2  and  N_6 
REMARK       I    between atoms: C_2  and  N_3 
REMARK    1  A    between atoms: N_6  and  C_7 
REMARK    2  A    between atoms: C_9  and  O_10 
REMARK    3  A    between atoms: O_10  and  C_11 
REMARK       I    between atoms: C_11  and  N_12 
REMARK    4  A    between atoms: N_12  and  C_13 
ROOT
HETATM    1  C   LIG     1      17.316  36.865  21.688  1.00  0.00     0.039 A 
HETATM    2  C   LIG     1      16.447  35.995  21.010  1.00  0.00     0.067 A 
HETATM    3  C   LIG     1      16.644  35.693  19.657  1.00  0.00     0.083 A 
HETATM    4  C   LIG     1      17.739  36.257  18.978  1.00  0.00     0.037 A 
HETATM    5  C   LIG     1      18.596  37.140  19.641  1.00  0.00     0.005 A 
HETATM    6  C   LIG     1      18.382  37.453  20.985  1.00  0.00     0.030 A 
ENDROOT
BRANCH   3   7
HETATM    7  O   LIG     1      15.758  34.799  19.039  1.00  0.00    -0.262 OA
BRANCH   7   8
HETATM    8  C   LIG     1      15.441  33.516  19.501  1.00  0.00     0.366 C 
HETATM    9  N   LIG     1      14.921  32.523  18.602  1.00  0.00    -0.329 N 
HETATM   10  H   LIG     1      14.739  31.577  19.012  1.00  0.00     0.165 HD
HETATM   11  O   LIG     1      15.655  33.199  20.702  1.00  0.00    -0.238 OA
BRANCH   9  12
HETATM   12  C   LIG     1      14.617  32.748  17.175  1.00  0.00     0.024 C 
HETATM   13  C   LIG     1      13.438  31.840  16.766  1.00  0.00     0.037 C 
HETATM   14  C   LIG     1      15.836  32.385  16.305  1.00  0.00     0.037 C 
HETATM   15  C   LIG     1      14.207  34.215  16.942  1.00  0.00     0.037 C 
ENDBRANCH   9  12
ENDBRANCH   7   8
ENDBRANCH   3   7
BRANCH   1  16
HETATM   16  N   LIG     1      17.065  37.178  23.069  1.00  0.00    -0.309 N 
HETATM   17  C   LIG     1      17.303  36.260  24.152  1.00  0.00     0.322 C 
HETATM   18  O   LIG     1      17.408  35.026  23.910  1.00  0.00    -0.247 OA
HETATM   19  N   LIG     1      17.392  36.727  25.515  1.00  0.00    -0.343 N 
HETATM   20  C   LIG     1      17.545  35.750  26.598  1.00  0.00     0.154 C 
HETATM   21  C   LIG     1      17.370  38.162  25.816  1.00  0.00     0.154 C 
HETATM   22  H   LIG     1      16.590  38.084  23.279  1.00  0.00     0.170 HD
ENDBRANCH   1  16
TORSDOF 4
ENDMDL
MODEL 8
REMARK VINA RESULT:      -5.9      4.925      7.902
REMARK  4 active torsions:
REMARK  status: ('A' for Active; 'I' for Inactive)
REMARK       I    between atoms: C_2  and  N_6 
REMARK       I    between atoms: C_2  and  N_3 
REMARK    1  A    between atoms: N_6  and  C_7 
REMARK    2  A    between atoms: C_9  and  O_10 
REMARK    3  A    between atoms: O_10  and  C_11 
REMARK       I    between atoms: C_11  and  N_12 
REMARK    4  A    between atoms: N_12  and  C_13 
ROOT
HETATM    1  C   LIG     1      16.406  35.105  22.252  1.00  0.00     0.039 A 
HETATM    2  C   LIG     1      16.414  33.987  21.401  1.00  0.00     0.067 A 
HETATM    3  C   LIG     1      15.636  33.965  20.237  1.00  0.00     0.083 A 
HETATM    4  C   LIG     1      14.852  35.087  19.911  1.00  0.00     0.037 A 
HETATM    5  C   LIG     1      14.825  36.194  20.763  1.00  0.00     0.005 A 
HETATM    6  C   LIG     1      15.587  36.202  21.933  1.00  0.00     0.030 A 
ENDROOT
BRANCH   3   7
HETATM    7  O   LIG     1      15.702  32.832  19.414  1.00  0.00    -0.262 OA
BRANCH   7   8
HETATM    8  C   LIG     1      14.804  31.757  19.433  1.00  0.00     0.366 C 
HETATM    9  N   LIG     1      14.163  31.319  18.224  1.00  0.00    -0.329 N 
HETATM   10  H   LIG     1      13.532  30.488  18.310  1.00  0.00     0.165 HD
HETATM   11  O   LIG     1      14.585  31.128  20.503  1.00  0.00    -0.238 OA
BRANCH   9  12
HETATM   12  C   LIG     1      14.320  31.957  16.903  1.00  0.00     0.024 C 
HETATM   13  C   LIG     1      13.663  31.060  15.833  1.00  0.00     0.037 C 
HETATM   14  C   LIG     1      15.814  32.113  16.557  1.00  0.00     0.037 C 
HETATM   15  C   LIG     1      13.619  33.329  16.886  1.00  0.00     0.037 C 
ENDBRANCH   9  12
ENDBRANCH   7   8
ENDBRANCH   3   7
BRANCH   1  16
HETATM   16  N   LIG     1      17.193  35.080  23.455  1.00  0.00    -0.309 N 
HETATM   17  C   LIG     1      17.399  36.229  24.298  1.00  0.00     0.322 C 
HETATM   18  O   LIG     1      17.195  37.386  23.834  1.00  0.00    -0.247 OA
HETATM   19  N   LIG     1      17.867  36.080  25.655  1.00  0.00    -0.343 N 
HETATM   20  C   LIG     1      18.152  37.280  26.450  1.00  0.00     0.154 C 
HETATM   21  C   LIG     1      18.021  34.750  26.250  1.00  0.00     0.154 C 
HETATM   22  H   LIG     1      17.720  34.205  23.669  1.00  0.00     0.170 HD
ENDBRANCH   1  16
TORSDOF 4
ENDMDL
MODEL 9
REMARK VINA RESULT:      -5.8      5.774     10.547
REMARK  4 active torsions:
REMARK  status: ('A' for Active; 'I' for Inactive)
REMARK       I    between atoms: C_2  and  N_6 
REMARK       I    between atoms: C_2  and  N_3 
REMARK    1  A    between atoms: N_6  and  C_7 
REMARK    2  A    between atoms: C_9  and  O_10 
REMARK    3  A    between atoms: O_10  and  C_11 
REMARK       I    between atoms: C_11  and  N_12 
REMARK    4  A    between atoms: N_12  and  C_13 
ROOT
HETATM    1  C   LIG     1      17.110  36.540  20.588  1.00  0.00     0.039 A 
HETATM    2  C   LIG     1      16.610  36.469  21.898  1.00  0.00     0.067 A 
HETATM    3  C   LIG     1      17.008  37.395  22.870  1.00  0.00     0.083 A 
HETATM    4  C   LIG     1      17.905  38.420  22.518  1.00  0.00     0.037 A 
HETATM    5  C   LIG     1      18.421  38.485  21.221  1.00  0.00     0.005 A 
HETATM    6  C   LIG     1      18.037  37.545  20.262  1.00  0.00     0.030 A 
ENDROOT
BRANCH   3   7
HETATM    7  O   LIG     1      16.457  37.290  24.155  1.00  0.00    -0.262 OA
BRANCH   7   8
HETATM    8  C   LIG     1      17.087  37.676  25.345  1.00  0.00     0.366 C 
HETATM    9  N   LIG     1      17.689  36.695  26.205  1.00  0.00    -0.329 N 
HETATM   10  H   LIG     1      18.171  37.061  27.059  1.00  0.00     0.165 HD
HETATM   11  O   LIG     1      17.178  38.895  25.652  1.00  0.00    -0.238 OA
BRANCH   9  12
HETATM   12  C   LIG     1      17.659  35.237  25.978  1.00  0.00     0.024 C 
HETATM   13  C   LIG     1      19.015  34.637  26.404  1.00  0.00     0.037 C 
HETATM   14  C   LIG     1      17.441  34.933  24.482  1.00  0.00     0.037 C 
HETATM   15  C   LIG     1      16.549  34.586  26.826  1.00  0.00     0.037 C 
ENDBRANCH   9  12
ENDBRANCH   7   8
ENDBRANCH   3   7
BRANCH   1  16
HETATM   16  N   LIG     1      16.705  35.552  19.624  1.00  0.00    -0.309 N 
HETATM   17  C   LIG     1      16.068  34.310  19.974  1.00  0.00     0.322 C 
HETATM   18  O   LIG     1      16.157  33.877  21.157  1.00  0.00    -0.247 OA
HETATM   19  N   LIG     1      15.358  33.535  18.985  1.00  0.00    -0.343 N 
HETATM   20  C   LIG     1      14.802  32.231  19.362  1.00  0.00     0.154 C 
HETATM   21  C   LIG     1      15.157  34.057  17.631  1.00  0.00     0.154 C 
HETATM   22  H   LIG     1      16.982  35.708  18.630  1.00  0.00     0.170 HD
ENDBRANCH   1  16
TORSDOF 4
ENDMDL
MODEL 10
REMARK VINA RESULT:      -5.4      4.220      7.604
REMARK  4 active torsions:
REMARK  status: ('A' for Active; 'I' for Inactive)
REMARK       I    between atoms: C_2  and  N_6 
REMARK       I    between atoms: C_2  and  N_3 
REMARK    1  A    between atoms: N_6  and  C_7 
REMARK    2  A    between atoms: C_9  and  O_10 
REMARK    3  A    between atoms: O_10  and  C_11 
REMARK       I    between atoms: C_11  and  N_12 
REMARK    4  A    between atoms: N_12  and  C_13 
ROOT
HETATM    1  C   LIG     1      15.319  31.345  15.034  1.00  0.00     0.039 A 
HETATM    2  C   LIG     1      14.736  30.256  14.365  1.00  0.00     0.067 A 
HETATM    3  C   LIG     1      13.520  29.715  14.799  1.00  0.00     0.083 A 
HETATM    4  C   LIG     1      12.870  30.284  15.910  1.00  0.00     0.037 A 
HETATM    5  C   LIG     1      13.455  31.354  16.592  1.00  0.00     0.005 A 
HETATM    6  C   LIG     1      14.678  31.876  16.166  1.00  0.00     0.030 A 
ENDROOT
BRANCH   3   7
HETATM    7  O   LIG     1      12.972  28.644  14.078  1.00  0.00    -0.262 OA
BRANCH   7   8
HETATM    8  C   LIG     1      13.695  27.579  13.526  1.00  0.00     0.366 C 
HETATM    9  N   LIG     1      13.070  26.674  12.602  1.00  0.00    -0.329 N 
HETATM   10  H   LIG     1      13.682  25.923  12.204  1.00  0.00     0.165 HD
HETATM   11  O   LIG     1      14.918  27.432  13.794  1.00  0.00    -0.238 OA
BRANCH   9  12
HETATM   12  C   LIG     1      11.652  26.721  12.197  1.00  0.00     0.024 C 
HETATM   13  C   LIG     1      11.571  26.709  10.657  1.00  0.00     0.037 C 
HETATM   14  C   LIG     1      10.992  28.016  12.710  1.00  0.00     0.037 C 
HETATM   15  C   LIG     1      10.902  25.487  12.735  1.00  0.00     0.037 C 
ENDBRANCH   9  12
ENDBRANCH   7   8
ENDBRANCH   3   7
BRANCH   1  16
HETATM   16  N   LIG     1      16.585  31.855  14.580  1.00  0.00    -0.309 N 
HETATM   17  C   LIG     1      16.727  32.785  13.491  1.00  0.00     0.322 C 
HETATM   18  O   LIG     1      15.784  32.920  12.661  1.00  0.00    -0.247 OA
HETATM   19  N   LIG     1      17.943  33.541  13.314  1.00  0.00    -0.343 N 
HETATM   20  C   LIG     1      18.082  34.409  12.139  1.00  0.00     0.154 C 
HETATM   21  C   LIG     1      19.014  33.477  14.312  1.00  0.00     0.154 C 
HETATM   22  H   LIG     1      17.448  31.447  15.003  1.00  0.00     0.170 HD
ENDBRANCH   1  16
TORSDOF 4
ENDMDL
MODEL 11
REMARK VINA RESULT:      -5.1      2.158      3.026
REMARK  4 active torsions:
REMARK  status: ('A' for Active; 'I' for Inactive)
REMARK       I    between atoms: C_2  and  N_6 
REMARK       I    between atoms: C_2  and  N_3 
REMARK    1  A    between atoms: N_6  and  C_7 
REMARK    2  A    between atoms: C_9  and  O_10 
REMARK    3  A    between atoms: O_10  and  C_11 
REMARK       I    between atoms: C_11  and  N_12 
REMARK    4  A    between atoms: N_12  and  C_13 
ROOT
HETATM    1  C   LIG     1      14.949  32.378  17.929  1.00  0.00     0.039 A 
HETATM    2  C   LIG     1      15.949  32.439  16.945  1.00  0.00     0.067 A 
HETATM    3  C   LIG     1      15.746  31.879  15.678  1.00  0.00     0.083 A 
HETATM    4  C   LIG     1      14.514  31.264  15.387  1.00  0.00     0.037 A 
HETATM    5  C   LIG     1      13.522  31.182  16.368  1.00  0.00     0.005 A 
HETATM    6  C   LIG     1      13.739  31.724  17.636  1.00  0.00     0.030 A 
ENDROOT
BRANCH   3   7
HETATM    7  O   LIG     1      16.771  31.991  14.728  1.00  0.00    -0.262 OA
BRANCH   7   8
HETATM    8  C   LIG     1      16.608  31.905  13.340  1.00  0.00     0.366 C 
HETATM    9  N   LIG     1      17.237  32.859  12.469  1.00  0.00    -0.329 N 
HETATM   10  H   LIG     1      17.099  32.711  11.443  1.00  0.00     0.165 HD
HETATM   11  O   LIG     1      15.947  30.959  12.833  1.00  0.00    -0.238 OA
BRANCH   9  12
HETATM   12  C   LIG     1      18.035  34.017  12.918  1.00  0.00     0.024 C 
HETATM   13  C   LIG     1      17.875  35.160  11.894  1.00  0.00     0.037 C 
HETATM   14  C   LIG     1      19.528  33.640  12.997  1.00  0.00     0.037 C 
HETATM   15  C   LIG     1      17.533  34.514  14.287  1.00  0.00     0.037 C 
ENDBRANCH   9  12
ENDBRANCH   7   8
ENDBRANCH   3   7
BRANCH   1  16
HETATM   16  N   LIG     1      15.204  32.935  19.230  1.00  0.00    -0.309 N 
HETATM   17  C   LIG     1      15.537  34.317  19.455  1.00  0.00     0.322 C 
HETATM   18  O   LIG     1      15.965  35.018  18.496  1.00  0.00    -0.247 OA
HETATM   19  N   LIG     1      15.420  34.905  20.768  1.00  0.00    -0.343 N 
HETATM   20  C   LIG     1      15.856  36.290  20.974  1.00  0.00     0.154 C 
HETATM   21  C   LIG     1      14.837  34.144  21.877  1.00  0.00     0.154 C 
HETATM   22  H   LIG     1      15.246  32.274  20.037  1.00  0.00     0.170 HD
ENDBRANCH   1  16
TORSDOF 4
ENDMDL
MODEL 12
REMARK VINA RESULT:      -4.8     19.704     22.924
REMARK  4 active torsions:
REMARK  status: ('A' for Active; 'I' for Inactive)
REMARK       I    between atoms: C_2  and  N_6 
REMARK       I    between atoms: C_2  and  N_3 
REMARK    1  A    between atoms: N_6  and  C_7 
REMARK    2  A    between atoms: C_9  and  O_10 
REMARK    3  A    between atoms: O_10  and  C_11 
REMARK       I    between atoms: C_11  and  N_12 
REMARK    4  A    between atoms: N_12  and  C_13 
ROOT
HETATM    1  C   LIG     1      26.949  26.536  32.398  1.00  0.00     0.039 A 
HETATM    2  C   LIG     1      26.783  27.884  32.753  1.00  0.00     0.067 A 
HETATM    3  C   LIG     1      26.800  28.281  34.095  1.00  0.00     0.083 A 
HETATM    4  C   LIG     1      27.004  27.314  35.097  1.00  0.00     0.037 A 
HETATM    5  C   LIG     1      27.148  25.968  34.752  1.00  0.00     0.005 A 
HETATM    6  C   LIG     1      27.110  25.576  33.412  1.00  0.00     0.030 A 
ENDROOT
BRANCH   3   7
HETATM    7  O   LIG     1      26.655  29.645  34.389  1.00  0.00    -0.262 OA
BRANCH   7   8
HETATM    8  C   LIG     1      27.693  30.585  34.428  1.00  0.00     0.366 C 
HETATM    9  N   LIG     1      28.035  31.244  35.659  1.00  0.00    -0.329 N 
HETATM   10  H   LIG     1      28.843  31.907  35.619  1.00  0.00     0.165 HD
HETATM   11  O   LIG     1      28.373  30.827  33.396  1.00  0.00    -0.238 OA
BRANCH   9  12
HETATM   12  C   LIG     1      27.328  31.063  36.941  1.00  0.00     0.024 C 
HETATM   13  C   LIG     1      27.664  32.250  37.868  1.00  0.00     0.037 C 
HETATM   14  C   LIG     1      27.791  29.763  37.628  1.00  0.00     0.037 C 
HETATM   15  C   LIG     1      25.805  31.038  36.713  1.00  0.00     0.037 C 
ENDBRANCH   9  12
ENDBRANCH   7   8
ENDBRANCH   3   7
BRANCH   1  16
HETATM   16  N   LIG     1      26.893  26.159  31.011  1.00  0.00    -0.309 N 
HETATM   17  C   LIG     1      28.057  25.867  30.217  1.00  0.00     0.322 C 
HETATM   18  O   LIG     1      29.190  26.269  30.601  1.00  0.00    -0.247 OA
HETATM   19  N   LIG     1      27.943  25.149  28.970  1.00  0.00    -0.343 N 
HETATM   20  C   LIG     1      29.140  24.951  28.145  1.00  0.00     0.154 C 
HETATM   21  C   LIG     1      26.657  24.587  28.546  1.00  0.00     0.154 C 
HETATM   22  H   LIG     1      25.963  26.200  30.538  1.00  0.00     0.170 HD
ENDBRANCH   1  16
TORSDOF 4
ENDMDL
MODEL 13
REMARK VINA RESULT:      -4.8     14.787     17.221
REMARK  4 active torsions:
REMARK  status: ('A' for Active; 'I' for Inactive)
REMARK       I    between atoms: C_2  and  N_6 
REMARK       I    between atoms: C_2  and  N_3 
REMARK    1  A    between atoms: N_6  and  C_7 
REMARK    2  A    between atoms: C_9  and  O_10 
REMARK    3  A    between atoms: O_10  and  C_11 
REMARK       I    between atoms: C_11  and  N_12 
REMARK    4  A    between atoms: N_12  and  C_13 
ROOT
HETATM    1  C   LIG     1      24.663  22.638  21.948  1.00  0.00     0.039 A 
HETATM    2  C   LIG     1      25.036  22.468  23.291  1.00  0.00     0.067 A 
HETATM    3  C   LIG     1      24.310  21.620  24.137  1.00  0.00     0.083 A 
HETATM    4  C   LIG     1      23.205  20.918  23.623  1.00  0.00     0.037 A 
HETATM    5  C   LIG     1      22.816  21.098  22.293  1.00  0.00     0.005 A 
HETATM    6  C   LIG     1      23.532  21.961  21.461  1.00  0.00     0.030 A 
ENDROOT
BRANCH   3   7
HETATM    7  O   LIG     1      24.744  21.471  25.462  1.00  0.00    -0.262 OA
BRANCH   7   8
HETATM    8  C   LIG     1      24.093  21.977  26.594  1.00  0.00     0.366 C 
HETATM    9  N   LIG     1      24.733  22.954  27.430  1.00  0.00    -0.329 N 
HETATM   10  H   LIG     1      24.172  23.311  28.238  1.00  0.00     0.165 HD
HETATM   11  O   LIG     1      22.915  21.618  26.866  1.00  0.00    -0.238 OA
BRANCH   9  12
HETATM   12  C   LIG     1      26.105  23.465  27.238  1.00  0.00     0.024 C 
HETATM   13  C   LIG     1      26.130  24.372  25.990  1.00  0.00     0.037 C 
HETATM   14  C   LIG     1      27.084  22.296  27.009  1.00  0.00     0.037 C 
HETATM   15  C   LIG     1      26.539  24.300  28.457  1.00  0.00     0.037 C 
ENDBRANCH   9  12
ENDBRANCH   7   8
ENDBRANCH   3   7
BRANCH   1  16
HETATM   16  N   LIG     1      25.412  23.542  21.117  1.00  0.00    -0.309 N 
HETATM   17  C   LIG     1      26.259  23.115  20.035  1.00  0.00     0.322 C 
HETATM   18  O   LIG     1      26.658  21.918  19.992  1.00  0.00    -0.247 OA
HETATM   19  N   LIG     1      26.685  24.043  19.015  1.00  0.00    -0.343 N 
HETATM   20  C   LIG     1      27.623  23.590  17.981  1.00  0.00     0.154 C 
HETATM   21  C   LIG     1      26.162  25.412  18.985  1.00  0.00     0.154 C 
HETATM   22  H   LIG     1      25.413  24.551  21.383  1.00  0.00     0.170 HD
ENDBRANCH   1  16
TORSDOF 4
ENDMDL
MODEL 14
REMARK VINA RESULT:      -4.7     14.093     16.078
REMARK  4 active torsions:
REMARK  status: ('A' for Active; 'I' for Inactive)
REMARK       I    between atoms: C_2  and  N_6 
REMARK       I    between atoms: C_2  and  N_3 
REMARK    1  A    between atoms: N_6  and  C_7 
REMARK    2  A    between atoms: C_9  and  O_10 
REMARK    3  A    between atoms: O_10  and  C_11 
REMARK       I    between atoms: C_11  and  N_12 
REMARK    4  A    between atoms: N_12  and  C_13 
ROOT
HETATM    1  C   LIG     1      25.311  22.950  19.156  1.00  0.00     0.039 A 
HETATM    2  C   LIG     1      25.020  22.923  20.529  1.00  0.00     0.067 A 
HETATM    3  C   LIG     1      23.822  22.370  20.999  1.00  0.00     0.083 A 
HETATM    4  C   LIG     1      22.911  21.819  20.080  1.00  0.00     0.037 A 
HETATM    5  C   LIG     1      23.184  21.861  18.711  1.00  0.00     0.005 A 
HETATM    6  C   LIG     1      24.371  22.432  18.247  1.00  0.00     0.030 A 
ENDROOT
BRANCH   3   7
HETATM    7  O   LIG     1      23.596  22.348  22.383  1.00  0.00    -0.262 OA
BRANCH   7   8
HETATM    8  C   LIG     1      23.413  21.198  23.161  1.00  0.00     0.366 C 
HETATM    9  N   LIG     1      24.294  20.910  24.258  1.00  0.00    -0.329 N 
HETATM   10  H   LIG     1      24.075  20.051  24.815  1.00  0.00     0.165 HD
HETATM   11  O   LIG     1      22.441  20.427  22.939  1.00  0.00    -0.238 OA
BRANCH   9  12
HETATM   12  C   LIG     1      25.471  21.717  24.634  1.00  0.00     0.024 C 
HETATM   13  C   LIG     1      26.068  21.154  25.941  1.00  0.00     0.037 C 
HETATM   14  C   LIG     1      25.060  23.182  24.878  1.00  0.00     0.037 C 
HETATM   15  C   LIG     1      26.547  21.638  23.533  1.00  0.00     0.037 C 
ENDBRANCH   9  12
ENDBRANCH   7   8
ENDBRANCH   3   7
BRANCH   1  16
HETATM   16  N   LIG     1      26.535  23.555  18.706  1.00  0.00    -0.309 N 
HETATM   17  C   LIG     1      26.795  24.969  18.765  1.00  0.00     0.322 C 
HETATM   18  O   LIG     1      25.830  25.775  18.883  1.00  0.00    -0.247 OA
HETATM   19  N   LIG     1      28.140  25.482  18.657  1.00  0.00    -0.343 N 
HETATM   20  C   LIG     1      28.353  26.933  18.629  1.00  0.00     0.154 C 
HETATM   21  C   LIG     1      29.286  24.569  18.615  1.00  0.00     0.154 C 
HETATM   22  H   LIG     1      27.226  22.940  18.221  1.00  0.00     0.170 HD
ENDBRANCH   1  16
TORSDOF 4
ENDMDL
MODEL 15
REMARK VINA RESULT:      -4.7     15.557     17.264
REMARK  4 active torsions:
REMARK  status: ('A' for Active; 'I' for Inactive)
REMARK       I    between atoms: C_2  and  N_6 
REMARK       I    between atoms: C_2  and  N_3 
REMARK    1  A    between atoms: N_6  and  C_7 
REMARK    2  A    between atoms: C_9  and  O_10 
REMARK    3  A    between atoms: O_10  and  C_11 
REMARK       I    between atoms: C_11  and  N_12 
REMARK    4  A    between atoms: N_12  and  C_13 
ROOT
HETATM    1  C   LIG     1      24.682  22.654  26.682  1.00  0.00     0.039 A 
HETATM    2  C   LIG     1      25.177  22.529  25.373  1.00  0.00     0.067 A 
HETATM    3  C   LIG     1      24.612  21.615  24.475  1.00  0.00     0.083 A 
HETATM    4  C   LIG     1      23.523  20.826  24.890  1.00  0.00     0.037 A 
HETATM    5  C   LIG     1      23.039  20.931  26.197  1.00  0.00     0.005 A 
HETATM    6  C   LIG     1      23.621  21.830  27.093  1.00  0.00     0.030 A 
ENDROOT
BRANCH   3   7
HETATM    7  O   LIG     1      25.130  21.552  23.174  1.00  0.00    -0.262 OA
BRANCH   7   8
HETATM    8  C   LIG     1      24.948  20.494  22.275  1.00  0.00     0.366 C 
HETATM    9  N   LIG     1      24.272  20.705  21.025  1.00  0.00    -0.329 N 
HETATM   10  H   LIG     1      24.204  19.876  20.390  1.00  0.00     0.165 HD
HETATM   11  O   LIG     1      25.420  19.353  22.529  1.00  0.00    -0.238 OA
BRANCH   9  12
HETATM   12  C   LIG     1      23.668  21.981  20.594  1.00  0.00     0.024 C 
HETATM   13  C   LIG     1      22.557  22.370  21.592  1.00  0.00     0.037 C 
HETATM   14  C   LIG     1      23.036  21.828  19.196  1.00  0.00     0.037 C 
HETATM   15  C   LIG     1      24.728  23.098  20.586  1.00  0.00     0.037 C 
ENDBRANCH   9  12
ENDBRANCH   7   8
ENDBRANCH   3   7
BRANCH   1  16
HETATM   16  N   LIG     1      25.308  23.580  27.587  1.00  0.00    -0.309 N 
HETATM   17  C   LIG     1      26.419  23.238  28.436  1.00  0.00     0.322 C 
HETATM   18  O   LIG     1      26.663  22.024  28.683  1.00  0.00    -0.247 OA
HETATM   19  N   LIG     1      27.237  24.264  29.036  1.00  0.00    -0.343 N 
HETATM   20  C   LIG     1      28.302  23.877  29.969  1.00  0.00     0.154 C 
HETATM   21  C   LIG     1      27.037  25.675  28.693  1.00  0.00     0.154 C 
HETATM   22  H   LIG     1      24.864  24.518  27.700  1.00  0.00     0.170 HD
ENDBRANCH   1  16
TORSDOF 4
ENDMDL
MODEL 16
REMARK VINA RESULT:      -4.7     14.537     15.397
REMARK  4 active torsions:
REMARK  status: ('A' for Active; 'I' for Inactive)
REMARK       I    between atoms: C_2  and  N_6 
REMARK       I    between atoms: C_2  and  N_3 
REMARK    1  A    between atoms: N_6  and  C_7 
REMARK    2  A    between atoms: C_9  and  O_10 
REMARK    3  A    between atoms: O_10  and  C_11 
REMARK       I    between atoms: C_11  and  N_12 
REMARK    4  A    between atoms: N_12  and  C_13 
ROOT
HETATM    1  C   LIG     1      24.876  21.904  23.329  1.00  0.00     0.039 A 
HETATM    2  C   LIG     1      25.233  22.563  22.142  1.00  0.00     0.067 A 
HETATM    3  C   LIG     1      24.357  22.603  21.050  1.00  0.00     0.083 A 
HETATM    4  C   LIG     1      23.097  21.987  21.157  1.00  0.00     0.037 A 
HETATM    5  C   LIG     1      22.743  21.311  22.327  1.00  0.00     0.005 A 
HETATM    6  C   LIG     1      23.630  21.258  23.405  1.00  0.00     0.030 A 
ENDROOT
BRANCH   3   7
HETATM    7  O   LIG     1      24.758  23.297  19.900  1.00  0.00    -0.262 OA
BRANCH   7   8
HETATM    8  C   LIG     1      25.380  22.729  18.781  1.00  0.00     0.366 C 
HETATM    9  N   LIG     1      26.613  23.269  18.278  1.00  0.00    -0.329 N 
HETATM   10  H   LIG     1      27.037  22.771  17.461  1.00  0.00     0.165 HD
HETATM   11  O   LIG     1      24.892  21.706  18.230  1.00  0.00    -0.238 OA
BRANCH   9  12
HETATM   12  C   LIG     1      27.298  24.460  18.817  1.00  0.00     0.024 C 
HETATM   13  C   LIG     1      28.339  24.946  17.786  1.00  0.00     0.037 C 
HETATM   14  C   LIG     1      28.035  24.108  20.124  1.00  0.00     0.037 C 
HETATM   15  C   LIG     1      26.285  25.595  19.059  1.00  0.00     0.037 C 
ENDBRANCH   9  12
ENDBRANCH   7   8
ENDBRANCH   3   7
BRANCH   1  16
HETATM   16  N   LIG     1      25.813  21.855  24.418  1.00  0.00    -0.309 N 
HETATM   17  C   LIG     1      25.692  22.650  25.612  1.00  0.00     0.322 C 
HETATM   18  O   LIG     1      24.957  23.677  25.604  1.00  0.00    -0.247 OA
HETATM   19  N   LIG     1      26.423  22.308  26.809  1.00  0.00    -0.343 N 
HETATM   20  C   LIG     1      26.343  23.196  27.975  1.00  0.00     0.154 C 
HETATM   21  C   LIG     1      27.206  21.072  26.878  1.00  0.00     0.154 C 
HETATM   22  H   LIG     1      26.678  21.285  24.285  1.00  0.00     0.170 HD
ENDBRANCH   1  16
TORSDOF 4
ENDMDL
MODEL 17
REMARK VINA RESULT:      -4.7     14.244     14.848
REMARK  4 active torsions:
REMARK  status: ('A' for Active; 'I' for Inactive)
REMARK       I    between atoms: C_2  and  N_6 
REMARK       I    between atoms: C_2  and  N_3 
REMARK    1  A    between atoms: N_6  and  C_7 
REMARK    2  A    between atoms: C_9  and  O_10 
REMARK    3  A    between atoms: O_10  and  C_11 
REMARK       I    between atoms: C_11  and  N_12 
REMARK    4  A    between atoms: N_12  and  C_13 
ROOT
HETATM    1  C   LIG     1      23.758  21.633  20.749  1.00  0.00     0.039 A 
HETATM    2  C   LIG     1      25.123  21.918  20.585  1.00  0.00     0.067 A 
HETATM    3  C   LIG     1      25.641  22.252  19.327  1.00  0.00     0.083 A 
HETATM    4  C   LIG     1      24.774  22.318  18.221  1.00  0.00     0.037 A 
HETATM    5  C   LIG     1      23.419  22.015  18.374  1.00  0.00     0.005 A 
HETATM    6  C   LIG     1      22.912  21.663  19.627  1.00  0.00     0.030 A 
ENDROOT
BRANCH   3   7
HETATM    7  O   LIG     1      27.007  22.551  19.227  1.00  0.00    -0.262 OA
BRANCH   7   8
HETATM    8  C   LIG     1      27.648  23.066  18.094  1.00  0.00     0.366 C 
HETATM    9  N   LIG     1      27.984  24.461  18.015  1.00  0.00    -0.329 N 
HETATM   10  H   LIG     1      28.492  24.767  17.153  1.00  0.00     0.165 HD
HETATM   11  O   LIG     1      27.984  22.303  17.148  1.00  0.00    -0.238 OA
BRANCH   9  12
HETATM   12  C   LIG     1      27.654  25.471  19.040  1.00  0.00     0.024 C 
HETATM   13  C   LIG     1      28.304  26.813  18.646  1.00  0.00     0.037 C 
HETATM   14  C   LIG     1      28.211  25.043  20.412  1.00  0.00     0.037 C 
HETATM   15  C   LIG     1      26.128  25.673  19.118  1.00  0.00     0.037 C 
ENDBRANCH   9  12
ENDBRANCH   7   8
ENDBRANCH   3   7
BRANCH   1  16
HETATM   16  N   LIG     1      23.267  21.262  22.049  1.00  0.00    -0.309 N 
HETATM   17  C   LIG     1      23.043  19.900  22.458  1.00  0.00     0.322 C 
HETATM   18  O   LIG     1      22.931  18.997  21.583  1.00  0.00    -0.247 OA
HETATM   19  N   LIG     1      22.912  19.557  23.854  1.00  0.00    -0.343 N 
HETATM   20  C   LIG     1      22.594  18.174  24.225  1.00  0.00     0.154 C 
HETATM   21  C   LIG     1      23.133  20.566  24.895  1.00  0.00     0.154 C 
HETATM   22  H   LIG     1      22.965  22.031  22.687  1.00  0.00     0.170 HD
ENDBRANCH   1  16
TORSDOF 4
ENDMDL
MODEL 18
REMARK VINA RESULT:      -4.6     14.276     16.415
REMARK  4 active torsions:
REMARK  status: ('A' for Active; 'I' for Inactive)
REMARK       I    between atoms: C_2  and  N_6 
REMARK       I    between atoms: C_2  and  N_3 
REMARK    1  A    between atoms: N_6  and  C_7 
REMARK    2  A    between atoms: C_9  and  O_10 
REMARK    3  A    between atoms: O_10  and  C_11 
REMARK       I    between atoms: C_11  and  N_12 
REMARK    4  A    between atoms: N_12  and  C_13 
ROOT
HETATM    1  C   LIG     1      25.384  22.721  18.918  1.00  0.00     0.039 A 
HETATM    2  C   LIG     1      25.525  22.279  20.243  1.00  0.00     0.067 A 
HETATM    3  C   LIG     1      24.503  21.559  20.874  1.00  0.00     0.083 A 
HETATM    4  C   LIG     1      23.328  21.263  20.159  1.00  0.00     0.037 A 
HETATM    5  C   LIG     1      23.172  21.718  18.847  1.00  0.00     0.005 A 
HETATM    6  C   LIG     1      24.187  22.453  18.231  1.00  0.00     0.030 A 
ENDROOT
BRANCH   3   7
HETATM    7  O   LIG     1      24.710  21.122  22.189  1.00  0.00    -0.262 OA
BRANCH   7   8
HETATM    8  C   LIG     1      24.372  21.833  23.347  1.00  0.00     0.366 C 
HETATM    9  N   LIG     1      23.726  21.174  24.448  1.00  0.00    -0.329 N 
HETATM   10  H   LIG     1      23.536  21.762  25.293  1.00  0.00     0.165 HD
HETATM   11  O   LIG     1      24.676  23.052  23.459  1.00  0.00    -0.238 OA
BRANCH   9  12
HETATM   12  C   LIG     1      23.309  19.758  24.461  1.00  0.00     0.024 C 
HETATM   13  C   LIG     1      22.543  19.474  25.770  1.00  0.00     0.037 C 
HETATM   14  C   LIG     1      24.543  18.836  24.408  1.00  0.00     0.037 C 
HETATM   15  C   LIG     1      22.370  19.468  23.274  1.00  0.00     0.037 C 
ENDBRANCH   9  12
ENDBRANCH   7   8
ENDBRANCH   3   7
BRANCH   1  16
HETATM   16  N   LIG     1      26.441  23.486  18.313  1.00  0.00    -0.309 N 
HETATM   17  C   LIG     1      26.777  24.830  18.702  1.00  0.00     0.322 C 
HETATM   18  O   LIG     1      25.935  25.522  19.341  1.00  0.00    -0.247 OA
HETATM   19  N   LIG     1      28.048  25.411  18.343  1.00  0.00    -0.343 N 
HETATM   20  C   LIG     1      28.314  26.815  18.679  1.00  0.00     0.154 C 
HETATM   21  C   LIG     1      29.080  24.603  17.686  1.00  0.00     0.154 C 
HETATM   22  H   LIG     1      26.920  23.073  17.482  1.00  0.00     0.170 HD
ENDBRANCH   1  16
TORSDOF 4
ENDMDL
MODEL 19
REMARK VINA RESULT:      -4.6     15.554     17.168
REMARK  4 active torsions:
REMARK  status: ('A' for Active; 'I' for Inactive)
REMARK       I    between atoms: C_2  and  N_6 
REMARK       I    between atoms: C_2  and  N_3 
REMARK    1  A    between atoms: N_6  and  C_7 
REMARK    2  A    between atoms: C_9  and  O_10 
REMARK    3  A    between atoms: O_10  and  C_11 
REMARK       I    between atoms: C_11  and  N_12 
REMARK    4  A    between atoms: N_12  and  C_13 
ROOT
HETATM    1  C   LIG     1      26.673  24.386  26.091  1.00  0.00     0.039 A 
HETATM    2  C   LIG     1      25.544  23.756  25.542  1.00  0.00     0.067 A 
HETATM    3  C   LIG     1      25.592  23.178  24.268  1.00  0.00     0.083 A 
HETATM    4  C   LIG     1      26.796  23.216  23.540  1.00  0.00     0.037 A 
HETATM    5  C   LIG     1      27.917  23.858  24.072  1.00  0.00     0.005 A 
HETATM    6  C   LIG     1      27.856  24.451  25.335  1.00  0.00     0.030 A 
ENDROOT
BRANCH   3   7
HETATM    7  O   LIG     1      24.442  22.542  23.781  1.00  0.00    -0.262 OA
BRANCH   7   8
HETATM    8  C   LIG     1      24.387  21.242  23.263  1.00  0.00     0.366 C 
HETATM    9  N   LIG     1      23.997  21.015  21.898  1.00  0.00    -0.329 N 
HETATM   10  H   LIG     1      24.013  20.021  21.572  1.00  0.00     0.165 HD
HETATM   11  O   LIG     1      24.729  20.258  23.972  1.00  0.00    -0.238 OA
BRANCH   9  12
HETATM   12  C   LIG     1      23.570  22.065  20.954  1.00  0.00     0.024 C 
HETATM   13  C   LIG     1      22.389  22.843  21.571  1.00  0.00     0.037 C 
HETATM   14  C   LIG     1      23.098  21.434  19.629  1.00  0.00     0.037 C 
HETATM   15  C   LIG     1      24.723  23.054  20.697  1.00  0.00     0.037 C 
ENDBRANCH   9  12
ENDBRANCH   7   8
ENDBRANCH   3   7
BRANCH   1  16
HETATM   16  N   LIG     1      26.578  24.997  27.389  1.00  0.00    -0.309 N 
HETATM   17  C   LIG     1      27.166  24.440  28.579  1.00  0.00     0.322 C 
HETATM   18  O   LIG     1      27.486  23.219  28.602  1.00  0.00    -0.247 OA
HETATM   19  N   LIG     1      27.365  25.250  29.757  1.00  0.00    -0.343 N 
HETATM   20  C   LIG     1      27.882  24.622  30.978  1.00  0.00     0.154 C 
HETATM   21  C   LIG     1      27.092  26.689  29.729  1.00  0.00     0.154 C 
HETATM   22  H   LIG     1      25.963  25.836  27.482  1.00  0.00     0.170 HD
ENDBRANCH   1  16
TORSDOF 4
ENDMDL
