MODEL 1
REMARK VINA RESULT:      -7.2      0.000      0.000
REMARK  0 active torsions:
REMARK  status: ('A' for Active; 'I' for Inactive)
ROOT
HETATM    1  O   LIG     1      19.016  40.040  21.078  1.00  0.00    -0.268 OA
HETATM    2  C   LIG     1      18.722  38.842  20.807  1.00  0.00     0.247 A 
HETATM    3  N   LIG     1      17.711  38.199  21.483  1.00  0.00    -0.317 N 
HETATM    4  C   LIG     1      16.951  38.965  22.502  1.00  0.00     0.138 C 
HETATM    5  C   LIG     1      15.944  38.123  23.320  1.00  0.00     0.033 C 
HETATM    6  C   LIG     1      16.607  37.389  24.511  1.00  0.00     0.275 C 
HETATM    7  N   LIG     1      17.548  36.340  24.084  1.00  0.00     0.084 N 
HETATM    8  C   LIG     1      16.938  35.407  23.121  1.00  0.00     0.280 C 
HETATM    9  C   LIG     1      16.317  36.143  21.915  1.00  0.00     0.064 C 
HETATM   10  C   LIG     1      15.253  37.116  22.408  1.00  0.00     0.020 C 
HETATM   11  C   LIG     1      17.387  36.897  21.156  1.00  0.00     0.020 A 
HETATM   12  C   LIG     1      18.102  36.221  20.155  1.00  0.00     0.026 A 
HETATM   13  C   LIG     1      19.129  36.871  19.482  1.00  0.00     0.007 A 
HETATM   14  C   LIG     1      19.442  38.186  19.807  1.00  0.00     0.074 A 
HETATM   15  H   LIG     1      18.396  36.782  23.661  1.00  0.00     0.315 HD
ENDROOT
TORSDOF 0
ENDMDL
MODEL 2
REMARK VINA RESULT:      -7.1      2.323      4.149
REMARK  0 active torsions:
REMARK  status: ('A' for Active; 'I' for Inactive)
ROOT
HETATM    1  O   LIG     1      18.871  37.681  26.532  1.00  0.00    -0.268 OA
HETATM    2  C   LIG     1      18.267  36.812  25.844  1.00  0.00     0.247 A 
HETATM    3  N   LIG     1      17.892  37.080  24.548  1.00  0.00    -0.317 N 
HETATM    4  C   LIG     1      18.257  38.399  23.972  1.00  0.00     0.138 C 
HETATM    5  C   LIG     1      17.660  38.675  22.572  1.00  0.00     0.033 C 
HETATM    6  C   LIG     1      16.210  39.215  22.635  1.00  0.00     0.275 C 
HETATM    7  N   LIG     1      15.252  38.220  23.143  1.00  0.00     0.084 N 
HETATM    8  C   LIG     1      15.341  36.942  22.415  1.00  0.00     0.280 C 
HETATM    9  C   LIG     1      16.781  36.388  22.393  1.00  0.00     0.064 C 
HETATM   10  C   LIG     1      17.704  37.404  21.732  1.00  0.00     0.020 C 
HETATM   11  C   LIG     1      17.255  36.109  23.802  1.00  0.00     0.020 A 
HETATM   12  C   LIG     1      16.966  34.857  24.371  1.00  0.00     0.026 A 
HETATM   13  C   LIG     1      17.339  34.593  25.684  1.00  0.00     0.007 A 
HETATM   14  C   LIG     1      17.991  35.572  26.424  1.00  0.00     0.074 A 
HETATM   15  H   LIG     1      15.420  38.060  24.163  1.00  0.00     0.315 HD
ENDROOT
TORSDOF 0
ENDMDL
MODEL 3
REMARK VINA RESULT:      -7.1      2.279      4.565
REMARK  0 active torsions:
REMARK  status: ('A' for Active; 'I' for Inactive)
ROOT
HETATM    1  O   LIG     1      17.993  34.484  25.477  1.00  0.00    -0.268 OA
HETATM    2  C   LIG     1      17.726  35.710  25.331  1.00  0.00     0.247 A 
HETATM    3  N   LIG     1      17.131  36.164  24.177  1.00  0.00    -0.317 N 
HETATM    4  C   LIG     1      16.775  35.169  23.134  1.00  0.00     0.138 C 
HETATM    5  C   LIG     1      16.260  35.782  21.811  1.00  0.00     0.033 C 
HETATM    6  C   LIG     1      17.406  36.215  20.865  1.00  0.00     0.275 C 
HETATM    7  N   LIG     1      18.190  37.343  21.395  1.00  0.00     0.084 N 
HETATM    8  C   LIG     1      17.333  38.475  21.791  1.00  0.00     0.280 C 
HETATM    9  C   LIG     1      16.218  38.045  22.767  1.00  0.00     0.064 C 
HETATM   10  C   LIG     1      15.357  36.973  22.111  1.00  0.00     0.020 C 
HETATM   11  C   LIG     1      16.824  37.503  24.044  1.00  0.00     0.020 A 
HETATM   12  C   LIG     1      17.138  38.406  25.073  1.00  0.00     0.026 A 
HETATM   13  C   LIG     1      17.747  37.944  26.233  1.00  0.00     0.007 A 
HETATM   14  C   LIG     1      18.043  36.593  26.366  1.00  0.00     0.074 A 
HETATM   15  H   LIG     1      18.754  37.023  22.215  1.00  0.00     0.315 HD
ENDROOT
TORSDOF 0
ENDMDL
MODEL 4
REMARK VINA RESULT:      -7.0      1.709      2.839
REMARK  0 active torsions:
REMARK  status: ('A' for Active; 'I' for Inactive)
ROOT
HETATM    1  O   LIG     1      18.721  36.695  18.725  1.00  0.00    -0.268 OA
HETATM    2  C   LIG     1      18.537  37.416  19.745  1.00  0.00     0.247 A 
HETATM    3  N   LIG     1      17.869  36.922  20.841  1.00  0.00    -0.317 N 
HETATM    4  C   LIG     1      17.414  35.510  20.806  1.00  0.00     0.138 C 
HETATM    5  C   LIG     1      16.538  35.087  22.008  1.00  0.00     0.033 C 
HETATM    6  C   LIG     1      15.048  35.468  21.826  1.00  0.00     0.275 C 
HETATM    7  N   LIG     1      14.825  36.923  21.831  1.00  0.00     0.084 N 
HETATM    8  C   LIG     1      15.429  37.572  23.008  1.00  0.00     0.280 C 
HETATM    9  C   LIG     1      16.924  37.223  23.159  1.00  0.00     0.064 C 
HETATM   10  C   LIG     1      17.081  35.712  23.288  1.00  0.00     0.020 C 
HETATM   11  C   LIG     1      17.699  37.716  21.957  1.00  0.00     0.020 A 
HETATM   12  C   LIG     1      18.184  39.034  21.967  1.00  0.00     0.026 A 
HETATM   13  C   LIG     1      18.849  39.533  20.853  1.00  0.00     0.007 A 
HETATM   14  C   LIG     1      19.028  38.724  19.738  1.00  0.00     0.074 A 
HETATM   15  H   LIG     1      15.218  37.340  20.956  1.00  0.00     0.315 HD
ENDROOT
TORSDOF 0
ENDMDL
MODEL 5
REMARK VINA RESULT:      -6.0      1.650      2.895
REMARK  0 active torsions:
REMARK  status: ('A' for Active; 'I' for Inactive)
ROOT
HETATM    1  O   LIG     1      18.332  36.228  19.467  1.00  0.00    -0.268 OA
HETATM    2  C   LIG     1      17.347  36.182  20.256  1.00  0.00     0.247 A 
HETATM    3  N   LIG     1      17.198  37.124  21.247  1.00  0.00    -0.317 N 
HETATM    4  C   LIG     1      18.201  38.215  21.332  1.00  0.00     0.138 C 
HETATM    5  C   LIG     1      18.048  39.133  22.567  1.00  0.00     0.033 C 
HETATM    6  C   LIG     1      18.720  38.551  23.834  1.00  0.00     0.275 C 
HETATM    7  N   LIG     1      18.057  37.331  24.323  1.00  0.00     0.084 N 
HETATM    8  C   LIG     1      16.607  37.520  24.498  1.00  0.00     0.280 C 
HETATM    9  C   LIG     1      15.935  38.061  23.218  1.00  0.00     0.064 C 
HETATM   10  C   LIG     1      16.570  39.393  22.837  1.00  0.00     0.020 C 
HETATM   11  C   LIG     1      16.102  37.073  22.084  1.00  0.00     0.020 A 
HETATM   12  C   LIG     1      15.152  36.048  21.942  1.00  0.00     0.026 A 
HETATM   13  C   LIG     1      15.310  35.093  20.946  1.00  0.00     0.007 A 
HETATM   14  C   LIG     1      16.410  35.158  20.098  1.00  0.00     0.074 A 
HETATM   15  H   LIG     1      18.234  36.545  23.657  1.00  0.00     0.315 HD
ENDROOT
TORSDOF 0
ENDMDL
MODEL 6
REMARK VINA RESULT:      -5.8      1.496      4.226
REMARK  0 active torsions:
REMARK  status: ('A' for Active; 'I' for Inactive)
ROOT
HETATM    1  O   LIG     1      17.044  39.507  22.924  1.00  0.00    -0.268 OA
HETATM    2  C   LIG     1      17.101  38.418  22.287  1.00  0.00     0.247 A 
HETATM    3  N   LIG     1      18.071  38.214  21.333  1.00  0.00    -0.317 N 
HETATM    4  C   LIG     1      19.070  39.288  21.109  1.00  0.00     0.138 C 
HETATM    5  C   LIG     1      20.021  39.042  19.915  1.00  0.00     0.033 C 
HETATM    6  C   LIG     1      19.405  39.469  18.560  1.00  0.00     0.275 C 
HETATM    7  N   LIG     1      18.258  38.634  18.165  1.00  0.00     0.084 N 
HETATM    8  C   LIG     1      18.579  37.197  18.206  1.00  0.00     0.280 C 
HETATM    9  C   LIG     1      19.153  36.769  19.573  1.00  0.00     0.064 C 
HETATM   10  C   LIG     1      20.416  37.570  19.864  1.00  0.00     0.020 C 
HETATM   11  C   LIG     1      18.133  37.008  20.664  1.00  0.00     0.020 A 
HETATM   12  C   LIG     1      17.194  35.999  20.937  1.00  0.00     0.026 A 
HETATM   13  C   LIG     1      16.210  36.213  21.895  1.00  0.00     0.007 A 
HETATM   14  C   LIG     1      16.161  37.425  22.573  1.00  0.00     0.074 A 
HETATM   15  H   LIG     1      17.447  38.834  18.794  1.00  0.00     0.315 HD
ENDROOT
TORSDOF 0
ENDMDL
MODEL 7
REMARK VINA RESULT:      -5.0      2.322      4.463
REMARK  0 active torsions:
REMARK  status: ('A' for Active; 'I' for Inactive)
ROOT
HETATM    1  O   LIG     1      16.379  34.458  23.164  1.00  0.00    -0.268 OA
HETATM    2  C   LIG     1      16.940  35.293  23.927  1.00  0.00     0.247 A 
HETATM    3  N   LIG     1      16.989  36.626  23.592  1.00  0.00    -0.317 N 
HETATM    4  C   LIG     1      16.327  37.057  22.335  1.00  0.00     0.138 C 
HETATM    5  C   LIG     1      16.567  38.538  21.957  1.00  0.00     0.033 C 
HETATM    6  C   LIG     1      17.905  38.756  21.210  1.00  0.00     0.275 C 
HETATM    7  N   LIG     1      19.082  38.501  22.058  1.00  0.00     0.084 N 
HETATM    8  C   LIG     1      19.022  39.248  23.327  1.00  0.00     0.280 C 
HETATM    9  C   LIG     1      17.703  38.993  24.088  1.00  0.00     0.064 C 
HETATM   10  C   LIG     1      16.526  39.403  23.212  1.00  0.00     0.020 C 
HETATM   11  C   LIG     1      17.585  37.529  24.450  1.00  0.00     0.020 A 
HETATM   12  C   LIG     1      18.162  37.086  25.651  1.00  0.00     0.026 A 
HETATM   13  C   LIG     1      18.119  35.737  25.982  1.00  0.00     0.007 A 
HETATM   14  C   LIG     1      17.506  34.836  25.119  1.00  0.00     0.074 A 
HETATM   15  H   LIG     1      19.158  37.477  22.253  1.00  0.00     0.315 HD
ENDROOT
TORSDOF 0
ENDMDL
MODEL 8
REMARK VINA RESULT:      -4.4     15.737     16.799
REMARK  0 active torsions:
REMARK  status: ('A' for Active; 'I' for Inactive)
ROOT
HETATM    1  O   LIG     1      23.680  22.505  22.231  1.00  0.00    -0.268 OA
HETATM    2  C   LIG     1      23.871  22.460  20.984  1.00  0.00     0.247 A 
HETATM    3  N   LIG     1      25.064  22.881  20.443  1.00  0.00    -0.317 N 
HETATM    4  C   LIG     1      26.129  23.343  21.368  1.00  0.00     0.138 C 
HETATM    5  C   LIG     1      27.371  23.944  20.669  1.00  0.00     0.033 C 
HETATM    6  C   LIG     1      27.185  25.435  20.296  1.00  0.00     0.275 C 
HETATM    7  N   LIG     1      26.165  25.641  19.254  1.00  0.00     0.084 N 
HETATM    8  C   LIG     1      26.402  24.794  18.072  1.00  0.00     0.280 C 
HETATM    9  C   LIG     1      26.544  23.303  18.446  1.00  0.00     0.064 C 
HETATM   10  C   LIG     1      27.703  23.134  19.421  1.00  0.00     0.020 C 
HETATM   11  C   LIG     1      25.265  22.801  19.079  1.00  0.00     0.020 A 
HETATM   12  C   LIG     1      24.247  22.316  18.242  1.00  0.00     0.026 A 
HETATM   13  C   LIG     1      23.040  21.902  18.792  1.00  0.00     0.007 A 
HETATM   14  C   LIG     1      22.849  21.973  20.167  1.00  0.00     0.074 A 
HETATM   15  H   LIG     1      25.217  25.442  19.648  1.00  0.00     0.315 HD
ENDROOT
TORSDOF 0
ENDMDL
MODEL 9
REMARK VINA RESULT:      -4.3      7.749      8.913
REMARK  0 active torsions:
REMARK  status: ('A' for Active; 'I' for Inactive)
ROOT
HETATM    1  O   LIG     1      15.262  30.556  13.067  1.00  0.00    -0.268 OA
HETATM    2  C   LIG     1      15.754  31.473  13.781  1.00  0.00     0.247 A 
HETATM    3  N   LIG     1      15.322  31.664  15.073  1.00  0.00    -0.317 N 
HETATM    4  C   LIG     1      14.298  30.735  15.613  1.00  0.00     0.138 C 
HETATM    5  C   LIG     1      13.756  31.118  17.011  1.00  0.00     0.033 C 
HETATM    6  C   LIG     1      12.623  32.171  16.946  1.00  0.00     0.275 C 
HETATM    7  N   LIG     1      13.090  33.484  16.470  1.00  0.00     0.084 N 
HETATM    8  C   LIG     1      14.258  33.965  17.229  1.00  0.00     0.280 C 
HETATM    9  C   LIG     1      15.400  32.928  17.253  1.00  0.00     0.064 C 
HETATM   10  C   LIG     1      14.896  31.635  17.882  1.00  0.00     0.020 C 
HETATM   11  C   LIG     1      15.889  32.657  15.847  1.00  0.00     0.020 A 
HETATM   12  C   LIG     1      16.886  33.487  15.312  1.00  0.00     0.026 A 
HETATM   13  C   LIG     1      17.314  33.297  14.003  1.00  0.00     0.007 A 
HETATM   14  C   LIG     1      16.748  32.288  13.233  1.00  0.00     0.074 A 
HETATM   15  H   LIG     1      13.328  33.424  15.454  1.00  0.00     0.315 HD
ENDROOT
TORSDOF 0
ENDMDL
MODEL 10
REMARK VINA RESULT:      -4.3     17.536     19.020
REMARK  0 active torsions:
REMARK  status: ('A' for Active; 'I' for Inactive)
ROOT
HETATM    1  O   LIG     1      25.740  31.433  35.591  1.00  0.00    -0.268 OA
HETATM    2  C   LIG     1      26.157  30.374  36.137  1.00  0.00     0.247 A 
HETATM    3  N   LIG     1      26.867  29.444  35.413  1.00  0.00    -0.317 N 
HETATM    4  C   LIG     1      27.165  29.744  33.991  1.00  0.00     0.138 C 
HETATM    5  C   LIG     1      27.826  28.581  33.214  1.00  0.00     0.033 C 
HETATM    6  C   LIG     1      26.795  27.556  32.679  1.00  0.00     0.275 C 
HETATM    7  N   LIG     1      26.120  26.811  33.754  1.00  0.00     0.084 N 
HETATM    8  C   LIG     1      27.078  26.202  34.693  1.00  0.00     0.280 C 
HETATM    9  C   LIG     1      28.076  27.237  35.255  1.00  0.00     0.064 C 
HETATM   10  C   LIG     1      28.843  27.877  34.105  1.00  0.00     0.020 C 
HETATM   11  C   LIG     1      27.337  28.304  36.034  1.00  0.00     0.020 A 
HETATM   12  C   LIG     1      27.071  28.079  37.394  1.00  0.00     0.026 A 
HETATM   13  C   LIG     1      26.345  29.015  38.119  1.00  0.00     0.007 A 
HETATM   14  C   LIG     1      25.885  30.167  37.492  1.00  0.00     0.074 A 
HETATM   15  H   LIG     1      25.474  27.451  34.272  1.00  0.00     0.315 HD
ENDROOT
TORSDOF 0
ENDMDL
MODEL 11
REMARK VINA RESULT:      -4.2     17.869     19.251
REMARK  0 active torsions:
REMARK  status: ('A' for Active; 'I' for Inactive)
ROOT
HETATM    1  O   LIG     1      25.366  30.359  37.205  1.00  0.00    -0.268 OA
HETATM    2  C   LIG     1      26.534  30.825  37.090  1.00  0.00     0.247 A 
HETATM    3  N   LIG     1      27.291  30.552  35.974  1.00  0.00    -0.317 N 
HETATM    4  C   LIG     1      26.679  29.735  34.896  1.00  0.00     0.138 C 
HETATM    5  C   LIG     1      27.650  29.345  33.756  1.00  0.00     0.033 C 
HETATM    6  C   LIG     1      28.493  28.091  34.091  1.00  0.00     0.275 C 
HETATM    7  N   LIG     1      29.447  28.321  35.189  1.00  0.00     0.084 N 
HETATM    8  C   LIG     1      30.283  29.511  34.957  1.00  0.00     0.280 C 
HETATM    9  C   LIG     1      29.435  30.767  34.666  1.00  0.00     0.064 C 
HETATM   10  C   LIG     1      28.569  30.519  33.437  1.00  0.00     0.020 C 
HETATM   11  C   LIG     1      28.556  31.090  35.854  1.00  0.00     0.020 A 
HETATM   12  C   LIG     1      29.082  31.894  36.879  1.00  0.00     0.026 A 
HETATM   13  C   LIG     1      28.318  32.160  38.009  1.00  0.00     0.007 A 
HETATM   14  C   LIG     1      27.040  31.625  38.117  1.00  0.00     0.074 A 
HETATM   15  H   LIG     1      28.927  28.424  36.090  1.00  0.00     0.315 HD
ENDROOT
TORSDOF 0
ENDMDL
