REMARK  4 active torsions:
REMARK  status: ('A' for Active; 'I' for Inactive)
REMARK    1  A    between atoms: O_1  and  C_2 
REMARK    2  A    between atoms: C_2  and  C_3 
REMARK    3  A    between atoms: C_2  and  C_13 
REMARK    4  A    between atoms: C_18  and  C_19 
ROOT
HETATM    1  C   LIG     1      -0.481  -1.125  -0.187  1.00  0.00     0.185 C 
ENDROOT
BRANCH   1   2
HETATM    2  O   LIG     1       0.321  -2.108   0.422  1.00  0.00    -0.389 OA
HETATM    3  H   LIG     1      -0.052  -2.990   0.158  1.00  0.00     0.210 HD
ENDBRANCH   1   2
BRANCH   1   4
HETATM    4  C   LIG     1      -1.851  -1.042   0.489  1.00  0.00    -0.014 A 
HETATM    5  C   LIG     1      -1.990  -1.479   1.821  1.00  0.00     0.030 A 
HETATM    6  C   LIG     1      -3.227  -1.419   2.458  1.00  0.00     0.118 A 
HETATM    7  N   LIG     1      -4.309  -0.930   1.804  1.00  0.00    -0.260 NA
HETATM    8  C   LIG     1      -4.232  -0.481   0.525  1.00  0.00     0.067 A 
HETATM    9  C   LIG     1      -2.996  -0.515  -0.173  1.00  0.00     0.002 A 
HETATM   10  C   LIG     1      -5.382   0.021  -0.093  1.00  0.00     0.032 A 
HETATM   11  C   LIG     1      -2.959  -0.016  -1.495  1.00  0.00     0.014 A 
HETATM   12  C   LIG     1      -4.116   0.484  -2.099  1.00  0.00     0.001 A 
HETATM   13  C   LIG     1      -5.324   0.500  -1.402  1.00  0.00     0.002 A 
ENDBRANCH   1   4
BRANCH   1  14
HETATM   14  C   LIG     1       0.229   0.258  -0.158  1.00  0.00     0.256 C 
HETATM   15  C   LIG     1       0.815   0.640   1.238  1.00  0.00     0.044 C 
HETATM   16  C   LIG     1       2.285   1.067   1.064  1.00  0.00    -0.001 C 
HETATM   17  C   LIG     1       2.319   2.246   0.063  1.00  0.00     0.035 C 
HETATM   18  C   LIG     1       3.047  -0.145   0.472  1.00  0.00     0.040 C 
HETATM   19  C   LIG     1       1.714   1.793  -1.291  1.00  0.00     0.273 C 
HETATM   20  N   LIG     1       1.268   0.378  -1.225  1.00  0.00     0.096 N 
HETATM   21  C   LIG     1       2.459  -0.462  -0.936  1.00  0.00     0.282 C 
BRANCH  18  22
HETATM   22  C   LIG     1       4.542   0.087   0.433  1.00  0.00    -0.030 C 
HETATM   23  C   LIG     1       5.387  -0.881   0.065  1.00  0.00     0.007 C 
ENDBRANCH  18  22
ENDBRANCH   1  14
TORSDOF 4
