REMARK  4 active torsions:
REMARK  status: ('A' for Active; 'I' for Inactive)
REMARK    1  A    between atoms: O_1  and  C_2 
REMARK    2  A    between atoms: C_2  and  C_13 
REMARK    3  A    between atoms: C_2  and  C_3 
REMARK    4  A    between atoms: C_10  and  C_11 
ROOT
HETATM    1  C   LIG     1      -0.232  -1.013   0.494  1.00  0.00     0.185 C 
ENDROOT
BRANCH   1   2
HETATM    2  O   LIG     1      -1.404  -1.761   0.243  1.00  0.00    -0.389 OA
HETATM    3  H   LIG     1      -1.793  -2.052   1.109  1.00  0.00     0.210 HD
ENDBRANCH   1   2
BRANCH   1   4
HETATM    4  C   LIG     1       0.484  -1.530   1.765  1.00  0.00    -0.014 A 
HETATM    5  C   LIG     1       0.821  -0.669   2.835  1.00  0.00     0.030 A 
HETATM    6  C   LIG     1       1.379  -1.167   4.008  1.00  0.00     0.118 A 
HETATM    7  N   LIG     1       1.559  -2.499   4.164  1.00  0.00    -0.260 NA
HETATM    8  C   LIG     1       1.244  -3.383   3.189  1.00  0.00     0.067 A 
HETATM    9  C   LIG     1       1.380  -4.756   3.437  1.00  0.00     0.032 A 
HETATM   10  C   LIG     1       0.753  -2.923   1.934  1.00  0.00     0.002 A 
HETATM   11  C   LIG     1       1.064  -5.683   2.446  1.00  0.00     0.002 A 
HETATM   12  C   LIG     1       0.662  -5.247   1.184  1.00  0.00     0.001 A 
HETATM   13  C   LIG     1       0.512  -3.880   0.924  1.00  0.00     0.014 A 
ENDBRANCH   1   4
BRANCH   1  14
HETATM   14  C   LIG     1      -0.622   0.499   0.474  1.00  0.00     0.256 C 
HETATM   15  C   LIG     1       0.579   1.482   0.276  1.00  0.00     0.044 C 
HETATM   16  C   LIG     1       0.169   2.586  -0.722  1.00  0.00    -0.005 C 
HETATM   17  C   LIG     1      -1.170   3.190  -0.233  1.00  0.00     0.035 C 
HETATM   18  C   LIG     1      -0.030   1.894  -2.097  1.00  0.00     0.018 C 
HETATM   19  C   LIG     1      -2.268   2.099  -0.293  1.00  0.00     0.273 C 
HETATM   20  N   LIG     1      -1.672   0.765  -0.555  1.00  0.00     0.096 N 
HETATM   21  C   LIG     1      -1.098   0.767  -1.927  1.00  0.00     0.278 C 
BRANCH  18  22
HETATM   22  C   LIG     1      -0.404   2.863  -3.240  1.00  0.00     0.002 C 
HETATM   23  C   LIG     1       0.683   3.891  -3.530  1.00  0.00     0.005 C 
ENDBRANCH  18  22
ENDBRANCH   1  14
TORSDOF 4
