REMARK  0 active torsions:
REMARK  status: ('A' for Active; 'I' for Inactive)
ROOT
HETATM    1  O   LIG     1       1.954  -2.733  -0.679  1.00  0.00    -0.268 OA
HETATM    2  C   LIG     1       1.964  -1.498  -0.417  1.00  0.00     0.247 A 
HETATM    3  N   LIG     1       0.831  -0.871   0.047  1.00  0.00    -0.317 N 
HETATM    4  C   LIG     1      -0.383  -1.695   0.272  1.00  0.00     0.138 C 
HETATM    5  C   LIG     1      -1.649  -0.886   0.640  1.00  0.00     0.033 C 
HETATM    6  C   LIG     1      -2.382  -0.323  -0.602  1.00  0.00     0.275 C 
HETATM    7  N   LIG     1      -1.602   0.707  -1.308  1.00  0.00     0.084 N 
HETATM    8  C   LIG     1      -1.141   1.772  -0.400  1.00  0.00     0.280 C 
HETATM    9  C   LIG     1      -0.374   1.207   0.814  1.00  0.00     0.064 C 
HETATM   10  C   LIG     1      -1.278   0.252   1.584  1.00  0.00     0.020 C 
HETATM   11  C   LIG     1       0.867   0.475   0.352  1.00  0.00     0.020 A 
HETATM   12  C   LIG     1       2.049   1.210   0.166  1.00  0.00     0.026 A 
HETATM   13  C   LIG     1       3.189   0.575  -0.312  1.00  0.00     0.007 A 
HETATM   14  C   LIG     1       3.149  -0.783  -0.605  1.00  0.00     0.074 A 
HETATM   15  H   LIG     1      -0.781   0.263  -1.779  1.00  0.00     0.315 HD
ENDROOT
TORSDOF 0
