REMARK  2 active torsions:
REMARK  status: ('A' for Active; 'I' for Inactive)
REMARK    1  A    between atoms: C_5  and  O_6 
REMARK    2  A    between atoms: C_10  and  O_11 
ROOT
HETATM    1  C   LIG     1       3.570  -1.413   0.530  1.00  0.00     0.002 A 
HETATM    2  C   LIG     1       3.830  -0.062   0.286  1.00  0.00     0.001 A 
HETATM    3  C   LIG     1       2.777   0.823   0.039  1.00  0.00     0.014 A 
HETATM    4  C   LIG     1       1.450   0.361   0.032  1.00  0.00     0.019 A 
HETATM    5  C   LIG     1       0.315   1.323  -0.265  1.00  0.00     0.258 C 
HETATM    6  N   LIG     1      -0.986   0.677  -0.077  1.00  0.00    -0.336 N 
HETATM    7  C   LIG     1      -2.277   1.319  -0.247  1.00  0.00     0.130 A 
HETATM    8  C   LIG     1      -3.333   0.225   0.027  1.00  0.00     0.059 A 
HETATM    9  C   LIG     1      -2.578  -1.114   0.191  1.00  0.00     0.189 A 
HETATM   10  C   LIG     1      -1.157  -0.703   0.156  1.00  0.00     0.134 A 
HETATM   11  N   LIG     1      -0.152  -1.503   0.325  1.00  0.00    -0.232 NA
HETATM   12  C   LIG     1       1.192  -1.006   0.289  1.00  0.00     0.069 A 
HETATM   13  C   LIG     1       2.255  -1.884   0.533  1.00  0.00     0.032 A 
ENDROOT
BRANCH   5  14
HETATM   14  O   LIG     1       0.412   1.772  -1.591  1.00  0.00    -0.372 OA
HETATM   15  H   LIG     1       1.045   2.537  -1.594  1.00  0.00     0.212 HD
ENDBRANCH   5  14
BRANCH   9  16
HETATM   16  O   LIG     1      -2.874  -2.015  -0.848  1.00  0.00    -0.388 OA
HETATM   17  H   LIG     1      -2.640  -1.577  -1.709  1.00  0.00     0.210 HD
ENDBRANCH   9  16
TORSDOF 2
