MODEL 1
REMARK VINA RESULT:      -6.7      0.000      0.000
REMARK  2 active torsions:
REMARK  status: ('A' for Active; 'I' for Inactive)
REMARK    1  A    between atoms: C_5  and  O_6 
REMARK    2  A    between atoms: C_10  and  O_11 
ROOT
HETATM    1  C   LIG     1      19.496  39.037  20.562  1.00  0.00     0.002 A 
HETATM    2  C   LIG     1      19.000  39.404  21.816  1.00  0.00     0.001 A 
HETATM    3  C   LIG     1      17.961  38.675  22.401  1.00  0.00     0.014 A 
HETATM    4  C   LIG     1      17.407  37.569  21.733  1.00  0.00     0.019 A 
HETATM    5  C   LIG     1      16.261  36.801  22.363  1.00  0.00     0.258 C 
HETATM    6  N   LIG     1      15.934  35.607  21.580  1.00  0.00    -0.336 N 
HETATM    7  C   LIG     1      14.909  34.635  21.916  1.00  0.00     0.130 A 
HETATM    8  C   LIG     1      14.925  33.592  20.775  1.00  0.00     0.059 A 
HETATM    9  C   LIG     1      15.891  34.114  19.687  1.00  0.00     0.189 A 
HETATM   10  C   LIG     1      16.478  35.320  20.311  1.00  0.00     0.134 A 
HETATM   11  N   LIG     1      17.402  36.054  19.776  1.00  0.00    -0.232 NA
HETATM   12  C   LIG     1      17.920  37.197  20.468  1.00  0.00     0.069 A 
HETATM   13  C   LIG     1      18.959  37.936  19.890  1.00  0.00     0.032 A 
ENDROOT
BRANCH   5  14
HETATM   14  O   LIG     1      15.125  37.622  22.435  1.00  0.00    -0.372 OA
HETATM   15  H   LIG     1      15.416  38.542  22.200  1.00  0.00     0.212 HD
ENDBRANCH   5  14
BRANCH   9  16
HETATM   16  O   LIG     1      15.215  34.435  18.495  1.00  0.00    -0.388 OA
HETATM   17  H   LIG     1      14.277  34.666  18.728  1.00  0.00     0.210 HD
ENDBRANCH   9  16
TORSDOF 2
ENDMDL
MODEL 2
REMARK VINA RESULT:      -6.4      2.108      2.690
REMARK  2 active torsions:
REMARK  status: ('A' for Active; 'I' for Inactive)
REMARK    1  A    between atoms: C_5  and  O_6 
REMARK    2  A    between atoms: C_10  and  O_11 
ROOT
HETATM    1  C   LIG     1      19.095  38.512  18.483  1.00  0.00     0.002 A 
HETATM    2  C   LIG     1      19.230  39.671  19.251  1.00  0.00     0.001 A 
HETATM    3  C   LIG     1      18.848  39.673  20.595  1.00  0.00     0.014 A 
HETATM    4  C   LIG     1      18.324  38.510  21.184  1.00  0.00     0.019 A 
HETATM    5  C   LIG     1      17.886  38.528  22.637  1.00  0.00     0.258 C 
HETATM    6  N   LIG     1      17.513  37.186  23.091  1.00  0.00    -0.336 N 
HETATM    7  C   LIG     1      17.077  36.843  24.433  1.00  0.00     0.130 A 
HETATM    8  C   LIG     1      16.769  35.330  24.404  1.00  0.00     0.059 A 
HETATM    9  C   LIG     1      16.885  34.864  22.934  1.00  0.00     0.189 A 
HETATM   10  C   LIG     1      17.390  36.069  22.240  1.00  0.00     0.134 A 
HETATM   11  N   LIG     1      17.702  36.122  20.984  1.00  0.00    -0.232 NA
HETATM   12  C   LIG     1      18.198  37.336  20.405  1.00  0.00     0.069 A 
HETATM   13  C   LIG     1      18.582  37.347  19.058  1.00  0.00     0.032 A 
ENDROOT
BRANCH   5  14
HETATM   14  O   LIG     1      16.782  39.381  22.786  1.00  0.00    -0.372 OA
HETATM   15  H   LIG     1      16.932  40.159  22.187  1.00  0.00     0.212 HD
ENDBRANCH   5  14
BRANCH   9  16
HETATM   16  O   LIG     1      15.644  34.456  22.412  1.00  0.00    -0.388 OA
HETATM   17  H   LIG     1      14.944  35.056  22.784  1.00  0.00     0.210 HD
ENDBRANCH   9  16
TORSDOF 2
ENDMDL
MODEL 3
REMARK VINA RESULT:      -5.9      6.487      8.822
REMARK  2 active torsions:
REMARK  status: ('A' for Active; 'I' for Inactive)
REMARK    1  A    between atoms: C_5  and  O_6 
REMARK    2  A    between atoms: C_10  and  O_11 
ROOT
HETATM    1  C   LIG     1      13.241  31.265  17.224  1.00  0.00     0.002 A 
HETATM    2  C   LIG     1      13.238  30.237  16.278  1.00  0.00     0.001 A 
HETATM    3  C   LIG     1      14.106  30.286  15.184  1.00  0.00     0.014 A 
HETATM    4  C   LIG     1      14.987  31.370  15.027  1.00  0.00     0.019 A 
HETATM    5  C   LIG     1      15.907  31.429  13.821  1.00  0.00     0.258 C 
HETATM    6  N   LIG     1      16.840  32.554  13.925  1.00  0.00    -0.336 N 
HETATM    7  C   LIG     1      17.873  32.882  12.960  1.00  0.00     0.130 A 
HETATM    8  C   LIG     1      18.560  34.159  13.493  1.00  0.00     0.059 A 
HETATM    9  C   LIG     1      17.752  34.639  14.720  1.00  0.00     0.189 A 
HETATM   10  C   LIG     1      16.762  33.557  14.913  1.00  0.00     0.134 A 
HETATM   11  N   LIG     1      15.903  33.504  15.882  1.00  0.00    -0.232 NA
HETATM   12  C   LIG     1      14.993  32.403  15.993  1.00  0.00     0.069 A 
HETATM   13  C   LIG     1      14.116  32.344  17.084  1.00  0.00     0.032 A 
ENDROOT
BRANCH   5  14
HETATM   14  O   LIG     1      15.144  31.578  12.653  1.00  0.00    -0.372 OA
HETATM   15  H   LIG     1      15.072  32.552  12.474  1.00  0.00     0.212 HD
ENDBRANCH   5  14
BRANCH   9  16
HETATM   16  O   LIG     1      17.119  35.873  14.482  1.00  0.00    -0.388 OA
HETATM   17  H   LIG     1      16.863  35.906  13.522  1.00  0.00     0.210 HD
ENDBRANCH   9  16
TORSDOF 2
ENDMDL
MODEL 4
REMARK VINA RESULT:      -5.5      6.531      9.079
REMARK  2 active torsions:
REMARK  status: ('A' for Active; 'I' for Inactive)
REMARK    1  A    between atoms: C_5  and  O_6 
REMARK    2  A    between atoms: C_10  and  O_11 
ROOT
HETATM    1  C   LIG     1      13.750  29.212  14.320  1.00  0.00     0.002 A 
HETATM    2  C   LIG     1      13.310  29.770  15.523  1.00  0.00     0.001 A 
HETATM    3  C   LIG     1      13.884  30.952  16.000  1.00  0.00     0.014 A 
HETATM    4  C   LIG     1      14.908  31.585  15.277  1.00  0.00     0.019 A 
HETATM    5  C   LIG     1      15.545  32.852  15.817  1.00  0.00     0.258 C 
HETATM    6  N   LIG     1      16.478  33.428  14.846  1.00  0.00    -0.336 N 
HETATM    7  C   LIG     1      17.234  34.654  15.030  1.00  0.00     0.130 A 
HETATM    8  C   LIG     1      18.093  34.816  13.756  1.00  0.00     0.059 A 
HETATM    9  C   LIG     1      17.918  33.531  12.914  1.00  0.00     0.189 A 
HETATM   10  C   LIG     1      16.877  32.785  13.656  1.00  0.00     0.134 A 
HETATM   11  N   LIG     1      16.361  31.660  13.274  1.00  0.00    -0.232 NA
HETATM   12  C   LIG     1      15.343  31.020  14.055  1.00  0.00     0.069 A 
HETATM   13  C   LIG     1      14.763  29.835  13.587  1.00  0.00     0.032 A 
ENDROOT
BRANCH   5  14
HETATM   14  O   LIG     1      16.241  32.563  17.000  1.00  0.00    -0.372 OA
HETATM   15  H   LIG     1      17.168  32.898  16.882  1.00  0.00     0.212 HD
ENDBRANCH   5  14
BRANCH   9  16
HETATM   16  O   LIG     1      19.112  32.792  12.830  1.00  0.00    -0.388 OA
HETATM   17  H   LIG     1      18.879  31.827  12.884  1.00  0.00     0.210 HD
ENDBRANCH   9  16
TORSDOF 2
ENDMDL
MODEL 5
REMARK VINA RESULT:      -5.3      2.390      4.102
REMARK  2 active torsions:
REMARK  status: ('A' for Active; 'I' for Inactive)
REMARK    1  A    between atoms: C_5  and  O_6 
REMARK    2  A    between atoms: C_10  and  O_11 
ROOT
HETATM    1  C   LIG     1      19.722  39.163  18.874  1.00  0.00     0.002 A 
HETATM    2  C   LIG     1      19.027  38.114  18.265  1.00  0.00     0.001 A 
HETATM    3  C   LIG     1      18.225  37.265  19.031  1.00  0.00     0.014 A 
HETATM    4  C   LIG     1      18.111  37.457  20.419  1.00  0.00     0.019 A 
HETATM    5  C   LIG     1      17.260  36.513  21.247  1.00  0.00     0.258 C 
HETATM    6  N   LIG     1      17.157  36.975  22.633  1.00  0.00    -0.336 N 
HETATM    7  C   LIG     1      16.395  36.324  23.683  1.00  0.00     0.130 A 
HETATM    8  C   LIG     1      16.629  37.164  24.959  1.00  0.00     0.059 A 
HETATM    9  C   LIG     1      17.701  38.225  24.622  1.00  0.00     0.189 A 
HETATM   10  C   LIG     1      17.908  38.042  23.168  1.00  0.00     0.134 A 
HETATM   11  N   LIG     1      18.686  38.773  22.435  1.00  0.00    -0.232 NA
HETATM   12  C   LIG     1      18.808  38.527  21.028  1.00  0.00     0.069 A 
HETATM   13  C   LIG     1      19.612  39.370  20.251  1.00  0.00     0.032 A 
ENDROOT
BRANCH   5  14
HETATM   14  O   LIG     1      17.830  35.231  21.236  1.00  0.00    -0.372 OA
HETATM   15  H   LIG     1      18.736  35.312  21.633  1.00  0.00     0.212 HD
ENDBRANCH   5  14
BRANCH   9  16
HETATM   16  O   LIG     1      18.893  38.013  25.338  1.00  0.00    -0.388 OA
HETATM   17  H   LIG     1      19.408  38.863  25.333  1.00  0.00     0.210 HD
ENDBRANCH   9  16
TORSDOF 2
ENDMDL
MODEL 6
REMARK VINA RESULT:      -5.3      6.519      9.625
REMARK  2 active torsions:
REMARK  status: ('A' for Active; 'I' for Inactive)
REMARK    1  A    between atoms: C_5  and  O_6 
REMARK    2  A    between atoms: C_10  and  O_11 
ROOT
HETATM    1  C   LIG     1      14.297  27.674  13.308  1.00  0.00     0.002 A 
HETATM    2  C   LIG     1      13.130  27.857  14.055  1.00  0.00     0.001 A 
HETATM    3  C   LIG     1      12.982  28.990  14.860  1.00  0.00     0.014 A 
HETATM    4  C   LIG     1      14.004  29.951  14.926  1.00  0.00     0.019 A 
HETATM    5  C   LIG     1      13.847  31.163  15.825  1.00  0.00     0.258 C 
HETATM    6  N   LIG     1      14.950  32.107  15.635  1.00  0.00    -0.336 N 
HETATM    7  C   LIG     1      15.094  33.382  16.314  1.00  0.00     0.130 A 
HETATM    8  C   LIG     1      16.423  33.985  15.807  1.00  0.00     0.059 A 
HETATM    9  C   LIG     1      17.114  32.910  14.937  1.00  0.00     0.189 A 
HETATM   10  C   LIG     1      16.101  31.834  14.868  1.00  0.00     0.134 A 
HETATM   11  N   LIG     1      16.226  30.745  14.177  1.00  0.00    -0.232 NA
HETATM   12  C   LIG     1      15.179  29.765  14.160  1.00  0.00     0.069 A 
HETATM   13  C   LIG     1      15.318  28.626  13.359  1.00  0.00     0.032 A 
ENDROOT
BRANCH   5  14
HETATM   14  O   LIG     1      13.823  30.756  17.167  1.00  0.00    -0.372 OA
HETATM   15  H   LIG     1      12.874  30.590  17.405  1.00  0.00     0.212 HD
ENDBRANCH   5  14
BRANCH   9  16
HETATM   16  O   LIG     1      18.308  32.449  15.521  1.00  0.00    -0.388 OA
HETATM   17  H   LIG     1      18.349  32.799  16.451  1.00  0.00     0.210 HD
ENDBRANCH   9  16
TORSDOF 2
ENDMDL
MODEL 7
REMARK VINA RESULT:      -5.3      1.879      4.619
REMARK  2 active torsions:
REMARK  status: ('A' for Active; 'I' for Inactive)
REMARK    1  A    between atoms: C_5  and  O_6 
REMARK    2  A    between atoms: C_10  and  O_11 
ROOT
HETATM    1  C   LIG     1      15.212  33.565  20.082  1.00  0.00     0.002 A 
HETATM    2  C   LIG     1      14.672  33.860  21.337  1.00  0.00     0.001 A 
HETATM    3  C   LIG     1      15.127  34.969  22.055  1.00  0.00     0.014 A 
HETATM    4  C   LIG     1      16.131  35.795  21.522  1.00  0.00     0.019 A 
HETATM    5  C   LIG     1      16.639  36.981  22.320  1.00  0.00     0.258 C 
HETATM    6  N   LIG     1      17.569  37.789  21.528  1.00  0.00    -0.336 N 
HETATM    7  C   LIG     1      18.216  39.009  21.976  1.00  0.00     0.130 A 
HETATM    8  C   LIG     1      19.118  39.464  20.808  1.00  0.00     0.059 A 
HETATM    9  C   LIG     1      19.086  38.347  19.739  1.00  0.00     0.189 A 
HETATM   10  C   LIG     1      18.074  37.407  20.268  1.00  0.00     0.134 A 
HETATM   11  N   LIG     1      17.667  36.339  19.658  1.00  0.00    -0.232 NA
HETATM   12  C   LIG     1      16.667  35.497  20.247  1.00  0.00     0.069 A 
HETATM   13  C   LIG     1      16.205  34.381  19.538  1.00  0.00     0.032 A 
ENDROOT
BRANCH   5  14
HETATM   14  O   LIG     1      17.299  36.526  23.472  1.00  0.00    -0.372 OA
HETATM   15  H   LIG     1      18.258  36.760  23.369  1.00  0.00     0.212 HD
ENDBRANCH   5  14
BRANCH   9  16
HETATM   16  O   LIG     1      20.338  37.721  19.595  1.00  0.00    -0.388 OA
HETATM   17  H   LIG     1      20.178  36.761  19.391  1.00  0.00     0.210 HD
ENDBRANCH   9  16
TORSDOF 2
ENDMDL
MODEL 8
REMARK VINA RESULT:      -5.2      6.804     10.059
REMARK  2 active torsions:
REMARK  status: ('A' for Active; 'I' for Inactive)
REMARK    1  A    between atoms: C_5  and  O_6 
REMARK    2  A    between atoms: C_10  and  O_11 
ROOT
HETATM    1  C   LIG     1      13.600  27.289  13.411  1.00  0.00     0.002 A 
HETATM    2  C   LIG     1      14.853  27.500  12.832  1.00  0.00     0.001 A 
HETATM    3  C   LIG     1      15.601  28.632  13.166  1.00  0.00     0.014 A 
HETATM    4  C   LIG     1      15.097  29.568  14.084  1.00  0.00     0.019 A 
HETATM    5  C   LIG     1      15.903  30.809  14.420  1.00  0.00     0.258 C 
HETATM    6  N   LIG     1      15.272  31.571  15.500  1.00  0.00    -0.336 N 
HETATM    7  C   LIG     1      15.794  32.792  16.085  1.00  0.00     0.130 A 
HETATM    8  C   LIG     1      14.763  33.226  17.150  1.00  0.00     0.059 A 
HETATM    9  C   LIG     1      13.543  32.286  17.021  1.00  0.00     0.189 A 
HETATM   10  C   LIG     1      13.991  31.293  16.020  1.00  0.00     0.134 A 
HETATM   11  N   LIG     1      13.304  30.261  15.643  1.00  0.00    -0.232 NA
HETATM   12  C   LIG     1      13.831  29.345  14.675  1.00  0.00     0.069 A 
HETATM   13  C   LIG     1      13.090  28.208  14.331  1.00  0.00     0.032 A 
ENDROOT
BRANCH   5  14
HETATM   14  O   LIG     1      16.003  31.628  13.285  1.00  0.00    -0.372 OA
HETATM   15  H   LIG     1      16.420  32.480  13.576  1.00  0.00     0.212 HD
ENDBRANCH   5  14
BRANCH   9  16
HETATM   16  O   LIG     1      12.395  32.971  16.582  1.00  0.00    -0.388 OA
HETATM   17  H   LIG     1      12.687  33.833  16.183  1.00  0.00     0.210 HD
ENDBRANCH   9  16
TORSDOF 2
ENDMDL
MODEL 9
REMARK VINA RESULT:      -5.2      3.135      6.230
REMARK  2 active torsions:
REMARK  status: ('A' for Active; 'I' for Inactive)
REMARK    1  A    between atoms: C_5  and  O_6 
REMARK    2  A    between atoms: C_10  and  O_11 
ROOT
HETATM    1  C   LIG     1      14.888  31.957  15.238  1.00  0.00     0.002 A 
HETATM    2  C   LIG     1      14.284  30.905  15.932  1.00  0.00     0.001 A 
HETATM    3  C   LIG     1      14.159  30.961  17.323  1.00  0.00     0.014 A 
HETATM    4  C   LIG     1      14.640  32.073  18.033  1.00  0.00     0.019 A 
HETATM    5  C   LIG     1      14.525  32.113  19.546  1.00  0.00     0.258 C 
HETATM    6  N   LIG     1      14.947  33.413  20.072  1.00  0.00    -0.336 N 
HETATM    7  C   LIG     1      14.935  33.799  21.472  1.00  0.00     0.130 A 
HETATM    8  C   LIG     1      15.499  35.236  21.520  1.00  0.00     0.059 A 
HETATM    9  C   LIG     1      15.996  35.584  20.098  1.00  0.00     0.189 A 
HETATM   10  C   LIG     1      15.562  34.418  19.297  1.00  0.00     0.134 A 
HETATM   11  N   LIG     1      15.711  34.305  18.015  1.00  0.00    -0.232 NA
HETATM   12  C   LIG     1      15.242  33.139  17.325  1.00  0.00     0.069 A 
HETATM   13  C   LIG     1      15.365  33.071  15.932  1.00  0.00     0.032 A 
ENDROOT
BRANCH   5  14
HETATM   14  O   LIG     1      15.332  31.111  20.107  1.00  0.00    -0.372 OA
HETATM   15  H   LIG     1      14.869  30.788  20.923  1.00  0.00     0.212 HD
ENDBRANCH   5  14
BRANCH   9  16
HETATM   16  O   LIG     1      17.393  35.741  20.053  1.00  0.00    -0.388 OA
HETATM   17  H   LIG     1      17.608  36.659  20.369  1.00  0.00     0.210 HD
ENDBRANCH   9  16
TORSDOF 2
ENDMDL
MODEL 10
REMARK VINA RESULT:      -4.8      3.581      6.890
REMARK  2 active torsions:
REMARK  status: ('A' for Active; 'I' for Inactive)
REMARK    1  A    between atoms: C_5  and  O_6 
REMARK    2  A    between atoms: C_10  and  O_11 
ROOT
HETATM    1  C   LIG     1      13.598  30.169  16.033  1.00  0.00     0.002 A 
HETATM    2  C   LIG     1      14.168  31.040  15.100  1.00  0.00     0.001 A 
HETATM    3  C   LIG     1      14.775  32.225  15.524  1.00  0.00     0.014 A 
HETATM    4  C   LIG     1      14.815  32.551  16.890  1.00  0.00     0.019 A 
HETATM    5  C   LIG     1      15.451  33.854  17.339  1.00  0.00     0.258 C 
HETATM    6  N   LIG     1      15.520  33.930  18.800  1.00  0.00    -0.336 N 
HETATM    7  C   LIG     1      16.097  35.025  19.559  1.00  0.00     0.130 A 
HETATM    8  C   LIG     1      15.900  34.658  21.047  1.00  0.00     0.059 A 
HETATM    9  C   LIG     1      15.029  33.382  21.096  1.00  0.00     0.189 A 
HETATM   10  C   LIG     1      14.903  33.008  19.670  1.00  0.00     0.134 A 
HETATM   11  N   LIG     1      14.300  31.947  19.235  1.00  0.00    -0.232 NA
HETATM   12  C   LIG     1      14.245  31.662  17.831  1.00  0.00     0.069 A 
HETATM   13  C   LIG     1      13.637  30.478  17.395  1.00  0.00     0.032 A 
ENDROOT
BRANCH   5  14
HETATM   14  O   LIG     1      14.695  34.936  16.863  1.00  0.00    -0.372 OA
HETATM   15  H   LIG     1      13.903  35.021  17.456  1.00  0.00     0.212 HD
ENDBRANCH   5  14
BRANCH   9  16
HETATM   16  O   LIG     1      13.769  33.628  21.672  1.00  0.00    -0.388 OA
HETATM   17  H   LIG     1      13.121  32.987  21.276  1.00  0.00     0.210 HD
ENDBRANCH   9  16
TORSDOF 2
ENDMDL
MODEL 11
REMARK VINA RESULT:      -4.7      9.619     12.020
REMARK  2 active torsions:
REMARK  status: ('A' for Active; 'I' for Inactive)
REMARK    1  A    between atoms: C_5  and  O_6 
REMARK    2  A    between atoms: C_10  and  O_11 
ROOT
HETATM    1  C   LIG     1      13.861  31.010  15.638  1.00  0.00     0.002 A 
HETATM    2  C   LIG     1      15.198  30.883  15.253  1.00  0.00     0.001 A 
HETATM    3  C   LIG     1      15.586  29.851  14.393  1.00  0.00     0.014 A 
HETATM    4  C   LIG     1      14.636  28.934  13.913  1.00  0.00     0.019 A 
HETATM    5  C   LIG     1      15.071  27.801  13.003  1.00  0.00     0.258 C 
HETATM    6  N   LIG     1      13.915  27.055  12.500  1.00  0.00    -0.336 N 
HETATM    7  C   LIG     1      13.973  25.930  11.584  1.00  0.00     0.130 A 
HETATM    8  C   LIG     1      12.511  25.471  11.386  1.00  0.00     0.059 A 
HETATM    9  C   LIG     1      11.636  26.280  12.370  1.00  0.00     0.189 A 
HETATM   10  C   LIG     1      12.594  27.243  12.956  1.00  0.00     0.134 A 
HETATM   11  N   LIG     1      12.283  28.177  13.798  1.00  0.00    -0.232 NA
HETATM   12  C   LIG     1      13.283  29.074  14.299  1.00  0.00     0.069 A 
HETATM   13  C   LIG     1      12.905  30.109  15.162  1.00  0.00     0.032 A 
ENDROOT
BRANCH   5  14
HETATM   14  O   LIG     1      15.906  26.922  13.710  1.00  0.00    -0.372 OA
HETATM   15  H   LIG     1      15.391  26.086  13.857  1.00  0.00     0.212 HD
ENDBRANCH   5  14
BRANCH   9  16
HETATM   16  O   LIG     1      11.065  25.461  13.362  1.00  0.00    -0.388 OA
HETATM   17  H   LIG     1      11.416  25.758  14.243  1.00  0.00     0.210 HD
ENDBRANCH   9  16
TORSDOF 2
ENDMDL
MODEL 12
REMARK VINA RESULT:      -4.5     18.725     19.336
REMARK  2 active torsions:
REMARK  status: ('A' for Active; 'I' for Inactive)
REMARK    1  A    between atoms: C_5  and  O_6 
REMARK    2  A    between atoms: C_10  and  O_11 
ROOT
HETATM    1  C   LIG     1      26.312  31.822  38.099  1.00  0.00     0.002 A 
HETATM    2  C   LIG     1      27.632  32.273  38.018  1.00  0.00     0.001 A 
HETATM    3  C   LIG     1      28.486  31.774  37.031  1.00  0.00     0.014 A 
HETATM    4  C   LIG     1      28.025  30.814  36.114  1.00  0.00     0.019 A 
HETATM    5  C   LIG     1      28.967  30.256  35.064  1.00  0.00     0.258 C 
HETATM    6  N   LIG     1      28.254  29.388  34.124  1.00  0.00    -0.336 N 
HETATM    7  C   LIG     1      28.847  28.717  32.981  1.00  0.00     0.130 A 
HETATM    8  C   LIG     1      27.708  27.901  32.331  1.00  0.00     0.059 A 
HETATM    9  C   LIG     1      26.478  28.004  33.262  1.00  0.00     0.189 A 
HETATM   10  C   LIG     1      26.917  28.972  34.291  1.00  0.00     0.134 A 
HETATM   11  N   LIG     1      26.172  29.416  35.254  1.00  0.00    -0.232 NA
HETATM   12  C   LIG     1      26.685  30.368  36.195  1.00  0.00     0.069 A 
HETATM   13  C   LIG     1      25.839  30.873  37.189  1.00  0.00     0.032 A 
ENDROOT
BRANCH   5  14
HETATM   14  O   LIG     1      29.983  29.514  35.686  1.00  0.00    -0.372 OA
HETATM   15  H   LIG     1      30.344  30.075  36.422  1.00  0.00     0.212 HD
ENDBRANCH   5  14
BRANCH   9  16
HETATM   16  O   LIG     1      26.149  26.763  33.837  1.00  0.00    -0.388 OA
HETATM   17  H   LIG     1      26.846  26.107  33.569  1.00  0.00     0.210 HD
ENDBRANCH   9  16
TORSDOF 2
ENDMDL
MODEL 13
REMARK VINA RESULT:      -4.3      7.582      9.782
REMARK  2 active torsions:
REMARK  status: ('A' for Active; 'I' for Inactive)
REMARK    1  A    between atoms: C_5  and  O_6 
REMARK    2  A    between atoms: C_10  and  O_11 
ROOT
HETATM    1  C   LIG     1      15.312  32.890  16.378  1.00  0.00     0.002 A 
HETATM    2  C   LIG     1      13.984  32.757  16.790  1.00  0.00     0.001 A 
HETATM    3  C   LIG     1      13.222  31.665  16.365  1.00  0.00     0.014 A 
HETATM    4  C   LIG     1      13.785  30.695  15.519  1.00  0.00     0.019 A 
HETATM    5  C   LIG     1      12.942  29.528  15.040  1.00  0.00     0.258 C 
HETATM    6  N   LIG     1      13.754  28.562  14.296  1.00  0.00    -0.336 N 
HETATM    7  C   LIG     1      13.270  27.318  13.725  1.00  0.00     0.130 A 
HETATM    8  C   LIG     1      14.484  26.676  13.018  1.00  0.00     0.059 A 
HETATM    9  C   LIG     1      15.641  27.701  13.066  1.00  0.00     0.189 A 
HETATM   10  C   LIG     1      15.092  28.785  13.910  1.00  0.00     0.134 A 
HETATM   11  N   LIG     1      15.749  29.840  14.279  1.00  0.00    -0.232 NA
HETATM   12  C   LIG     1      15.133  30.830  15.112  1.00  0.00     0.069 A 
HETATM   13  C   LIG     1      15.886  31.929  15.542  1.00  0.00     0.032 A 
ENDROOT
BRANCH   5  14
HETATM   14  O   LIG     1      11.917  29.998  14.205  1.00  0.00    -0.372 OA
HETATM   15  H   LIG     1      11.436  30.708  14.706  1.00  0.00     0.212 HD
ENDBRANCH   5  14
BRANCH   9  16
HETATM   16  O   LIG     1      15.979  28.173  11.785  1.00  0.00    -0.388 OA
HETATM   17  H   LIG     1      15.485  27.627  11.117  1.00  0.00     0.210 HD
ENDBRANCH   9  16
TORSDOF 2
ENDMDL
MODEL 14
REMARK VINA RESULT:      -4.3     18.575     19.387
REMARK  2 active torsions:
REMARK  status: ('A' for Active; 'I' for Inactive)
REMARK    1  A    between atoms: C_5  and  O_6 
REMARK    2  A    between atoms: C_10  and  O_11 
ROOT
HETATM    1  C   LIG     1      27.044  26.851  32.184  1.00  0.00     0.002 A 
HETATM    2  C   LIG     1      27.945  27.731  31.579  1.00  0.00     0.001 A 
HETATM    3  C   LIG     1      28.403  28.855  32.273  1.00  0.00     0.014 A 
HETATM    4  C   LIG     1      27.959  29.108  33.582  1.00  0.00     0.019 A 
HETATM    5  C   LIG     1      28.439  30.345  34.318  1.00  0.00     0.258 C 
HETATM    6  N   LIG     1      27.980  30.343  35.708  1.00  0.00    -0.336 N 
HETATM    7  C   LIG     1      28.284  31.361  36.698  1.00  0.00     0.130 A 
HETATM    8  C   LIG     1      27.550  30.931  37.987  1.00  0.00     0.059 A 
HETATM    9  C   LIG     1      26.672  29.709  37.633  1.00  0.00     0.189 A 
HETATM   10  C   LIG     1      27.055  29.417  36.234  1.00  0.00     0.134 A 
HETATM   11  N   LIG     1      26.610  28.417  35.539  1.00  0.00    -0.232 NA
HETATM   12  C   LIG     1      27.055  28.208  34.193  1.00  0.00     0.069 A 
HETATM   13  C   LIG     1      26.601  27.087  33.487  1.00  0.00     0.032 A 
ENDROOT
BRANCH   5  14
HETATM   14  O   LIG     1      27.948  31.494  33.679  1.00  0.00    -0.372 OA
HETATM   15  H   LIG     1      26.961  31.488  33.788  1.00  0.00     0.212 HD
ENDBRANCH   5  14
BRANCH   9  16
HETATM   16  O   LIG     1      25.300  30.001  37.735  1.00  0.00    -0.388 OA
HETATM   17  H   LIG     1      24.984  29.681  38.621  1.00  0.00     0.210 HD
ENDBRANCH   9  16
TORSDOF 2
ENDMDL
MODEL 15
REMARK VINA RESULT:      -4.1     15.313     16.084
REMARK  2 active torsions:
REMARK  status: ('A' for Active; 'I' for Inactive)
REMARK    1  A    between atoms: C_5  and  O_6 
REMARK    2  A    between atoms: C_10  and  O_11 
ROOT
HETATM    1  C   LIG     1      27.653  26.151  19.474  1.00  0.00     0.002 A 
HETATM    2  C   LIG     1      28.061  25.749  20.749  1.00  0.00     0.001 A 
HETATM    3  C   LIG     1      27.547  24.579  21.315  1.00  0.00     0.014 A 
HETATM    4  C   LIG     1      26.614  23.800  20.608  1.00  0.00     0.019 A 
HETATM    5  C   LIG     1      26.040  22.547  21.242  1.00  0.00     0.258 C 
HETATM    6  N   LIG     1      25.208  21.809  20.289  1.00  0.00    -0.336 N 
HETATM    7  C   LIG     1      24.533  20.552  20.559  1.00  0.00     0.130 A 
HETATM    8  C   LIG     1      23.764  20.199  19.266  1.00  0.00     0.059 A 
HETATM    9  C   LIG     1      23.895  21.405  18.308  1.00  0.00     0.189 A 
HETATM   10  C   LIG     1      24.835  22.298  19.021  1.00  0.00     0.134 A 
HETATM   11  N   LIG     1      25.290  23.417  18.553  1.00  0.00    -0.232 NA
HETATM   12  C   LIG     1      26.212  24.207  19.315  1.00  0.00     0.069 A 
HETATM   13  C   LIG     1      26.732  25.382  18.758  1.00  0.00     0.032 A 
ENDROOT
BRANCH   5  14
HETATM   14  O   LIG     1      25.257  22.897  22.353  1.00  0.00    -0.372 OA
HETATM   15  H   LIG     1      25.624  23.747  22.712  1.00  0.00     0.212 HD
ENDBRANCH   5  14
BRANCH   9  16
HETATM   16  O   LIG     1      22.658  22.038  18.087  1.00  0.00    -0.388 OA
HETATM   17  H   LIG     1      22.133  21.472  17.461  1.00  0.00     0.210 HD
ENDBRANCH   9  16
TORSDOF 2
ENDMDL
MODEL 16
REMARK VINA RESULT:      -4.1     15.658     16.442
REMARK  2 active torsions:
REMARK  status: ('A' for Active; 'I' for Inactive)
REMARK    1  A    between atoms: C_5  and  O_6 
REMARK    2  A    between atoms: C_10  and  O_11 
ROOT
HETATM    1  C   LIG     1      24.309  21.706  24.603  1.00  0.00     0.002 A 
HETATM    2  C   LIG     1      23.366  20.876  23.990  1.00  0.00     0.001 A 
HETATM    3  C   LIG     1      23.193  20.913  22.604  1.00  0.00     0.014 A 
HETATM    4  C   LIG     1      23.963  21.785  21.816  1.00  0.00     0.019 A 
HETATM    5  C   LIG     1      23.748  21.838  20.315  1.00  0.00     0.258 C 
HETATM    6  N   LIG     1      24.746  22.695  19.671  1.00  0.00    -0.336 N 
HETATM    7  C   LIG     1      24.848  22.941  18.243  1.00  0.00     0.130 A 
HETATM    8  C   LIG     1      26.024  23.928  18.067  1.00  0.00     0.059 A 
HETATM    9  C   LIG     1      26.475  24.365  19.480  1.00  0.00     0.189 A 
HETATM   10  C   LIG     1      25.657  23.512  20.371  1.00  0.00     0.134 A 
HETATM   11  N   LIG     1      25.750  23.491  21.663  1.00  0.00    -0.232 NA
HETATM   12  C   LIG     1      24.923  22.616  22.440  1.00  0.00     0.069 A 
HETATM   13  C   LIG     1      25.086  22.573  23.830  1.00  0.00     0.032 A 
ENDROOT
BRANCH   5  14
HETATM   14  O   LIG     1      22.469  22.344  20.039  1.00  0.00    -0.372 OA
HETATM   15  H   LIG     1      22.572  23.023  19.323  1.00  0.00     0.212 HD
ENDBRANCH   5  14
BRANCH   9  16
HETATM   16  O   LIG     1      26.227  25.730  19.712  1.00  0.00    -0.388 OA
HETATM   17  H   LIG     1      26.817  26.255  19.109  1.00  0.00     0.210 HD
ENDBRANCH   9  16
TORSDOF 2
ENDMDL
MODEL 17
REMARK VINA RESULT:      -4.1     15.254     16.117
REMARK  2 active torsions:
REMARK  status: ('A' for Active; 'I' for Inactive)
REMARK    1  A    between atoms: C_5  and  O_6 
REMARK    2  A    between atoms: C_10  and  O_11 
ROOT
HETATM    1  C   LIG     1      29.644  26.357  16.761  1.00  0.00     0.002 A 
HETATM    2  C   LIG     1      29.209  27.315  17.679  1.00  0.00     0.001 A 
HETATM    3  C   LIG     1      28.234  26.990  18.626  1.00  0.00     0.014 A 
HETATM    4  C   LIG     1      27.683  25.698  18.660  1.00  0.00     0.019 A 
HETATM    5  C   LIG     1      26.604  25.361  19.673  1.00  0.00     0.258 C 
HETATM    6  N   LIG     1      26.276  23.934  19.639  1.00  0.00    -0.336 N 
HETATM    7  C   LIG     1      25.310  23.272  20.496  1.00  0.00     0.130 A 
HETATM    8  C   LIG     1      25.298  21.791  20.055  1.00  0.00     0.059 A 
HETATM    9  C   LIG     1      26.178  21.680  18.789  1.00  0.00     0.189 A 
HETATM   10  C   LIG     1      26.756  23.036  18.663  1.00  0.00     0.134 A 
HETATM   11  N   LIG     1      27.619  23.391  17.765  1.00  0.00    -0.232 NA
HETATM   12  C   LIG     1      28.134  24.728  17.734  1.00  0.00     0.069 A 
HETATM   13  C   LIG     1      29.110  25.066  16.789  1.00  0.00     0.032 A 
ENDROOT
BRANCH   5  14
HETATM   14  O   LIG     1      25.445  26.101  19.391  1.00  0.00    -0.372 OA
HETATM   15  H   LIG     1      25.221  25.939  18.438  1.00  0.00     0.212 HD
ENDBRANCH   5  14
BRANCH   9  16
HETATM   16  O   LIG     1      25.422  21.340  17.652  1.00  0.00    -0.388 OA
HETATM   17  H   LIG     1      24.931  22.152  17.357  1.00  0.00     0.210 HD
ENDBRANCH   9  16
TORSDOF 2
ENDMDL
MODEL 18
REMARK VINA RESULT:      -4.0     15.358     16.385
REMARK  2 active torsions:
REMARK  status: ('A' for Active; 'I' for Inactive)
REMARK    1  A    between atoms: C_5  and  O_6 
REMARK    2  A    between atoms: C_10  and  O_11 
ROOT
HETATM    1  C   LIG     1      28.929  27.642  18.016  1.00  0.00     0.002 A 
HETATM    2  C   LIG     1      29.483  26.881  16.983  1.00  0.00     0.001 A 
HETATM    3  C   LIG     1      29.105  25.547  16.813  1.00  0.00     0.014 A 
HETATM    4  C   LIG     1      28.167  24.959  17.679  1.00  0.00     0.019 A 
HETATM    5  C   LIG     1      27.784  23.502  17.504  1.00  0.00     0.258 C 
HETATM    6  N   LIG     1      26.692  23.132  18.408  1.00  0.00    -0.336 N 
HETATM    7  C   LIG     1      26.064  21.825  18.479  1.00  0.00     0.130 A 
HETATM    8  C   LIG     1      25.003  21.925  19.597  1.00  0.00     0.059 A 
HETATM    9  C   LIG     1      25.178  23.303  20.276  1.00  0.00     0.189 A 
HETATM   10  C   LIG     1      26.201  23.963  19.435  1.00  0.00     0.134 A 
HETATM   11  N   LIG     1      26.617  25.179  19.596  1.00  0.00    -0.232 NA
HETATM   12  C   LIG     1      27.603  25.737  18.717  1.00  0.00     0.069 A 
HETATM   13  C   LIG     1      27.990  27.072  18.880  1.00  0.00     0.032 A 
ENDROOT
BRANCH   5  14
HETATM   14  O   LIG     1      28.894  22.686  17.775  1.00  0.00    -0.372 OA
HETATM   15  H   LIG     1      29.213  22.331  16.905  1.00  0.00     0.212 HD
ENDBRANCH   5  14
BRANCH   9  16
HETATM   16  O   LIG     1      25.614  23.181  21.608  1.00  0.00    -0.388 OA
HETATM   17  H   LIG     1      26.379  23.802  21.738  1.00  0.00     0.210 HD
ENDBRANCH   9  16
TORSDOF 2
ENDMDL
MODEL 19
REMARK VINA RESULT:      -3.9     15.258     16.056
REMARK  2 active torsions:
REMARK  status: ('A' for Active; 'I' for Inactive)
REMARK    1  A    between atoms: C_5  and  O_6 
REMARK    2  A    between atoms: C_10  and  O_11 
ROOT
HETATM    1  C   LIG     1      28.272  26.195  18.996  1.00  0.00     0.002 A 
HETATM    2  C   LIG     1      28.332  25.497  17.788  1.00  0.00     0.001 A 
HETATM    3  C   LIG     1      27.502  24.393  17.572  1.00  0.00     0.014 A 
HETATM    4  C   LIG     1      26.604  23.976  18.568  1.00  0.00     0.019 A 
HETATM    5  C   LIG     1      25.727  22.760  18.337  1.00  0.00     0.258 C 
HETATM    6  N   LIG     1      24.766  22.587  19.429  1.00  0.00    -0.336 N 
HETATM    7  C   LIG     1      23.761  21.542  19.508  1.00  0.00     0.130 A 
HETATM    8  C   LIG     1      23.027  21.763  20.850  1.00  0.00     0.059 A 
HETATM    9  C   LIG     1      23.780  22.879  21.609  1.00  0.00     0.189 A 
HETATM   10  C   LIG     1      24.786  23.334  20.625  1.00  0.00     0.134 A 
HETATM   11  N   LIG     1      25.610  24.317  20.810  1.00  0.00    -0.232 NA
HETATM   12  C   LIG     1      26.541  24.693  19.786  1.00  0.00     0.069 A 
HETATM   13  C   LIG     1      27.378  25.796  19.993  1.00  0.00     0.032 A 
ENDROOT
BRANCH   5  14
HETATM   14  O   LIG     1      26.528  21.611  18.250  1.00  0.00    -0.372 OA
HETATM   15  H   LIG     1      27.295  21.833  17.660  1.00  0.00     0.212 HD
ENDBRANCH   5  14
BRANCH   9  16
HETATM   16  O   LIG     1      24.394  22.397  22.780  1.00  0.00    -0.388 OA
HETATM   17  H   LIG     1      24.840  23.162  23.229  1.00  0.00     0.210 HD
ENDBRANCH   9  16
TORSDOF 2
ENDMDL
MODEL 20
REMARK VINA RESULT:      -3.9     15.771     16.545
REMARK  2 active torsions:
REMARK  status: ('A' for Active; 'I' for Inactive)
REMARK    1  A    between atoms: C_5  and  O_6 
REMARK    2  A    between atoms: C_10  and  O_11 
ROOT
HETATM    1  C   LIG     1      23.262  21.349  18.737  1.00  0.00     0.002 A 
HETATM    2  C   LIG     1      23.143  21.391  20.129  1.00  0.00     0.001 A 
HETATM    3  C   LIG     1      24.003  22.191  20.885  1.00  0.00     0.014 A 
HETATM    4  C   LIG     1      24.996  22.958  20.252  1.00  0.00     0.019 A 
HETATM    5  C   LIG     1      25.945  23.803  21.082  1.00  0.00     0.258 C 
HETATM    6  N   LIG     1      26.798  24.631  20.227  1.00  0.00    -0.336 N 
HETATM    7  C   LIG     1      27.794  25.577  20.697  1.00  0.00     0.130 A 
HETATM    8  C   LIG     1      28.446  26.170  19.427  1.00  0.00     0.059 A 
HETATM    9  C   LIG     1      27.890  25.387  18.215  1.00  0.00     0.189 A 
HETATM   10  C   LIG     1      26.863  24.514  18.824  1.00  0.00     0.134 A 
HETATM   11  N   LIG     1      26.084  23.717  18.162  1.00  0.00    -0.232 NA
HETATM   12  C   LIG     1      25.106  22.919  18.842  1.00  0.00     0.069 A 
HETATM   13  C   LIG     1      24.240  22.112  18.095  1.00  0.00     0.032 A 
ENDROOT
BRANCH   5  14
HETATM   14  O   LIG     1      26.758  22.968  21.863  1.00  0.00    -0.372 OA
HETATM   15  H   LIG     1      26.543  23.158  22.814  1.00  0.00     0.212 HD
ENDBRANCH   5  14
BRANCH   9  16
HETATM   16  O   LIG     1      28.889  24.631  17.576  1.00  0.00    -0.388 OA
HETATM   17  H   LIG     1      29.292  25.195  16.864  1.00  0.00     0.210 HD
ENDBRANCH   9  16
TORSDOF 2
ENDMDL
