MODEL 1
REMARK VINA RESULT:      -5.3      0.000      0.000
REMARK  5 active torsions:
REMARK  status: ('A' for Active; 'I' for Inactive)
REMARK    1  A    between atoms: O_1  and  C_2 
REMARK    2  A    between atoms: C_3  and  O_4 
REMARK    3  A    between atoms: C_5  and  O_6 
REMARK    4  A    between atoms: C_8  and  O_9 
REMARK    5  A    between atoms: C_10  and  O_11 
ROOT
HETATM    1  C   LIG     1      16.079  37.609  22.814  1.00  0.00     0.180 C 
HETATM    2  C   LIG     1      16.628  37.146  24.187  1.00  0.00     0.178 C 
HETATM    3  C   LIG     1      17.612  38.172  24.794  1.00  0.00     0.152 C 
HETATM    4  C   LIG     1      18.741  38.507  23.804  1.00  0.00     0.069 C 
HETATM    5  C   LIG     1      18.179  39.053  22.484  1.00  0.00     0.152 C 
HETATM    6  C   LIG     1      17.199  38.050  21.835  1.00  0.00     0.178 C 
ENDROOT
BRANCH   1   7
HETATM    7  O   LIG     1      15.100  38.610  22.962  1.00  0.00    -0.390 OA
HETATM    8  H   LIG     1      14.245  38.178  23.210  1.00  0.00     0.210 HD
ENDBRANCH   1   7
BRANCH   2   9
HETATM    9  O   LIG     1      17.262  35.900  24.032  1.00  0.00    -0.390 OA
HETATM   10  H   LIG     1      16.549  35.226  23.882  1.00  0.00     0.210 HD
ENDBRANCH   2   9
BRANCH   6  11
HETATM   11  O   LIG     1      17.916  36.925  21.387  1.00  0.00    -0.390 OA
HETATM   12  H   LIG     1      17.321  36.436  20.759  1.00  0.00     0.210 HD
ENDBRANCH   6  11
BRANCH   3  13
HETATM   13  O   LIG     1      18.157  37.651  25.979  1.00  0.00    -0.393 OA
HETATM   14  H   LIG     1      18.513  36.749  25.761  1.00  0.00     0.210 HD
ENDBRANCH   3  13
BRANCH   5  15
HETATM   15  O   LIG     1      19.245  39.319  21.610  1.00  0.00    -0.393 OA
HETATM   16  H   LIG     1      19.530  38.446  21.231  1.00  0.00     0.210 HD
ENDBRANCH   5  15
TORSDOF 5
ENDMDL
MODEL 2
REMARK VINA RESULT:      -5.1      1.234      2.867
REMARK  5 active torsions:
REMARK  status: ('A' for Active; 'I' for Inactive)
REMARK    1  A    between atoms: O_1  and  C_2 
REMARK    2  A    between atoms: C_3  and  O_4 
REMARK    3  A    between atoms: C_5  and  O_6 
REMARK    4  A    between atoms: C_8  and  O_9 
REMARK    5  A    between atoms: C_10  and  O_11 
ROOT
HETATM    1  C   LIG     1      16.156  37.702  23.406  1.00  0.00     0.180 C 
HETATM    2  C   LIG     1      17.369  38.660  23.303  1.00  0.00     0.178 C 
HETATM    3  C   LIG     1      17.820  38.867  21.839  1.00  0.00     0.152 C 
HETATM    4  C   LIG     1      18.088  37.520  21.147  1.00  0.00     0.069 C 
HETATM    5  C   LIG     1      16.843  36.623  21.178  1.00  0.00     0.152 C 
HETATM    6  C   LIG     1      16.366  36.377  22.627  1.00  0.00     0.178 C 
ENDROOT
BRANCH   1   7
HETATM    7  O   LIG     1      14.961  38.341  23.024  1.00  0.00    -0.390 OA
HETATM    8  H   LIG     1      15.109  38.787  22.152  1.00  0.00     0.210 HD
ENDBRANCH   1   7
BRANCH   2   9
HETATM    9  O   LIG     1      18.429  38.142  24.068  1.00  0.00    -0.390 OA
HETATM   10  H   LIG     1      18.756  38.876  24.650  1.00  0.00     0.210 HD
ENDBRANCH   2   9
BRANCH   6  11
HETATM   11  O   LIG     1      17.306  35.571  23.295  1.00  0.00    -0.390 OA
HETATM   12  H   LIG     1      17.985  35.301  22.621  1.00  0.00     0.210 HD
ENDBRANCH   6  11
BRANCH   3  13
HETATM   13  O   LIG     1      18.984  39.653  21.817  1.00  0.00    -0.393 OA
HETATM   14  H   LIG     1      19.271  39.770  22.761  1.00  0.00     0.210 HD
ENDBRANCH   3  13
BRANCH   5  15
HETATM   15  O   LIG     1      17.147  35.401  20.558  1.00  0.00    -0.393 OA
HETATM   16  H   LIG     1      18.134  35.299  20.591  1.00  0.00     0.210 HD
ENDBRANCH   5  15
TORSDOF 5
ENDMDL
MODEL 3
REMARK VINA RESULT:      -4.9      1.529      3.493
REMARK  5 active torsions:
REMARK  status: ('A' for Active; 'I' for Inactive)
REMARK    1  A    between atoms: O_1  and  C_2 
REMARK    2  A    between atoms: C_3  and  O_4 
REMARK    3  A    between atoms: C_5  and  O_6 
REMARK    4  A    between atoms: C_8  and  O_9 
REMARK    5  A    between atoms: C_10  and  O_11 
ROOT
HETATM    1  C   LIG     1      16.274  38.019  23.185  1.00  0.00     0.180 C 
HETATM    2  C   LIG     1      16.542  37.029  22.025  1.00  0.00     0.178 C 
HETATM    3  C   LIG     1      16.456  35.557  22.486  1.00  0.00     0.152 C 
HETATM    4  C   LIG     1      17.380  35.299  23.688  1.00  0.00     0.069 C 
HETATM    5  C   LIG     1      17.035  36.227  24.862  1.00  0.00     0.152 C 
HETATM    6  C   LIG     1      17.124  37.712  24.447  1.00  0.00     0.178 C 
ENDROOT
BRANCH   1   7
HETATM    7  O   LIG     1      14.903  38.092  23.494  1.00  0.00    -0.390 OA
HETATM    8  H   LIG     1      14.652  37.281  24.004  1.00  0.00     0.210 HD
ENDBRANCH   1   7
BRANCH   2   9
HETATM    9  O   LIG     1      17.812  37.292  21.480  1.00  0.00    -0.390 OA
HETATM   10  H   LIG     1      18.177  38.082  21.957  1.00  0.00     0.210 HD
ENDBRANCH   2   9
BRANCH   6  11
HETATM   11  O   LIG     1      18.470  38.049  24.213  1.00  0.00    -0.390 OA
HETATM   12  H   LIG     1      18.469  38.906  23.710  1.00  0.00     0.210 HD
ENDBRANCH   6  11
BRANCH   3  13
HETATM   13  O   LIG     1      16.813  34.712  21.422  1.00  0.00    -0.393 OA
HETATM   14  H   LIG     1      17.635  34.229  21.701  1.00  0.00     0.210 HD
ENDBRANCH   3  13
BRANCH   5  15
HETATM   15  O   LIG     1      17.920  35.969  25.921  1.00  0.00    -0.393 OA
HETATM   16  H   LIG     1      18.826  36.231  25.609  1.00  0.00     0.210 HD
ENDBRANCH   5  15
TORSDOF 5
ENDMDL
MODEL 4
REMARK VINA RESULT:      -4.9      1.353      3.094
REMARK  5 active torsions:
REMARK  status: ('A' for Active; 'I' for Inactive)
REMARK    1  A    between atoms: O_1  and  C_2 
REMARK    2  A    between atoms: C_3  and  O_4 
REMARK    3  A    between atoms: C_5  and  O_6 
REMARK    4  A    between atoms: C_8  and  O_9 
REMARK    5  A    between atoms: C_10  and  O_11 
ROOT
HETATM    1  C   LIG     1      16.677  37.170  23.691  1.00  0.00     0.180 C 
HETATM    2  C   LIG     1      16.319  36.311  22.454  1.00  0.00     0.178 C 
HETATM    3  C   LIG     1      17.453  36.305  21.404  1.00  0.00     0.152 C 
HETATM    4  C   LIG     1      17.854  37.737  21.015  1.00  0.00     0.069 C 
HETATM    5  C   LIG     1      18.297  38.543  22.244  1.00  0.00     0.152 C 
HETATM    6  C   LIG     1      17.184  38.588  23.315  1.00  0.00     0.178 C 
ENDROOT
BRANCH   1   7
HETATM    7  O   LIG     1      17.588  36.505  24.534  1.00  0.00    -0.390 OA
HETATM    8  H   LIG     1      18.125  35.880  23.985  1.00  0.00     0.210 HD
ENDBRANCH   1   7
BRANCH   2   9
HETATM    9  O   LIG     1      15.131  36.803  21.882  1.00  0.00    -0.390 OA
HETATM   10  H   LIG     1      14.376  36.397  22.381  1.00  0.00     0.210 HD
ENDBRANCH   2   9
BRANCH   6  11
HETATM   11  O   LIG     1      16.115  39.369  22.841  1.00  0.00    -0.390 OA
HETATM   12  H   LIG     1      15.744  38.900  22.047  1.00  0.00     0.210 HD
ENDBRANCH   6  11
BRANCH   3  13
HETATM   13  O   LIG     1      17.029  35.603  20.264  1.00  0.00    -0.393 OA
HETATM   14  H   LIG     1      16.657  34.737  20.580  1.00  0.00     0.210 HD
ENDBRANCH   3  13
BRANCH   5  15
HETATM   15  O   LIG     1      18.628  39.846  21.839  1.00  0.00    -0.393 OA
HETATM   16  H   LIG     1      18.276  39.959  20.917  1.00  0.00     0.210 HD
ENDBRANCH   5  15
TORSDOF 5
ENDMDL
MODEL 5
REMARK VINA RESULT:      -4.8      1.446      2.904
REMARK  5 active torsions:
REMARK  status: ('A' for Active; 'I' for Inactive)
REMARK    1  A    between atoms: O_1  and  C_2 
REMARK    2  A    between atoms: C_3  and  O_4 
REMARK    3  A    between atoms: C_5  and  O_6 
REMARK    4  A    between atoms: C_8  and  O_9 
REMARK    5  A    between atoms: C_10  and  O_11 
ROOT
HETATM    1  C   LIG     1      17.519  38.662  23.478  1.00  0.00     0.180 C 
HETATM    2  C   LIG     1      17.775  38.078  24.889  1.00  0.00     0.178 C 
HETATM    3  C   LIG     1      18.080  36.563  24.843  1.00  0.00     0.152 C 
HETATM    4  C   LIG     1      16.975  35.800  24.094  1.00  0.00     0.069 C 
HETATM    5  C   LIG     1      16.804  36.333  22.664  1.00  0.00     0.152 C 
HETATM    6  C   LIG     1      16.482  37.844  22.665  1.00  0.00     0.178 C 
ENDROOT
BRANCH   1   7
HETATM    7  O   LIG     1      18.721  38.825  22.763  1.00  0.00    -0.390 OA
HETATM    8  H   LIG     1      19.354  38.119  23.048  1.00  0.00     0.210 HD
ENDBRANCH   1   7
BRANCH   2   9
HETATM    9  O   LIG     1      16.649  38.321  25.698  1.00  0.00    -0.390 OA
HETATM   10  H   LIG     1      16.281  39.202  25.429  1.00  0.00     0.210 HD
ENDBRANCH   2   9
BRANCH   6  11
HETATM   11  O   LIG     1      15.193  38.044  23.193  1.00  0.00    -0.390 OA
HETATM   12  H   LIG     1      14.614  38.333  22.439  1.00  0.00     0.210 HD
ENDBRANCH   6  11
BRANCH   3  13
HETATM   13  O   LIG     1      18.194  36.070  26.153  1.00  0.00    -0.393 OA
HETATM   14  H   LIG     1      17.372  35.542  26.336  1.00  0.00     0.210 HD
ENDBRANCH   3  13
BRANCH   5  15
HETATM   15  O   LIG     1      15.771  35.621  22.034  1.00  0.00    -0.393 OA
HETATM   16  H   LIG     1      15.205  35.237  22.754  1.00  0.00     0.210 HD
ENDBRANCH   5  15
TORSDOF 5
ENDMDL
MODEL 6
REMARK VINA RESULT:      -4.5      1.397      2.978
REMARK  5 active torsions:
REMARK  status: ('A' for Active; 'I' for Inactive)
REMARK    1  A    between atoms: O_1  and  C_2 
REMARK    2  A    between atoms: C_3  and  O_4 
REMARK    3  A    between atoms: C_5  and  O_6 
REMARK    4  A    between atoms: C_8  and  O_9 
REMARK    5  A    between atoms: C_10  and  O_11 
ROOT
HETATM    1  C   LIG     1      17.294  38.088  21.601  1.00  0.00     0.180 C 
HETATM    2  C   LIG     1      17.015  38.963  22.847  1.00  0.00     0.178 C 
HETATM    3  C   LIG     1      17.546  38.312  24.145  1.00  0.00     0.152 C 
HETATM    4  C   LIG     1      17.002  36.883  24.309  1.00  0.00     0.069 C 
HETATM    5  C   LIG     1      17.372  36.006  23.105  1.00  0.00     0.152 C 
HETATM    6  C   LIG     1      16.845  36.614  21.786  1.00  0.00     0.178 C 
ENDROOT
BRANCH   1   7
HETATM    7  O   LIG     1      18.644  38.169  21.207  1.00  0.00    -0.390 OA
HETATM    8  H   LIG     1      18.785  37.556  20.442  1.00  0.00     0.210 HD
ENDBRANCH   1   7
BRANCH   2   9
HETATM    9  O   LIG     1      15.629  39.186  22.950  1.00  0.00    -0.390 OA
HETATM   10  H   LIG     1      15.380  39.048  23.900  1.00  0.00     0.210 HD
ENDBRANCH   2   9
BRANCH   6  11
HETATM   11  O   LIG     1      15.441  36.534  21.766  1.00  0.00    -0.390 OA
HETATM   12  H   LIG     1      15.106  37.423  21.474  1.00  0.00     0.210 HD
ENDBRANCH   6  11
BRANCH   3  13
HETATM   13  O   LIG     1      17.169  39.095  25.248  1.00  0.00    -0.393 OA
HETATM   14  H   LIG     1      17.946  39.114  25.867  1.00  0.00     0.210 HD
ENDBRANCH   3  13
BRANCH   5  15
HETATM   15  O   LIG     1      16.833  34.723  23.292  1.00  0.00    -0.393 OA
HETATM   16  H   LIG     1      16.746  34.313  22.392  1.00  0.00     0.210 HD
ENDBRANCH   5  15
TORSDOF 5
ENDMDL
MODEL 7
REMARK VINA RESULT:      -4.5      1.079      3.278
REMARK  5 active torsions:
REMARK  status: ('A' for Active; 'I' for Inactive)
REMARK    1  A    between atoms: O_1  and  C_2 
REMARK    2  A    between atoms: C_3  and  O_4 
REMARK    3  A    between atoms: C_5  and  O_6 
REMARK    4  A    between atoms: C_8  and  O_9 
REMARK    5  A    between atoms: C_10  and  O_11 
ROOT
HETATM    1  C   LIG     1      16.594  36.972  22.914  1.00  0.00     0.180 C 
HETATM    2  C   LIG     1      16.961  38.270  22.153  1.00  0.00     0.178 C 
HETATM    3  C   LIG     1      18.440  38.665  22.359  1.00  0.00     0.152 C 
HETATM    4  C   LIG     1      18.785  38.757  23.855  1.00  0.00     0.069 C 
HETATM    5  C   LIG     1      18.504  37.428  24.571  1.00  0.00     0.152 C 
HETATM    6  C   LIG     1      17.028  37.003  24.403  1.00  0.00     0.178 C 
ENDROOT
BRANCH   1   7
HETATM    7  O   LIG     1      17.094  35.831  22.256  1.00  0.00    -0.390 OA
HETATM    8  H   LIG     1      16.578  35.042  22.561  1.00  0.00     0.210 HD
ENDBRANCH   1   7
BRANCH   2   9
HETATM    9  O   LIG     1      16.117  39.309  22.586  1.00  0.00    -0.390 OA
HETATM   10  H   LIG     1      16.134  40.011  21.885  1.00  0.00     0.210 HD
ENDBRANCH   2   9
BRANCH   6  11
HETATM   11  O   LIG     1      16.205  37.887  25.124  1.00  0.00    -0.390 OA
HETATM   12  H   LIG     1      15.989  37.443  25.986  1.00  0.00     0.210 HD
ENDBRANCH   6  11
BRANCH   3  13
HETATM   13  O   LIG     1      18.684  39.901  21.738  1.00  0.00    -0.393 OA
HETATM   14  H   LIG     1      19.261  39.719  20.949  1.00  0.00     0.210 HD
ENDBRANCH   3  13
BRANCH   5  15
HETATM   15  O   LIG     1      18.811  37.572  25.934  1.00  0.00    -0.393 OA
HETATM   16  H   LIG     1      19.025  38.531  26.081  1.00  0.00     0.210 HD
ENDBRANCH   5  15
TORSDOF 5
ENDMDL
MODEL 8
REMARK VINA RESULT:      -4.3      8.124      9.598
REMARK  5 active torsions:
REMARK  status: ('A' for Active; 'I' for Inactive)
REMARK    1  A    between atoms: O_1  and  C_2 
REMARK    2  A    between atoms: C_3  and  O_4 
REMARK    3  A    between atoms: C_5  and  O_6 
REMARK    4  A    between atoms: C_8  and  O_9 
REMARK    5  A    between atoms: C_10  and  O_11 
ROOT
HETATM    1  C   LIG     1      14.561  32.438  18.154  1.00  0.00     0.180 C 
HETATM    2  C   LIG     1      13.524  31.526  17.454  1.00  0.00     0.178 C 
HETATM    3  C   LIG     1      14.120  30.806  16.223  1.00  0.00     0.152 C 
HETATM    4  C   LIG     1      14.753  31.812  15.248  1.00  0.00     0.069 C 
HETATM    5  C   LIG     1      15.846  32.642  15.938  1.00  0.00     0.152 C 
HETATM    6  C   LIG     1      15.287  33.391  17.168  1.00  0.00     0.178 C 
ENDROOT
BRANCH   1   7
HETATM    7  O   LIG     1      15.479  31.687  18.913  1.00  0.00    -0.390 OA
HETATM    8  H   LIG     1      15.047  31.437  19.769  1.00  0.00     0.210 HD
ENDBRANCH   1   7
BRANCH   2   9
HETATM    9  O   LIG     1      12.414  32.302  17.072  1.00  0.00    -0.390 OA
HETATM   10  H   LIG     1      12.223  32.927  17.818  1.00  0.00     0.210 HD
ENDBRANCH   2   9
BRANCH   6  11
HETATM   11  O   LIG     1      14.405  34.399  16.737  1.00  0.00    -0.390 OA
HETATM   12  H   LIG     1      13.487  34.094  16.964  1.00  0.00     0.210 HD
ENDBRANCH   6  11
BRANCH   3  13
HETATM   13  O   LIG     1      13.109  30.083  15.571  1.00  0.00    -0.393 OA
HETATM   14  H   LIG     1      13.554  29.523  14.881  1.00  0.00     0.210 HD
ENDBRANCH   3  13
BRANCH   5  15
HETATM   15  O   LIG     1      16.373  33.558  15.014  1.00  0.00    -0.393 OA
HETATM   16  H   LIG     1      16.776  33.026  14.278  1.00  0.00     0.210 HD
ENDBRANCH   5  15
TORSDOF 5
ENDMDL
MODEL 9
REMARK VINA RESULT:      -4.2      2.112      3.901
REMARK  5 active torsions:
REMARK  status: ('A' for Active; 'I' for Inactive)
REMARK    1  A    between atoms: O_1  and  C_2 
REMARK    2  A    between atoms: C_3  and  O_4 
REMARK    3  A    between atoms: C_5  and  O_6 
REMARK    4  A    between atoms: C_8  and  O_9 
REMARK    5  A    between atoms: C_10  and  O_11 
ROOT
HETATM    1  C   LIG     1      17.419  35.654  22.934  1.00  0.00     0.180 C 
HETATM    2  C   LIG     1      16.931  37.117  23.071  1.00  0.00     0.178 C 
HETATM    3  C   LIG     1      15.395  37.230  22.945  1.00  0.00     0.152 C 
HETATM    4  C   LIG     1      14.897  36.575  21.646  1.00  0.00     0.069 C 
HETATM    5  C   LIG     1      15.310  35.098  21.575  1.00  0.00     0.152 C 
HETATM    6  C   LIG     1      16.844  34.941  21.682  1.00  0.00     0.178 C 
ENDROOT
BRANCH   1   7
HETATM    7  O   LIG     1      17.169  34.916  24.107  1.00  0.00    -0.390 OA
HETATM    8  H   LIG     1      18.018  34.828  24.609  1.00  0.00     0.210 HD
ENDBRANCH   1   7
BRANCH   2   9
HETATM    9  O   LIG     1      17.557  37.904  22.087  1.00  0.00    -0.390 OA
HETATM   10  H   LIG     1      17.906  38.714  22.539  1.00  0.00     0.210 HD
ENDBRANCH   2   9
BRANCH   6  11
HETATM   11  O   LIG     1      17.446  35.454  20.519  1.00  0.00    -0.390 OA
HETATM   12  H   LIG     1      18.225  35.996  20.812  1.00  0.00     0.210 HD
ENDBRANCH   6  11
BRANCH   3  13
HETATM   13  O   LIG     1      15.023  38.584  22.968  1.00  0.00    -0.393 OA
HETATM   14  H   LIG     1      15.618  39.057  22.328  1.00  0.00     0.210 HD
ENDBRANCH   3  13
BRANCH   5  15
HETATM   15  O   LIG     1      14.854  34.555  20.363  1.00  0.00    -0.393 OA
HETATM   16  H   LIG     1      13.878  34.733  20.318  1.00  0.00     0.210 HD
ENDBRANCH   5  15
TORSDOF 5
ENDMDL
MODEL 10
REMARK VINA RESULT:      -4.2      1.973      2.664
REMARK  5 active torsions:
REMARK  status: ('A' for Active; 'I' for Inactive)
REMARK    1  A    between atoms: O_1  and  C_2 
REMARK    2  A    between atoms: C_3  and  O_4 
REMARK    3  A    between atoms: C_5  and  O_6 
REMARK    4  A    between atoms: C_8  and  O_9 
REMARK    5  A    between atoms: C_10  and  O_11 
ROOT
HETATM    1  C   LIG     1      15.502  35.945  22.075  1.00  0.00     0.180 C 
HETATM    2  C   LIG     1      15.762  37.169  22.989  1.00  0.00     0.178 C 
HETATM    3  C   LIG     1      16.446  38.326  22.227  1.00  0.00     0.152 C 
HETATM    4  C   LIG     1      17.728  37.846  21.527  1.00  0.00     0.069 C 
HETATM    5  C   LIG     1      17.432  36.695  20.554  1.00  0.00     0.152 C 
HETATM    6  C   LIG     1      16.760  35.508  21.280  1.00  0.00     0.178 C 
ENDROOT
BRANCH   1   7
HETATM    7  O   LIG     1      14.404  36.164  21.222  1.00  0.00    -0.390 OA
HETATM    8  H   LIG     1      14.121  35.293  20.844  1.00  0.00     0.210 HD
ENDBRANCH   1   7
BRANCH   2   9
HETATM    9  O   LIG     1      16.558  36.768  24.077  1.00  0.00    -0.390 OA
HETATM   10  H   LIG     1      16.013  36.885  24.898  1.00  0.00     0.210 HD
ENDBRANCH   2   9
BRANCH   6  11
HETATM   11  O   LIG     1      17.691  34.907  22.147  1.00  0.00    -0.390 OA
HETATM   12  H   LIG     1      18.575  34.951  21.696  1.00  0.00     0.210 HD
ENDBRANCH   6  11
BRANCH   3  13
HETATM   13  O   LIG     1      16.753  39.360  23.127  1.00  0.00    -0.393 OA
HETATM   14  H   LIG     1      15.919  39.563  23.628  1.00  0.00     0.210 HD
ENDBRANCH   3  13
BRANCH   5  15
HETATM   15  O   LIG     1      18.635  36.279  19.962  1.00  0.00    -0.393 OA
HETATM   16  H   LIG     1      19.241  37.066  19.957  1.00  0.00     0.210 HD
ENDBRANCH   5  15
TORSDOF 5
ENDMDL
MODEL 11
REMARK VINA RESULT:      -4.1      2.061      4.071
REMARK  5 active torsions:
REMARK  status: ('A' for Active; 'I' for Inactive)
REMARK    1  A    between atoms: O_1  and  C_2 
REMARK    2  A    between atoms: C_3  and  O_4 
REMARK    3  A    between atoms: C_5  and  O_6 
REMARK    4  A    between atoms: C_8  and  O_9 
REMARK    5  A    between atoms: C_10  and  O_11 
ROOT
HETATM    1  C   LIG     1      17.833  36.787  21.555  1.00  0.00     0.180 C 
HETATM    2  C   LIG     1      17.154  35.504  21.014  1.00  0.00     0.178 C 
HETATM    3  C   LIG     1      15.650  35.719  20.730  1.00  0.00     0.152 C 
HETATM    4  C   LIG     1      14.928  36.276  21.968  1.00  0.00     0.069 C 
HETATM    5  C   LIG     1      15.558  37.598  22.431  1.00  0.00     0.152 C 
HETATM    6  C   LIG     1      17.061  37.423  22.741  1.00  0.00     0.178 C 
ENDROOT
BRANCH   1   7
HETATM    7  O   LIG     1      18.060  37.722  20.527  1.00  0.00    -0.390 OA
HETATM    8  H   LIG     1      18.192  37.229  19.678  1.00  0.00     0.210 HD
ENDBRANCH   1   7
BRANCH   2   9
HETATM    9  O   LIG     1      17.327  34.465  21.947  1.00  0.00    -0.390 OA
HETATM   10  H   LIG     1      17.949  34.798  22.644  1.00  0.00     0.210 HD
ENDBRANCH   2   9
BRANCH   6  11
HETATM   11  O   LIG     1      17.209  36.627  23.892  1.00  0.00    -0.390 OA
HETATM   12  H   LIG     1      17.621  37.203  24.589  1.00  0.00     0.210 HD
ENDBRANCH   6  11
BRANCH   3  13
HETATM   13  O   LIG     1      15.068  34.500  20.348  1.00  0.00    -0.393 OA
HETATM   14  H   LIG     1      14.086  34.601  20.462  1.00  0.00     0.210 HD
ENDBRANCH   3  13
BRANCH   5  15
HETATM   15  O   LIG     1      14.880  38.050  23.574  1.00  0.00    -0.393 OA
HETATM   16  H   LIG     1      14.421  37.261  23.967  1.00  0.00     0.210 HD
ENDBRANCH   5  15
TORSDOF 5
ENDMDL
MODEL 12
REMARK VINA RESULT:      -4.0      8.509     10.211
REMARK  5 active torsions:
REMARK  status: ('A' for Active; 'I' for Inactive)
REMARK    1  A    between atoms: O_1  and  C_2 
REMARK    2  A    between atoms: C_3  and  O_4 
REMARK    3  A    between atoms: C_5  and  O_6 
REMARK    4  A    between atoms: C_8  and  O_9 
REMARK    5  A    between atoms: C_10  and  O_11 
ROOT
HETATM    1  C   LIG     1      14.713  33.198  17.078  1.00  0.00     0.180 C 
HETATM    2  C   LIG     1      15.788  32.709  16.077  1.00  0.00     0.178 C 
HETATM    3  C   LIG     1      15.166  31.955  14.879  1.00  0.00     0.152 C 
HETATM    4  C   LIG     1      14.259  30.809  15.358  1.00  0.00     0.069 C 
HETATM    5  C   LIG     1      13.142  31.330  16.274  1.00  0.00     0.152 C 
HETATM    6  C   LIG     1      13.723  32.079  17.495  1.00  0.00     0.178 C 
ENDROOT
BRANCH   1   7
HETATM    7  O   LIG     1      14.033  34.331  16.591  1.00  0.00    -0.390 OA
HETATM    8  H   LIG     1      13.735  34.144  15.665  1.00  0.00     0.210 HD
ENDBRANCH   1   7
BRANCH   2   9
HETATM    9  O   LIG     1      16.699  31.877  16.752  1.00  0.00    -0.390 OA
HETATM   10  H   LIG     1      16.182  31.358  17.421  1.00  0.00     0.210 HD
ENDBRANCH   2   9
BRANCH   6  11
HETATM   11  O   LIG     1      14.368  31.158  18.340  1.00  0.00    -0.390 OA
HETATM   12  H   LIG     1      15.345  31.319  18.250  1.00  0.00     0.210 HD
ENDBRANCH   6  11
BRANCH   3  13
HETATM   13  O   LIG     1      16.190  31.444  14.066  1.00  0.00    -0.393 OA
HETATM   14  H   LIG     1      17.049  31.648  14.523  1.00  0.00     0.210 HD
ENDBRANCH   3  13
BRANCH   5  15
HETATM   15  O   LIG     1      12.361  30.245  16.702  1.00  0.00    -0.393 OA
HETATM   16  H   LIG     1      12.209  29.669  15.907  1.00  0.00     0.210 HD
ENDBRANCH   5  15
TORSDOF 5
ENDMDL
MODEL 13
REMARK VINA RESULT:      -4.0      2.088      3.820
REMARK  5 active torsions:
REMARK  status: ('A' for Active; 'I' for Inactive)
REMARK    1  A    between atoms: O_1  and  C_2 
REMARK    2  A    between atoms: C_3  and  O_4 
REMARK    3  A    between atoms: C_5  and  O_6 
REMARK    4  A    between atoms: C_8  and  O_9 
REMARK    5  A    between atoms: C_10  and  O_11 
ROOT
HETATM    1  C   LIG     1      16.586  35.198  22.044  1.00  0.00     0.180 C 
HETATM    2  C   LIG     1      17.505  35.751  20.927  1.00  0.00     0.178 C 
HETATM    3  C   LIG     1      18.055  37.154  21.270  1.00  0.00     0.152 C 
HETATM    4  C   LIG     1      16.914  38.126  21.613  1.00  0.00     0.069 C 
HETATM    5  C   LIG     1      16.071  37.603  22.785  1.00  0.00     0.152 C 
HETATM    6  C   LIG     1      15.489  36.206  22.477  1.00  0.00     0.178 C 
ENDROOT
BRANCH   1   7
HETATM    7  O   LIG     1      17.332  34.744  23.148  1.00  0.00    -0.390 OA
HETATM    8  H   LIG     1      16.709  34.348  23.807  1.00  0.00     0.210 HD
ENDBRANCH   1   7
BRANCH   2   9
HETATM    9  O   LIG     1      16.785  35.795  19.719  1.00  0.00    -0.390 OA
HETATM   10  H   LIG     1      16.322  34.923  19.623  1.00  0.00     0.210 HD
ENDBRANCH   2   9
BRANCH   6  11
HETATM   11  O   LIG     1      14.517  36.321  21.466  1.00  0.00    -0.390 OA
HETATM   12  H   LIG     1      13.631  36.320  21.917  1.00  0.00     0.210 HD
ENDBRANCH   6  11
BRANCH   3  13
HETATM   13  O   LIG     1      18.789  37.647  20.180  1.00  0.00    -0.393 OA
HETATM   14  H   LIG     1      18.598  37.049  19.409  1.00  0.00     0.210 HD
ENDBRANCH   3  13
BRANCH   5  15
HETATM   15  O   LIG     1      15.032  38.512  23.041  1.00  0.00    -0.393 OA
HETATM   16  H   LIG     1      15.121  38.791  23.990  1.00  0.00     0.210 HD
ENDBRANCH   5  15
TORSDOF 5
ENDMDL
MODEL 14
REMARK VINA RESULT:      -3.9      9.532     11.118
REMARK  5 active torsions:
REMARK  status: ('A' for Active; 'I' for Inactive)
REMARK    1  A    between atoms: O_1  and  C_2 
REMARK    2  A    between atoms: C_3  and  O_4 
REMARK    3  A    between atoms: C_5  and  O_6 
REMARK    4  A    between atoms: C_8  and  O_9 
REMARK    5  A    between atoms: C_10  and  O_11 
ROOT
HETATM    1  C   LIG     1      16.223  31.775  13.591  1.00  0.00     0.180 C 
HETATM    2  C   LIG     1      15.302  30.543  13.766  1.00  0.00     0.178 C 
HETATM    3  C   LIG     1      14.109  30.839  14.703  1.00  0.00     0.152 C 
HETATM    4  C   LIG     1      14.591  31.395  16.053  1.00  0.00     0.069 C 
HETATM    5  C   LIG     1      15.424  32.671  15.862  1.00  0.00     0.152 C 
HETATM    6  C   LIG     1      16.638  32.415  14.942  1.00  0.00     0.178 C 
ENDROOT
BRANCH   1   7
HETATM    7  O   LIG     1      15.651  32.727  12.725  1.00  0.00    -0.390 OA
HETATM    8  H   LIG     1      14.932  32.287  12.206  1.00  0.00     0.210 HD
ENDBRANCH   1   7
BRANCH   2   9
HETATM    9  O   LIG     1      16.060  29.471  14.271  1.00  0.00    -0.390 OA
HETATM   10  H   LIG     1      15.420  28.799  14.621  1.00  0.00     0.210 HD
ENDBRANCH   2   9
BRANCH   6  11
HETATM   11  O   LIG     1      17.556  31.581  15.606  1.00  0.00    -0.390 OA
HETATM   12  H   LIG     1      18.328  32.151  15.866  1.00  0.00     0.210 HD
ENDBRANCH   6  11
BRANCH   3  13
HETATM   13  O   LIG     1      13.374  29.660  14.909  1.00  0.00    -0.393 OA
HETATM   14  H   LIG     1      13.031  29.375  14.021  1.00  0.00     0.210 HD
ENDBRANCH   3  13
BRANCH   5  15
HETATM   15  O   LIG     1      15.858  33.123  17.118  1.00  0.00    -0.393 OA
HETATM   16  H   LIG     1      15.107  32.979  17.752  1.00  0.00     0.210 HD
ENDBRANCH   5  15
TORSDOF 5
ENDMDL
MODEL 15
REMARK VINA RESULT:      -3.9      2.879      4.424
REMARK  5 active torsions:
REMARK  status: ('A' for Active; 'I' for Inactive)
REMARK    1  A    between atoms: O_1  and  C_2 
REMARK    2  A    between atoms: C_3  and  O_4 
REMARK    3  A    between atoms: C_5  and  O_6 
REMARK    4  A    between atoms: C_8  and  O_9 
REMARK    5  A    between atoms: C_10  and  O_11 
ROOT
HETATM    1  C   LIG     1      19.209  38.454  18.699  1.00  0.00     0.180 C 
HETATM    2  C   LIG     1      18.789  37.003  19.037  1.00  0.00     0.178 C 
HETATM    3  C   LIG     1      17.633  36.957  20.061  1.00  0.00     0.152 C 
HETATM    4  C   LIG     1      17.980  37.765  21.323  1.00  0.00     0.069 C 
HETATM    5  C   LIG     1      18.301  39.226  20.976  1.00  0.00     0.152 C 
HETATM    6  C   LIG     1      19.465  39.317  19.963  1.00  0.00     0.178 C 
ENDROOT
BRANCH   1   7
HETATM    7  O   LIG     1      18.285  39.070  17.833  1.00  0.00    -0.390 OA
HETATM    8  H   LIG     1      17.430  39.187  18.318  1.00  0.00     0.210 HD
ENDBRANCH   1   7
BRANCH   2   9
HETATM    9  O   LIG     1      19.905  36.305  19.534  1.00  0.00    -0.390 OA
HETATM   10  H   LIG     1      19.613  35.373  19.711  1.00  0.00     0.210 HD
ENDBRANCH   2   9
BRANCH   6  11
HETATM   11  O   LIG     1      20.658  38.912  20.588  1.00  0.00    -0.390 OA
HETATM   12  H   LIG     1      21.376  39.514  20.258  1.00  0.00     0.210 HD
ENDBRANCH   6  11
BRANCH   3  13
HETATM   13  O   LIG     1      17.370  35.622  20.409  1.00  0.00    -0.393 OA
HETATM   14  H   LIG     1      18.249  35.186  20.566  1.00  0.00     0.210 HD
ENDBRANCH   3  13
BRANCH   5  15
HETATM   15  O   LIG     1      18.634  39.911  22.155  1.00  0.00    -0.393 OA
HETATM   16  H   LIG     1      18.442  39.295  22.910  1.00  0.00     0.210 HD
ENDBRANCH   5  15
TORSDOF 5
ENDMDL
MODEL 16
REMARK VINA RESULT:      -3.7     11.849     13.088
REMARK  5 active torsions:
REMARK  status: ('A' for Active; 'I' for Inactive)
REMARK    1  A    between atoms: O_1  and  C_2 
REMARK    2  A    between atoms: C_3  and  O_4 
REMARK    3  A    between atoms: C_5  and  O_6 
REMARK    4  A    between atoms: C_8  and  O_9 
REMARK    5  A    between atoms: C_10  and  O_11 
ROOT
HETATM    1  C   LIG     1      20.461  33.094  11.737  1.00  0.00     0.180 C 
HETATM    2  C   LIG     1      19.023  33.657  11.859  1.00  0.00     0.178 C 
HETATM    3  C   LIG     1      18.636  34.528  10.643  1.00  0.00     0.152 C 
HETATM    4  C   LIG     1      19.672  35.639  10.406  1.00  0.00     0.069 C 
HETATM    5  C   LIG     1      21.075  35.053  10.192  1.00  0.00     0.152 C 
HETATM    6  C   LIG     1      21.509  34.186  11.395  1.00  0.00     0.178 C 
ENDROOT
BRANCH   1   7
HETATM    7  O   LIG     1      20.518  32.022  10.826  1.00  0.00    -0.390 OA
HETATM    8  H   LIG     1      19.936  32.235  10.053  1.00  0.00     0.210 HD
ENDBRANCH   1   7
BRANCH   2   9
HETATM    9  O   LIG     1      18.924  34.409  13.045  1.00  0.00    -0.390 OA
HETATM   10  H   LIG     1      17.961  34.589  13.197  1.00  0.00     0.210 HD
ENDBRANCH   2   9
BRANCH   6  11
HETATM   11  O   LIG     1      21.721  35.014  12.512  1.00  0.00    -0.390 OA
HETATM   12  H   LIG     1      22.424  35.668  12.257  1.00  0.00     0.210 HD
ENDBRANCH   6  11
BRANCH   3  13
HETATM   13  O   LIG     1      17.370  35.096  10.860  1.00  0.00    -0.393 OA
HETATM   14  H   LIG     1      17.149  34.951  11.818  1.00  0.00     0.210 HD
ENDBRANCH   3  13
BRANCH   5  15
HETATM   15  O   LIG     1      21.985  36.106  10.005  1.00  0.00    -0.393 OA
HETATM   16  H   LIG     1      22.406  35.967   9.116  1.00  0.00     0.210 HD
ENDBRANCH   5  15
TORSDOF 5
ENDMDL
MODEL 17
REMARK VINA RESULT:      -3.7     10.088     11.515
REMARK  5 active torsions:
REMARK  status: ('A' for Active; 'I' for Inactive)
REMARK    1  A    between atoms: O_1  and  C_2 
REMARK    2  A    between atoms: C_3  and  O_4 
REMARK    3  A    between atoms: C_5  and  O_6 
REMARK    4  A    between atoms: C_8  and  O_9 
REMARK    5  A    between atoms: C_10  and  O_11 
ROOT
HETATM    1  C   LIG     1      17.526  34.426  11.885  1.00  0.00     0.180 C 
HETATM    2  C   LIG     1      17.271  33.492  13.094  1.00  0.00     0.178 C 
HETATM    3  C   LIG     1      18.371  33.624  14.171  1.00  0.00     0.152 C 
HETATM    4  C   LIG     1      19.768  33.413  13.563  1.00  0.00     0.069 C 
HETATM    5  C   LIG     1      20.037  34.412  12.429  1.00  0.00     0.152 C 
HETATM    6  C   LIG     1      18.966  34.303  11.321  1.00  0.00     0.178 C 
ENDROOT
BRANCH   1   7
HETATM    7  O   LIG     1      17.205  35.763  12.190  1.00  0.00    -0.390 OA
HETATM    8  H   LIG     1      16.359  35.773  12.704  1.00  0.00     0.210 HD
ENDBRANCH   1   7
BRANCH   2   9
HETATM    9  O   LIG     1      17.195  32.163  12.639  1.00  0.00    -0.390 OA
HETATM   10  H   LIG     1      17.912  31.655  13.100  1.00  0.00     0.210 HD
ENDBRANCH   2   9
BRANCH   6  11
HETATM   11  O   LIG     1      19.115  33.075  10.650  1.00  0.00    -0.390 OA
HETATM   12  H   LIG     1      19.671  33.251   9.846  1.00  0.00     0.210 HD
ENDBRANCH   6  11
BRANCH   3  13
HETATM   13  O   LIG     1      18.146  32.680  15.186  1.00  0.00    -0.393 OA
HETATM   14  H   LIG     1      18.712  31.891  14.976  1.00  0.00     0.210 HD
ENDBRANCH   3  13
BRANCH   5  15
HETATM   15  O   LIG     1      21.311  34.162  11.894  1.00  0.00    -0.393 OA
HETATM   16  H   LIG     1      21.181  33.566  11.109  1.00  0.00     0.210 HD
ENDBRANCH   5  15
TORSDOF 5
ENDMDL
MODEL 18
REMARK VINA RESULT:      -3.6      6.389      7.439
REMARK  5 active torsions:
REMARK  status: ('A' for Active; 'I' for Inactive)
REMARK    1  A    between atoms: O_1  and  C_2 
REMARK    2  A    between atoms: C_3  and  O_4 
REMARK    3  A    between atoms: C_5  and  O_6 
REMARK    4  A    between atoms: C_8  and  O_9 
REMARK    5  A    between atoms: C_10  and  O_11 
ROOT
HETATM    1  C   LIG     1      14.470  31.804  17.936  1.00  0.00     0.180 C 
HETATM    2  C   LIG     1      15.001  32.157  19.347  1.00  0.00     0.178 C 
HETATM    3  C   LIG     1      14.973  33.678  19.614  1.00  0.00     0.152 C 
HETATM    4  C   LIG     1      15.717  34.447  18.510  1.00  0.00     0.069 C 
HETATM    5  C   LIG     1      15.114  34.157  17.128  1.00  0.00     0.152 C 
HETATM    6  C   LIG     1      15.137  32.644  16.814  1.00  0.00     0.178 C 
ENDROOT
BRANCH   1   7
HETATM    7  O   LIG     1      13.066  31.889  17.878  1.00  0.00    -0.390 OA
HETATM    8  H   LIG     1      12.792  32.783  18.201  1.00  0.00     0.210 HD
ENDBRANCH   1   7
BRANCH   2   9
HETATM    9  O   LIG     1      16.313  31.665  19.480  1.00  0.00    -0.390 OA
HETATM   10  H   LIG     1      16.909  32.451  19.590  1.00  0.00     0.210 HD
ENDBRANCH   2   9
BRANCH   6  11
HETATM   11  O   LIG     1      16.467  32.228  16.629  1.00  0.00    -0.390 OA
HETATM   12  H   LIG     1      16.996  32.610  17.379  1.00  0.00     0.210 HD
ENDBRANCH   6  11
BRANCH   3  13
HETATM   13  O   LIG     1      15.564  33.945  20.860  1.00  0.00    -0.393 OA
HETATM   14  H   LIG     1      15.221  34.828  21.159  1.00  0.00     0.210 HD
ENDBRANCH   3  13
BRANCH   5  15
HETATM   15  O   LIG     1      15.842  34.861  16.156  1.00  0.00    -0.393 OA
HETATM   16  H   LIG     1      16.795  34.606  16.270  1.00  0.00     0.210 HD
ENDBRANCH   5  15
TORSDOF 5
ENDMDL
MODEL 19
REMARK VINA RESULT:      -3.5      1.937      3.360
REMARK  5 active torsions:
REMARK  status: ('A' for Active; 'I' for Inactive)
REMARK    1  A    between atoms: O_1  and  C_2 
REMARK    2  A    between atoms: C_3  and  O_4 
REMARK    3  A    between atoms: C_5  and  O_6 
REMARK    4  A    between atoms: C_8  and  O_9 
REMARK    5  A    between atoms: C_10  and  O_11 
ROOT
HETATM    1  C   LIG     1      18.776  39.352  21.912  1.00  0.00     0.180 C 
HETATM    2  C   LIG     1      17.527  38.771  22.619  1.00  0.00     0.178 C 
HETATM    3  C   LIG     1      17.454  37.232  22.498  1.00  0.00     0.152 C 
HETATM    4  C   LIG     1      17.543  36.789  21.028  1.00  0.00     0.069 C 
HETATM    5  C   LIG     1      18.836  37.295  20.373  1.00  0.00     0.152 C 
HETATM    6  C   LIG     1      18.942  38.834  20.459  1.00  0.00     0.178 C 
ENDROOT
BRANCH   1   7
HETATM    7  O   LIG     1      19.943  39.137  22.671  1.00  0.00    -0.390 OA
HETATM    8  H   LIG     1      20.286  38.231  22.469  1.00  0.00     0.210 HD
ENDBRANCH   1   7
BRANCH   2   9
HETATM    9  O   LIG     1      16.373  39.356  22.065  1.00  0.00    -0.390 OA
HETATM   10  H   LIG     1      15.654  39.286  22.745  1.00  0.00     0.210 HD
ENDBRANCH   2   9
BRANCH   6  11
HETATM   11  O   LIG     1      17.964  39.414  19.629  1.00  0.00    -0.390 OA
HETATM   12  H   LIG     1      17.085  39.250  20.061  1.00  0.00     0.210 HD
ENDBRANCH   6  11
BRANCH   3  13
HETATM   13  O   LIG     1      16.250  36.776  23.060  1.00  0.00    -0.393 OA
HETATM   14  H   LIG     1      16.480  36.013  23.654  1.00  0.00     0.210 HD
ENDBRANCH   3  13
BRANCH   5  15
HETATM   15  O   LIG     1      18.857  36.886  19.030  1.00  0.00    -0.393 OA
HETATM   16  H   LIG     1      18.904  35.893  19.033  1.00  0.00     0.210 HD
ENDBRANCH   5  15
TORSDOF 5
ENDMDL
