REMARK  5 active torsions:
REMARK  status: ('A' for Active; 'I' for Inactive)
REMARK    1  A    between atoms: O_1  and  C_2 
REMARK    2  A    between atoms: C_3  and  O_4 
REMARK    3  A    between atoms: C_5  and  O_6 
REMARK    4  A    between atoms: C_8  and  O_9 
REMARK    5  A    between atoms: C_10  and  O_11 
ROOT
HETATM    1  C   LIG     1       0.034  -1.381   0.607  1.00  0.00     0.180 C 
HETATM    2  C   LIG     1       1.294  -0.749  -0.034  1.00  0.00     0.178 C 
HETATM    3  C   LIG     1       1.276   0.794   0.050  1.00  0.00     0.152 C 
HETATM    4  C   LIG     1      -0.022   1.365  -0.545  1.00  0.00     0.069 C 
HETATM    5  C   LIG     1      -1.257   0.797   0.169  1.00  0.00     0.152 C 
HETATM    6  C   LIG     1      -1.286  -0.746   0.095  1.00  0.00     0.178 C 
ENDROOT
BRANCH   1   7
HETATM    7  O   LIG     1       0.105  -1.358   2.013  1.00  0.00    -0.390 OA
HETATM    8  H   LIG     1       0.102  -0.414   2.312  1.00  0.00     0.210 HD
ENDBRANCH   1   7
BRANCH   2   9
HETATM    9  O   LIG     1       1.381  -1.160  -1.377  1.00  0.00    -0.390 OA
HETATM   10  H   LIG     1       2.338  -1.116  -1.635  1.00  0.00     0.210 HD
ENDBRANCH   2   9
BRANCH   6  11
HETATM   11  O   LIG     1      -1.526  -1.143  -1.233  1.00  0.00    -0.390 OA
HETATM   12  H   LIG     1      -1.855  -2.080  -1.199  1.00  0.00     0.210 HD
ENDBRANCH   6  11
BRANCH   3  13
HETATM   13  O   LIG     1       2.384   1.312  -0.640  1.00  0.00    -0.393 OA
HETATM   14  H   LIG     1       2.490   2.256  -0.348  1.00  0.00     0.210 HD
ENDBRANCH   3  13
BRANCH   5  15
HETATM   15  O   LIG     1      -2.412   1.329  -0.426  1.00  0.00    -0.393 OA
HETATM   16  H   LIG     1      -3.164   1.154   0.199  1.00  0.00     0.210 HD
ENDBRANCH   5  15
TORSDOF 5
