REMARK  3 active torsions:
REMARK  status: ('A' for Active; 'I' for Inactive)
REMARK    1  A    between atoms: C_2  and  C_5 
REMARK    2  A    between atoms: C_2  and  O_3 
REMARK    3  A    between atoms: C_5  and  C_7 
ROOT
HETATM    1  C   LIG     1      -1.515  -0.759  -1.346  1.00  0.00     0.045 C 
HETATM    2  C   LIG     1      -1.068  -0.397   0.092  1.00  0.00     0.054 C 
HETATM    3  C   LIG     1      -2.192   0.452   0.738  1.00  0.00     0.045 C 
ENDROOT
BRANCH   2   4
HETATM    4  C   LIG     1       0.292   0.396   0.074  1.00  0.00     0.015 C 
HETATM    5  C   LIG     1       0.711   0.844   1.493  1.00  0.00     0.013 C 
BRANCH   4   6
HETATM    6  C   LIG     1       1.435  -0.424  -0.591  1.00  0.00     0.002 C 
HETATM    7  C   LIG     1       2.744   0.355  -0.746  1.00  0.00     0.005 C 
ENDBRANCH   4   6
ENDBRANCH   2   4
BRANCH   2   8
HETATM    8  O   LIG     1      -0.894  -1.580   0.838  1.00  0.00    -0.390 OA
HETATM    9  H   LIG     1      -1.757  -2.073   0.840  1.00  0.00     0.210 HD
ENDBRANCH   2   8
TORSDOF 3
