MODEL 1
REMARK VINA RESULT:      -5.4      0.000      0.000
REMARK  3 active torsions:
REMARK  status: ('A' for Active; 'I' for Inactive)
REMARK    1  A    between atoms: C_2  and  C_5 
REMARK    2  A    between atoms: C_2  and  O_3 
REMARK    3  A    between atoms: C_5  and  C_7 
ROOT
HETATM    1  C   LIG     1      16.358  36.404  22.259  1.00  0.00     0.045 C 
HETATM    2  C   LIG     1      16.643  37.540  23.272  1.00  0.00     0.054 C 
HETATM    3  C   LIG     1      17.352  38.688  22.510  1.00  0.00     0.045 C 
ENDROOT
BRANCH   2   4
HETATM    4  C   LIG     1      17.538  37.021  24.460  1.00  0.00     0.015 C 
HETATM    5  C   LIG     1      17.371  37.895  25.724  1.00  0.00     0.013 C 
BRANCH   4   6
HETATM    6  C   LIG     1      17.253  35.529  24.795  1.00  0.00     0.002 C 
HETATM    7  C   LIG     1      17.955  35.036  26.062  1.00  0.00     0.005 C 
ENDBRANCH   4   6
ENDBRANCH   2   4
BRANCH   2   8
HETATM    8  O   LIG     1      15.424  38.014  23.796  1.00  0.00    -0.390 OA
HETATM    9  H   LIG     1      15.490  39.002  23.883  1.00  0.00     0.210 HD
ENDBRANCH   2   8
TORSDOF 3
ENDMDL
MODEL 2
REMARK VINA RESULT:      -5.1      1.512      3.513
REMARK  3 active torsions:
REMARK  status: ('A' for Active; 'I' for Inactive)
REMARK    1  A    between atoms: C_2  and  C_5 
REMARK    2  A    between atoms: C_2  and  O_3 
REMARK    3  A    between atoms: C_5  and  C_7 
ROOT
HETATM    1  C   LIG     1      17.976  38.153  24.432  1.00  0.00     0.045 C 
HETATM    2  C   LIG     1      16.941  37.488  23.490  1.00  0.00     0.054 C 
HETATM    3  C   LIG     1      17.039  35.954  23.687  1.00  0.00     0.045 C 
ENDROOT
BRANCH   2   4
HETATM    4  C   LIG     1      17.216  37.879  21.990  1.00  0.00     0.015 C 
HETATM    5  C   LIG     1      18.375  38.895  21.867  1.00  0.00     0.013 C 
BRANCH   4   6
HETATM    6  C   LIG     1      17.498  36.630  21.106  1.00  0.00     0.002 C 
HETATM    7  C   LIG     1      18.527  36.877  20.000  1.00  0.00     0.005 C 
ENDBRANCH   4   6
ENDBRANCH   2   4
BRANCH   2   8
HETATM    8  O   LIG     1      15.646  37.919  23.842  1.00  0.00    -0.390 OA
HETATM    9  H   LIG     1      15.456  37.602  24.765  1.00  0.00     0.210 HD
ENDBRANCH   2   8
TORSDOF 3
ENDMDL
MODEL 3
REMARK VINA RESULT:      -5.1      1.240      3.051
REMARK  3 active torsions:
REMARK  status: ('A' for Active; 'I' for Inactive)
REMARK    1  A    between atoms: C_2  and  C_5 
REMARK    2  A    between atoms: C_2  and  O_3 
REMARK    3  A    between atoms: C_5  and  C_7 
ROOT
HETATM    1  C   LIG     1      17.122  38.937  22.530  1.00  0.00     0.045 C 
HETATM    2  C   LIG     1      16.490  37.747  23.294  1.00  0.00     0.054 C 
HETATM    3  C   LIG     1      17.190  37.645  24.673  1.00  0.00     0.045 C 
ENDROOT
BRANCH   2   4
HETATM    4  C   LIG     1      16.654  36.408  22.482  1.00  0.00     0.015 C 
HETATM    5  C   LIG     1      17.039  35.227  23.401  1.00  0.00     0.013 C 
BRANCH   4   6
HETATM    6  C   LIG     1      15.375  36.062  21.666  1.00  0.00     0.002 C 
HETATM    7  C   LIG     1      15.251  34.577  21.315  1.00  0.00     0.005 C 
ENDBRANCH   4   6
ENDBRANCH   2   4
BRANCH   2   8
HETATM    8  O   LIG     1      15.117  37.995  23.488  1.00  0.00    -0.390 OA
HETATM    9  H   LIG     1      14.740  38.334  22.633  1.00  0.00     0.210 HD
ENDBRANCH   2   8
TORSDOF 3
ENDMDL
MODEL 4
REMARK VINA RESULT:      -4.6      2.501      3.769
REMARK  3 active torsions:
REMARK  status: ('A' for Active; 'I' for Inactive)
REMARK    1  A    between atoms: C_2  and  C_5 
REMARK    2  A    between atoms: C_2  and  O_3 
REMARK    3  A    between atoms: C_5  and  C_7 
ROOT
HETATM    1  C   LIG     1      15.023  35.727  21.305  1.00  0.00     0.045 C 
HETATM    2  C   LIG     1      16.543  35.977  21.464  1.00  0.00     0.054 C 
HETATM    3  C   LIG     1      17.082  34.965  22.507  1.00  0.00     0.045 C 
ENDROOT
BRANCH   2   4
HETATM    4  C   LIG     1      16.824  37.457  21.924  1.00  0.00     0.015 C 
HETATM    5  C   LIG     1      16.999  37.556  23.456  1.00  0.00     0.013 C 
BRANCH   4   6
HETATM    6  C   LIG     1      18.059  38.066  21.200  1.00  0.00     0.002 C 
HETATM    7  C   LIG     1      18.542  39.385  21.809  1.00  0.00     0.005 C 
ENDBRANCH   4   6
ENDBRANCH   2   4
BRANCH   2   8
HETATM    8  O   LIG     1      17.184  35.756  20.229  1.00  0.00    -0.390 OA
HETATM    9  H   LIG     1      18.156  35.922  20.352  1.00  0.00     0.210 HD
ENDBRANCH   2   8
TORSDOF 3
ENDMDL
MODEL 5
REMARK VINA RESULT:      -4.6      8.396     10.369
REMARK  3 active torsions:
REMARK  status: ('A' for Active; 'I' for Inactive)
REMARK    1  A    between atoms: C_2  and  C_5 
REMARK    2  A    between atoms: C_2  and  O_3 
REMARK    3  A    between atoms: C_5  and  C_7 
ROOT
HETATM    1  C   LIG     1      15.075  33.403  16.654  1.00  0.00     0.045 C 
HETATM    2  C   LIG     1      14.176  32.217  17.081  1.00  0.00     0.054 C 
HETATM    3  C   LIG     1      14.580  31.811  18.522  1.00  0.00     0.045 C 
ENDROOT
BRANCH   2   4
HETATM    4  C   LIG     1      14.339  31.003  16.092  1.00  0.00     0.015 C 
HETATM    5  C   LIG     1      12.972  30.490  15.587  1.00  0.00     0.013 C 
BRANCH   4   6
HETATM    6  C   LIG     1      15.261  31.354  14.888  1.00  0.00     0.002 C 
HETATM    7  C   LIG     1      15.264  30.294  13.783  1.00  0.00     0.005 C 
ENDBRANCH   4   6
ENDBRANCH   2   4
BRANCH   2   8
HETATM    8  O   LIG     1      12.828  32.628  17.077  1.00  0.00    -0.390 OA
HETATM    9  H   LIG     1      12.342  32.084  16.402  1.00  0.00     0.210 HD
ENDBRANCH   2   8
TORSDOF 3
ENDMDL
MODEL 6
REMARK VINA RESULT:      -4.4      3.287      4.613
REMARK  3 active torsions:
REMARK  status: ('A' for Active; 'I' for Inactive)
REMARK    1  A    between atoms: C_2  and  C_5 
REMARK    2  A    between atoms: C_2  and  O_3 
REMARK    3  A    between atoms: C_5  and  C_7 
ROOT
HETATM    1  C   LIG     1      18.720  39.133  18.635  1.00  0.00     0.045 C 
HETATM    2  C   LIG     1      19.162  38.418  19.936  1.00  0.00     0.054 C 
HETATM    3  C   LIG     1      19.702  37.018  19.547  1.00  0.00     0.045 C 
ENDROOT
BRANCH   2   4
HETATM    4  C   LIG     1      17.960  38.293  20.944  1.00  0.00     0.015 C 
HETATM    5  C   LIG     1      17.536  36.821  21.149  1.00  0.00     0.013 C 
BRANCH   4   6
HETATM    6  C   LIG     1      18.278  38.958  22.314  1.00  0.00     0.002 C 
HETATM    7  C   LIG     1      17.383  38.473  23.458  1.00  0.00     0.005 C 
ENDBRANCH   4   6
ENDBRANCH   2   4
BRANCH   2   8
HETATM    8  O   LIG     1      20.193  39.159  20.548  1.00  0.00    -0.390 OA
HETATM    9  H   LIG     1      21.009  39.073  19.987  1.00  0.00     0.210 HD
ENDBRANCH   2   8
TORSDOF 3
ENDMDL
MODEL 7
REMARK VINA RESULT:      -4.3      4.042      5.134
REMARK  3 active torsions:
REMARK  status: ('A' for Active; 'I' for Inactive)
REMARK    1  A    between atoms: C_2  and  C_5 
REMARK    2  A    between atoms: C_2  and  O_3 
REMARK    3  A    between atoms: C_5  and  C_7 
ROOT
HETATM    1  C   LIG     1      20.647  38.896  19.508  1.00  0.00     0.045 C 
HETATM    2  C   LIG     1      19.114  38.885  19.726  1.00  0.00     0.054 C 
HETATM    3  C   LIG     1      18.823  39.569  21.086  1.00  0.00     0.045 C 
ENDROOT
BRANCH   2   4
HETATM    4  C   LIG     1      18.555  37.413  19.709  1.00  0.00     0.015 C 
HETATM    5  C   LIG     1      19.684  36.376  19.509  1.00  0.00     0.013 C 
BRANCH   4   6
HETATM    6  C   LIG     1      17.743  37.084  20.995  1.00  0.00     0.002 C 
HETATM    7  C   LIG     1      16.952  35.776  20.907  1.00  0.00     0.005 C 
ENDBRANCH   4   6
ENDBRANCH   2   4
BRANCH   2   8
HETATM    8  O   LIG     1      18.491  39.619  18.696  1.00  0.00    -0.390 OA
HETATM    9  H   LIG     1      19.198  40.097  18.187  1.00  0.00     0.210 HD
ENDBRANCH   2   8
TORSDOF 3
ENDMDL
MODEL 8
REMARK VINA RESULT:      -4.1      1.507      2.484
REMARK  3 active torsions:
REMARK  status: ('A' for Active; 'I' for Inactive)
REMARK    1  A    between atoms: C_2  and  C_5 
REMARK    2  A    between atoms: C_2  and  O_3 
REMARK    3  A    between atoms: C_5  and  C_7 
ROOT
HETATM    1  C   LIG     1      15.044  36.276  21.712  1.00  0.00     0.045 C 
HETATM    2  C   LIG     1      16.519  36.325  22.180  1.00  0.00     0.054 C 
HETATM    3  C   LIG     1      17.234  35.066  21.629  1.00  0.00     0.045 C 
ENDROOT
BRANCH   2   4
HETATM    4  C   LIG     1      16.608  36.376  23.751  1.00  0.00     0.015 C 
HETATM    5  C   LIG     1      17.226  35.083  24.331  1.00  0.00     0.013 C 
BRANCH   4   6
HETATM    6  C   LIG     1      17.398  37.620  24.250  1.00  0.00     0.002 C 
HETATM    7  C   LIG     1      17.752  37.571  25.738  1.00  0.00     0.005 C 
ENDBRANCH   4   6
ENDBRANCH   2   4
BRANCH   2   8
HETATM    8  O   LIG     1      17.138  37.477  21.653  1.00  0.00    -0.390 OA
HETATM    9  H   LIG     1      18.081  37.491  21.965  1.00  0.00     0.210 HD
ENDBRANCH   2   8
TORSDOF 3
ENDMDL
MODEL 9
REMARK VINA RESULT:      -4.0      7.861      9.662
REMARK  3 active torsions:
REMARK  status: ('A' for Active; 'I' for Inactive)
REMARK    1  A    between atoms: C_2  and  C_5 
REMARK    2  A    between atoms: C_2  and  O_3 
REMARK    3  A    between atoms: C_5  and  C_7 
ROOT
HETATM    1  C   LIG     1      14.894  32.249  18.591  1.00  0.00     0.045 C 
HETATM    2  C   LIG     1      14.479  32.539  17.127  1.00  0.00     0.054 C 
HETATM    3  C   LIG     1      13.206  31.711  16.822  1.00  0.00     0.045 C 
ENDROOT
BRANCH   2   4
HETATM    4  C   LIG     1      15.641  32.166  16.131  1.00  0.00     0.015 C 
HETATM    5  C   LIG     1      15.141  31.256  14.986  1.00  0.00     0.013 C 
BRANCH   4   6
HETATM    6  C   LIG     1      16.336  33.430  15.549  1.00  0.00     0.002 C 
HETATM    7  C   LIG     1      17.600  33.123  14.741  1.00  0.00     0.005 C 
ENDBRANCH   4   6
ENDBRANCH   2   4
BRANCH   2   8
HETATM    8  O   LIG     1      14.185  33.910  16.988  1.00  0.00    -0.390 OA
HETATM    9  H   LIG     1      13.198  34.019  17.032  1.00  0.00     0.210 HD
ENDBRANCH   2   8
TORSDOF 3
ENDMDL
MODEL 10
REMARK VINA RESULT:      -4.0      3.518      4.453
REMARK  3 active torsions:
REMARK  status: ('A' for Active; 'I' for Inactive)
REMARK    1  A    between atoms: C_2  and  C_5 
REMARK    2  A    between atoms: C_2  and  O_3 
REMARK    3  A    between atoms: C_5  and  C_7 
ROOT
HETATM    1  C   LIG     1      20.465  37.754  19.681  1.00  0.00     0.045 C 
HETATM    2  C   LIG     1      18.919  37.803  19.601  1.00  0.00     0.054 C 
HETATM    3  C   LIG     1      18.520  39.156  18.959  1.00  0.00     0.045 C 
ENDROOT
BRANCH   2   4
HETATM    4  C   LIG     1      18.278  37.651  21.031  1.00  0.00     0.015 C 
HETATM    5  C   LIG     1      17.834  39.016  21.605  1.00  0.00     0.013 C 
BRANCH   4   6
HETATM    6  C   LIG     1      17.084  36.653  21.031  1.00  0.00     0.002 C 
HETATM    7  C   LIG     1      17.315  35.415  21.901  1.00  0.00     0.005 C 
ENDBRANCH   4   6
ENDBRANCH   2   4
BRANCH   2   8
HETATM    8  O   LIG     1      18.461  36.749  18.784  1.00  0.00    -0.390 OA
HETATM    9  H   LIG     1      17.467  36.762  18.792  1.00  0.00     0.210 HD
ENDBRANCH   2   8
TORSDOF 3
ENDMDL
MODEL 11
REMARK VINA RESULT:      -3.9      1.657      2.133
REMARK  3 active torsions:
REMARK  status: ('A' for Active; 'I' for Inactive)
REMARK    1  A    between atoms: C_2  and  C_5 
REMARK    2  A    between atoms: C_2  and  O_3 
REMARK    3  A    between atoms: C_5  and  C_7 
ROOT
HETATM    1  C   LIG     1      15.475  37.765  22.823  1.00  0.00     0.045 C 
HETATM    2  C   LIG     1      16.954  37.751  22.364  1.00  0.00     0.054 C 
HETATM    3  C   LIG     1      17.151  36.521  21.441  1.00  0.00     0.045 C 
ENDROOT
BRANCH   2   4
HETATM    4  C   LIG     1      17.925  37.684  23.601  1.00  0.00     0.015 C 
HETATM    5  C   LIG     1      18.947  38.844  23.588  1.00  0.00     0.013 C 
BRANCH   4   6
HETATM    6  C   LIG     1      17.150  37.665  24.949  1.00  0.00     0.002 C 
HETATM    7  C   LIG     1      17.930  37.025  26.101  1.00  0.00     0.005 C 
ENDBRANCH   4   6
ENDBRANCH   2   4
BRANCH   2   8
HETATM    8  O   LIG     1      17.227  38.926  21.635  1.00  0.00    -0.390 OA
HETATM    9  H   LIG     1      18.179  38.898  21.350  1.00  0.00     0.210 HD
ENDBRANCH   2   8
TORSDOF 3
ENDMDL
MODEL 12
REMARK VINA RESULT:      -3.8     10.153     11.846
REMARK  3 active torsions:
REMARK  status: ('A' for Active; 'I' for Inactive)
REMARK    1  A    between atoms: C_2  and  C_5 
REMARK    2  A    between atoms: C_2  and  O_3 
REMARK    3  A    between atoms: C_5  and  C_7 
ROOT
HETATM    1  C   LIG     1      13.186  29.188  14.114  1.00  0.00     0.045 C 
HETATM    2  C   LIG     1      14.641  29.716  14.158  1.00  0.00     0.054 C 
HETATM    3  C   LIG     1      15.590  28.491  14.129  1.00  0.00     0.045 C 
ENDROOT
BRANCH   2   4
HETATM    4  C   LIG     1      14.885  30.582  15.450  1.00  0.00     0.015 C 
HETATM    5  C   LIG     1      15.622  31.901  15.123  1.00  0.00     0.013 C 
BRANCH   4   6
HETATM    6  C   LIG     1      13.561  30.879  16.210  1.00  0.00     0.002 C 
HETATM    7  C   LIG     1      13.661  32.051  17.190  1.00  0.00     0.005 C 
ENDBRANCH   4   6
ENDBRANCH   2   4
BRANCH   2   8
HETATM    8  O   LIG     1      14.882  30.515  13.023  1.00  0.00    -0.390 OA
HETATM    9  H   LIG     1      15.848  30.448  12.798  1.00  0.00     0.210 HD
ENDBRANCH   2   8
TORSDOF 3
ENDMDL
MODEL 13
REMARK VINA RESULT:      -3.7      9.392     11.121
REMARK  3 active torsions:
REMARK  status: ('A' for Active; 'I' for Inactive)
REMARK    1  A    between atoms: C_2  and  C_5 
REMARK    2  A    between atoms: C_2  and  O_3 
REMARK    3  A    between atoms: C_5  and  C_7 
ROOT
HETATM    1  C   LIG     1      17.513  32.200  15.431  1.00  0.00     0.045 C 
HETATM    2  C   LIG     1      16.000  32.352  15.139  1.00  0.00     0.054 C 
HETATM    3  C   LIG     1      15.410  33.327  16.189  1.00  0.00     0.045 C 
ENDROOT
BRANCH   2   4
HETATM    4  C   LIG     1      15.273  30.957  15.201  1.00  0.00     0.015 C 
HETATM    5  C   LIG     1      13.915  31.052  15.934  1.00  0.00     0.013 C 
BRANCH   4   6
HETATM    6  C   LIG     1      15.079  30.338  13.786  1.00  0.00     0.002 C 
HETATM    7  C   LIG     1      15.269  28.820  13.745  1.00  0.00     0.005 C 
ENDBRANCH   4   6
ENDBRANCH   2   4
BRANCH   2   8
HETATM    8  O   LIG     1      15.826  32.898  13.851  1.00  0.00    -0.390 OA
HETATM    9  H   LIG     1      16.259  33.792  13.835  1.00  0.00     0.210 HD
ENDBRANCH   2   8
TORSDOF 3
ENDMDL
MODEL 14
REMARK VINA RESULT:      -3.5      8.658     10.256
REMARK  3 active torsions:
REMARK  status: ('A' for Active; 'I' for Inactive)
REMARK    1  A    between atoms: C_2  and  C_5 
REMARK    2  A    between atoms: C_2  and  O_3 
REMARK    3  A    between atoms: C_5  and  C_7 
ROOT
HETATM    1  C   LIG     1      15.673  30.355  14.281  1.00  0.00     0.045 C 
HETATM    2  C   LIG     1      15.807  31.808  14.801  1.00  0.00     0.054 C 
HETATM    3  C   LIG     1      17.199  31.946  15.467  1.00  0.00     0.045 C 
ENDROOT
BRANCH   2   4
HETATM    4  C   LIG     1      14.661  32.145  15.826  1.00  0.00     0.015 C 
HETATM    5  C   LIG     1      13.745  30.926  16.081  1.00  0.00     0.013 C 
BRANCH   4   6
HETATM    6  C   LIG     1      15.224  32.687  17.171  1.00  0.00     0.002 C 
HETATM    7  C   LIG     1      14.645  31.993  18.407  1.00  0.00     0.005 C 
ENDBRANCH   4   6
ENDBRANCH   2   4
BRANCH   2   8
HETATM    8  O   LIG     1      15.722  32.702  13.714  1.00  0.00    -0.390 OA
HETATM    9  H   LIG     1      16.400  33.416  13.849  1.00  0.00     0.210 HD
ENDBRANCH   2   8
TORSDOF 3
ENDMDL
MODEL 15
REMARK VINA RESULT:      -3.5     17.985     19.226
REMARK  3 active torsions:
REMARK  status: ('A' for Active; 'I' for Inactive)
REMARK    1  A    between atoms: C_2  and  C_5 
REMARK    2  A    between atoms: C_2  and  O_3 
REMARK    3  A    between atoms: C_5  and  C_7 
ROOT
HETATM    1  C   LIG     1      22.157  23.497  34.685  1.00  0.00     0.045 C 
HETATM    2  C   LIG     1      21.438  23.353  36.049  1.00  0.00     0.054 C 
HETATM    3  C   LIG     1      22.441  22.726  37.050  1.00  0.00     0.045 C 
ENDROOT
BRANCH   2   4
HETATM    4  C   LIG     1      20.150  22.458  35.914  1.00  0.00     0.015 C 
HETATM    5  C   LIG     1      19.414  22.714  34.578  1.00  0.00     0.013 C 
BRANCH   4   6
HETATM    6  C   LIG     1      20.474  20.944  36.068  1.00  0.00     0.002 C 
HETATM    7  C   LIG     1      19.336  20.129  36.688  1.00  0.00     0.005 C 
ENDBRANCH   4   6
ENDBRANCH   2   4
BRANCH   2   8
HETATM    8  O   LIG     1      21.058  24.629  36.512  1.00  0.00    -0.390 OA
HETATM    9  H   LIG     1      21.635  25.304  36.065  1.00  0.00     0.210 HD
ENDBRANCH   2   8
TORSDOF 3
ENDMDL
MODEL 16
REMARK VINA RESULT:      -3.4      6.717      8.068
REMARK  3 active torsions:
REMARK  status: ('A' for Active; 'I' for Inactive)
REMARK    1  A    between atoms: C_2  and  C_5 
REMARK    2  A    between atoms: C_2  and  O_3 
REMARK    3  A    between atoms: C_5  and  C_7 
ROOT
HETATM    1  C   LIG     1      14.040  31.417  16.343  1.00  0.00     0.045 C 
HETATM    2  C   LIG     1      14.720  32.701  16.878  1.00  0.00     0.054 C 
HETATM    3  C   LIG     1      15.874  33.065  15.910  1.00  0.00     0.045 C 
ENDROOT
BRANCH   2   4
HETATM    4  C   LIG     1      15.264  32.481  18.339  1.00  0.00     0.015 C 
HETATM    5  C   LIG     1      15.396  33.817  19.107  1.00  0.00     0.013 C 
BRANCH   4   6
HETATM    6  C   LIG     1      14.383  31.482  19.144  1.00  0.00     0.002 C 
HETATM    7  C   LIG     1      15.075  30.911  20.385  1.00  0.00     0.005 C 
ENDBRANCH   4   6
ENDBRANCH   2   4
BRANCH   2   8
HETATM    8  O   LIG     1      13.782  33.753  16.897  1.00  0.00    -0.390 OA
HETATM    9  H   LIG     1      14.220  34.550  17.297  1.00  0.00     0.210 HD
ENDBRANCH   2   8
TORSDOF 3
ENDMDL
MODEL 17
REMARK VINA RESULT:      -3.3      7.902      9.801
REMARK  3 active torsions:
REMARK  status: ('A' for Active; 'I' for Inactive)
REMARK    1  A    between atoms: C_2  and  C_5 
REMARK    2  A    between atoms: C_2  and  O_3 
REMARK    3  A    between atoms: C_5  and  C_7 
ROOT
HETATM    1  C   LIG     1      16.378  33.813  16.191  1.00  0.00     0.045 C 
HETATM    2  C   LIG     1      15.032  33.245  16.706  1.00  0.00     0.054 C 
HETATM    3  C   LIG     1      15.286  32.611  18.097  1.00  0.00     0.045 C 
ENDROOT
BRANCH   2   4
HETATM    4  C   LIG     1      14.453  32.179  15.703  1.00  0.00     0.015 C 
HETATM    5  C   LIG     1      15.574  31.482  14.899  1.00  0.00     0.013 C 
BRANCH   4   6
HETATM    6  C   LIG     1      13.571  31.120  16.425  1.00  0.00     0.002 C 
HETATM    7  C   LIG     1      12.849  30.164  15.471  1.00  0.00     0.005 C 
ENDBRANCH   4   6
ENDBRANCH   2   4
BRANCH   2   8
HETATM    8  O   LIG     1      14.103  34.296  16.838  1.00  0.00    -0.390 OA
HETATM    9  H   LIG     1      13.387  34.162  16.162  1.00  0.00     0.210 HD
ENDBRANCH   2   8
TORSDOF 3
ENDMDL
MODEL 18
REMARK VINA RESULT:      -3.3     17.075     18.512
REMARK  3 active torsions:
REMARK  status: ('A' for Active; 'I' for Inactive)
REMARK    1  A    between atoms: C_2  and  C_5 
REMARK    2  A    between atoms: C_2  and  O_3 
REMARK    3  A    between atoms: C_5  and  C_7 
ROOT
HETATM    1  C   LIG     1      19.863  22.980  33.143  1.00  0.00     0.045 C 
HETATM    2  C   LIG     1      21.030  22.920  34.160  1.00  0.00     0.054 C 
HETATM    3  C   LIG     1      21.802  21.599  33.917  1.00  0.00     0.045 C 
ENDROOT
BRANCH   2   4
HETATM    4  C   LIG     1      20.491  22.990  35.637  1.00  0.00     0.015 C 
HETATM    5  C   LIG     1      20.334  21.582  36.256  1.00  0.00     0.013 C 
BRANCH   4   6
HETATM    6  C   LIG     1      21.391  23.879  36.543  1.00  0.00     0.002 C 
HETATM    7  C   LIG     1      22.472  23.098  37.296  1.00  0.00     0.005 C 
ENDBRANCH   4   6
ENDBRANCH   2   4
BRANCH   2   8
HETATM    8  O   LIG     1      21.896  24.010  33.940  1.00  0.00    -0.390 OA
HETATM    9  H   LIG     1      21.495  24.586  33.236  1.00  0.00     0.210 HD
ENDBRANCH   2   8
TORSDOF 3
ENDMDL
MODEL 19
REMARK VINA RESULT:      -3.3     15.900     17.369
REMARK  3 active torsions:
REMARK  status: ('A' for Active; 'I' for Inactive)
REMARK    1  A    between atoms: C_2  and  C_5 
REMARK    2  A    between atoms: C_2  and  O_3 
REMARK    3  A    between atoms: C_5  and  C_7 
ROOT
HETATM    1  C   LIG     1      27.345  30.876  38.033  1.00  0.00     0.045 C 
HETATM    2  C   LIG     1      26.394  29.845  37.377  1.00  0.00     0.054 C 
HETATM    3  C   LIG     1      27.067  28.452  37.471  1.00  0.00     0.045 C 
ENDROOT
BRANCH   2   4
HETATM    4  C   LIG     1      26.101  30.225  35.878  1.00  0.00     0.015 C 
HETATM    5  C   LIG     1      25.713  31.714  35.731  1.00  0.00     0.013 C 
BRANCH   4   6
HETATM    6  C   LIG     1      27.302  29.888  34.947  1.00  0.00     0.002 C 
HETATM    7  C   LIG     1      27.788  31.075  34.111  1.00  0.00     0.005 C 
ENDBRANCH   4   6
ENDBRANCH   2   4
BRANCH   2   8
HETATM    8  O   LIG     1      25.175  29.819  38.085  1.00  0.00    -0.390 OA
HETATM    9  H   LIG     1      24.520  29.296  37.551  1.00  0.00     0.210 HD
ENDBRANCH   2   8
TORSDOF 3
ENDMDL
MODEL 20
REMARK VINA RESULT:      -3.0     16.332     17.479
REMARK  3 active torsions:
REMARK  status: ('A' for Active; 'I' for Inactive)
REMARK    1  A    between atoms: C_2  and  C_5 
REMARK    2  A    between atoms: C_2  and  O_3 
REMARK    3  A    between atoms: C_5  and  C_7 
ROOT
HETATM    1  C   LIG     1      22.059  22.862  21.237  1.00  0.00     0.045 C 
HETATM    2  C   LIG     1      23.246  22.044  20.670  1.00  0.00     0.054 C 
HETATM    3  C   LIG     1      24.528  22.901  20.821  1.00  0.00     0.045 C 
ENDROOT
BRANCH   2   4
HETATM    4  C   LIG     1      22.998  21.668  19.161  1.00  0.00     0.015 C 
HETATM    5  C   LIG     1      24.088  22.261  18.239  1.00  0.00     0.013 C 
BRANCH   4   6
HETATM    6  C   LIG     1      22.896  20.130  18.954  1.00  0.00     0.002 C 
HETATM    7  C   LIG     1      22.467  19.725  17.541  1.00  0.00     0.005 C 
ENDBRANCH   4   6
ENDBRANCH   2   4
BRANCH   2   8
HETATM    8  O   LIG     1      23.391  20.856  21.416  1.00  0.00    -0.390 OA
HETATM    9  H   LIG     1      23.466  21.102  22.376  1.00  0.00     0.210 HD
ENDBRANCH   2   8
TORSDOF 3
ENDMDL
