REMARK  3 active torsions:
REMARK  status: ('A' for Active; 'I' for Inactive)
REMARK    1  A    between atoms: C_2  and  C_6 
REMARK    2  A    between atoms: C_2  and  C_3 
REMARK    3  A    between atoms: C_3  and  O_4 
ROOT
HETATM    1  C   LIG     1       0.133   0.102   0.093  1.00  0.00    -0.020 A 
HETATM    2  C   LIG     1       1.209   0.923  -0.291  1.00  0.00     0.012 A 
HETATM    3  C   LIG     1       2.526   0.537  -0.021  1.00  0.00     0.001 A 
HETATM    4  C   LIG     1       2.781  -0.669   0.635  1.00  0.00     0.000 A 
HETATM    5  C   LIG     1       1.721  -1.491   1.025  1.00  0.00     0.001 A 
HETATM    6  C   LIG     1       0.403  -1.110   0.756  1.00  0.00     0.012 A 
ENDROOT
BRANCH   1   7
HETATM    7  C   LIG     1      -1.269   0.507  -0.189  1.00  0.00     0.038 C 
HETATM    8  C   LIG     1      -1.668   1.755   0.087  1.00  0.00     0.031 C 
BRANCH   7   9
HETATM    9  C   LIG     1      -2.225  -0.463  -0.775  1.00  0.00     0.176 C 
HETATM   10  O   LIG     1      -1.817  -1.574  -1.208  1.00  0.00    -0.646 OA
BRANCH   9  11
HETATM   11  O   LIG     1      -3.579  -0.152  -0.868  1.00  0.00    -0.773 OA
HETATM   12  H   LIG     1      -4.237  -0.808  -1.272  1.00  0.00     0.167 HD
ENDBRANCH   9  11
ENDBRANCH   7   9
ENDBRANCH   1   7
TORSDOF 3
