MODEL 1
REMARK VINA RESULT:      -7.4      0.000      0.000
REMARK  4 active torsions:
REMARK  status: ('A' for Active; 'I' for Inactive)
REMARK    1  A    between atoms: C_2  and  C_3 
REMARK       I    between atoms: C_2  and  N_9 
REMARK    2  A    between atoms: N_9  and  C_10 
REMARK    3  A    between atoms: C_10  and  C_11 
REMARK    4  A    between atoms: C_11  and  O_12 
ROOT
HETATM    1  O   LIG     1      16.138  37.164  22.462  1.00  0.00    -0.268 OA
HETATM    2  C   LIG     1      16.666  36.110  22.912  1.00  0.00     0.252 C 
HETATM    3  N   LIG     1      16.654  34.914  22.114  1.00  0.00    -0.347 N 
HETATM    4  H   LIG     1      16.982  34.010  22.520  1.00  0.00     0.163 HD
ENDROOT
BRANCH   2   5
HETATM    5  C   LIG     1      17.270  36.125  24.267  1.00  0.00     0.032 A 
HETATM    6  C   LIG     1      17.639  37.333  24.888  1.00  0.00     0.017 A 
HETATM    7  C   LIG     1      18.202  37.328  26.168  1.00  0.00     0.001 A 
HETATM    8  C   LIG     1      18.398  36.121  26.844  1.00  0.00     0.000 A 
HETATM    9  C   LIG     1      18.024  34.917  26.243  1.00  0.00     0.001 A 
HETATM   10  C   LIG     1      17.460  34.917  24.963  1.00  0.00     0.017 A 
ENDBRANCH   2   5
BRANCH   3  11
HETATM   11  C   LIG     1      16.188  34.906  20.730  1.00  0.00     0.232 C 
BRANCH  11  12
HETATM   12  C   LIG     1      15.347  33.697  20.467  1.00  0.00     0.158 C 
HETATM   13  O   LIG     1      15.625  32.934  19.502  1.00  0.00    -0.649 OA
BRANCH  12  14
HETATM   14  O   LIG     1      14.259  33.416  21.285  1.00  0.00    -0.775 OA
HETATM   15  H   LIG     1      13.442  34.015  21.287  1.00  0.00     0.167 HD
ENDBRANCH  12  14
ENDBRANCH  11  12
ENDBRANCH   3  11
TORSDOF 4
ENDMDL
MODEL 2
REMARK VINA RESULT:      -7.2      3.202      4.090
REMARK  4 active torsions:
REMARK  status: ('A' for Active; 'I' for Inactive)
REMARK    1  A    between atoms: C_2  and  C_3 
REMARK       I    between atoms: C_2  and  N_9 
REMARK    2  A    between atoms: N_9  and  C_10 
REMARK    3  A    between atoms: C_10  and  C_11 
REMARK    4  A    between atoms: C_11  and  O_12 
ROOT
HETATM    1  O   LIG     1      16.601  39.069  23.607  1.00  0.00    -0.268 OA
HETATM    2  C   LIG     1      17.406  38.117  23.413  1.00  0.00     0.252 C 
HETATM    3  N   LIG     1      18.134  38.045  22.175  1.00  0.00    -0.347 N 
HETATM    4  H   LIG     1      18.713  37.205  21.956  1.00  0.00     0.163 HD
ENDROOT
BRANCH   2   5
HETATM    5  C   LIG     1      17.567  37.081  24.461  1.00  0.00     0.032 A 
HETATM    6  C   LIG     1      17.139  35.756  24.250  1.00  0.00     0.017 A 
HETATM    7  C   LIG     1      17.306  34.791  25.249  1.00  0.00     0.001 A 
HETATM    8  C   LIG     1      17.905  35.133  26.463  1.00  0.00     0.000 A 
HETATM    9  C   LIG     1      18.344  36.441  26.679  1.00  0.00     0.001 A 
HETATM   10  C   LIG     1      18.181  37.410  25.685  1.00  0.00     0.017 A 
ENDBRANCH   2   5
BRANCH   3  11
HETATM   11  C   LIG     1      18.096  39.119  21.185  1.00  0.00     0.232 C 
BRANCH  11  12
HETATM   12  C   LIG     1      19.044  38.832  20.064  1.00  0.00     0.158 C 
HETATM   13  O   LIG     1      18.884  37.804  19.352  1.00  0.00    -0.649 OA
BRANCH  12  14
HETATM   14  O   LIG     1      20.102  39.698  19.810  1.00  0.00    -0.775 OA
HETATM   15  H   LIG     1      20.097  40.297  18.993  1.00  0.00     0.167 HD
ENDBRANCH  12  14
ENDBRANCH  11  12
ENDBRANCH   3  11
TORSDOF 4
ENDMDL
MODEL 3
REMARK VINA RESULT:      -7.2      3.227      4.068
REMARK  4 active torsions:
REMARK  status: ('A' for Active; 'I' for Inactive)
REMARK    1  A    between atoms: C_2  and  C_3 
REMARK       I    between atoms: C_2  and  N_9 
REMARK    2  A    between atoms: N_9  and  C_10 
REMARK    3  A    between atoms: C_10  and  C_11 
REMARK    4  A    between atoms: C_11  and  O_12 
ROOT
HETATM    1  O   LIG     1      17.049  35.092  22.411  1.00  0.00    -0.268 OA
HETATM    2  C   LIG     1      17.017  35.527  21.227  1.00  0.00     0.252 C 
HETATM    3  N   LIG     1      16.272  34.810  20.227  1.00  0.00    -0.347 N 
HETATM    4  H   LIG     1      16.332  35.094  19.225  1.00  0.00     0.163 HD
ENDROOT
BRANCH   2   5
HETATM    5  C   LIG     1      17.767  36.761  20.888  1.00  0.00     0.032 A 
HETATM    6  C   LIG     1      17.610  37.941  21.641  1.00  0.00     0.017 A 
HETATM    7  C   LIG     1      18.330  39.093  21.310  1.00  0.00     0.001 A 
HETATM    8  C   LIG     1      19.218  39.080  20.232  1.00  0.00     0.000 A 
HETATM    9  C   LIG     1      19.392  37.913  19.486  1.00  0.00     0.001 A 
HETATM   10  C   LIG     1      18.674  36.758  19.812  1.00  0.00     0.017 A 
ENDBRANCH   2   5
BRANCH   3  11
HETATM   11  C   LIG     1      15.418  33.673  20.560  1.00  0.00     0.232 C 
BRANCH  11  12
HETATM   12  C   LIG     1      15.141  32.851  19.340  1.00  0.00     0.158 C 
HETATM   13  O   LIG     1      15.625  33.194  18.227  1.00  0.00    -0.649 OA
BRANCH  12  14
HETATM   14  O   LIG     1      14.348  31.713  19.434  1.00  0.00    -0.775 OA
HETATM   15  H   LIG     1      14.248  31.222  20.314  1.00  0.00     0.167 HD
ENDBRANCH  12  14
ENDBRANCH  11  12
ENDBRANCH   3  11
TORSDOF 4
ENDMDL
MODEL 4
REMARK VINA RESULT:      -7.2      3.455      5.733
REMARK  4 active torsions:
REMARK  status: ('A' for Active; 'I' for Inactive)
REMARK    1  A    between atoms: C_2  and  C_3 
REMARK       I    between atoms: C_2  and  N_9 
REMARK    2  A    between atoms: N_9  and  C_10 
REMARK    3  A    between atoms: C_10  and  C_11 
REMARK    4  A    between atoms: C_11  and  O_12 
ROOT
HETATM    1  O   LIG     1      16.119  37.152  22.746  1.00  0.00    -0.268 OA
HETATM    2  C   LIG     1      17.233  37.744  22.745  1.00  0.00     0.252 C 
HETATM    3  N   LIG     1      17.779  38.232  23.982  1.00  0.00    -0.347 N 
HETATM    4  H   LIG     1      18.640  38.823  23.979  1.00  0.00     0.163 HD
ENDROOT
BRANCH   2   5
HETATM    5  C   LIG     1      17.946  37.941  21.460  1.00  0.00     0.032 A 
HETATM    6  C   LIG     1      18.488  39.192  21.109  1.00  0.00     0.017 A 
HETATM    7  C   LIG     1      19.163  39.357  19.895  1.00  0.00     0.001 A 
HETATM    8  C   LIG     1      19.310  38.276  19.022  1.00  0.00     0.000 A 
HETATM    9  C   LIG     1      18.787  37.028  19.364  1.00  0.00     0.001 A 
HETATM   10  C   LIG     1      18.112  36.857  20.576  1.00  0.00     0.017 A 
ENDBRANCH   2   5
BRANCH   3  11
HETATM   11  C   LIG     1      17.166  37.936  25.275  1.00  0.00     0.232 C 
BRANCH  11  12
HETATM   12  C   LIG     1      17.865  36.791  25.936  1.00  0.00     0.158 C 
HETATM   13  O   LIG     1      17.444  35.614  25.768  1.00  0.00    -0.649 OA
BRANCH  12  14
HETATM   14  O   LIG     1      18.977  37.025  26.738  1.00  0.00    -0.775 OA
HETATM   15  H   LIG     1      19.210  37.963  27.041  1.00  0.00     0.167 HD
ENDBRANCH  12  14
ENDBRANCH  11  12
ENDBRANCH   3  11
TORSDOF 4
ENDMDL
MODEL 5
REMARK VINA RESULT:      -6.9      4.096      8.325
REMARK  4 active torsions:
REMARK  status: ('A' for Active; 'I' for Inactive)
REMARK    1  A    between atoms: C_2  and  C_3 
REMARK       I    between atoms: C_2  and  N_9 
REMARK    2  A    between atoms: N_9  and  C_10 
REMARK    3  A    between atoms: C_10  and  C_11 
REMARK    4  A    between atoms: C_11  and  O_12 
ROOT
HETATM    1  O   LIG     1      15.707  34.641  16.916  1.00  0.00    -0.268 OA
HETATM    2  C   LIG     1      15.241  33.632  17.512  1.00  0.00     0.252 C 
HETATM    3  N   LIG     1      15.246  33.592  18.950  1.00  0.00    -0.347 N 
HETATM    4  H   LIG     1      14.971  32.718  19.451  1.00  0.00     0.163 HD
ENDROOT
BRANCH   2   5
HETATM    5  C   LIG     1      14.715  32.498  16.714  1.00  0.00     0.032 A 
HETATM    6  C   LIG     1      13.478  31.900  17.021  1.00  0.00     0.017 A 
HETATM    7  C   LIG     1      12.996  30.836  16.253  1.00  0.00     0.001 A 
HETATM    8  C   LIG     1      13.737  30.360  15.168  1.00  0.00     0.000 A 
HETATM    9  C   LIG     1      14.959  30.953  14.846  1.00  0.00     0.001 A 
HETATM   10  C   LIG     1      15.446  32.018  15.610  1.00  0.00     0.017 A 
ENDBRANCH   2   5
BRANCH   3  11
HETATM   11  C   LIG     1      15.632  34.745  19.759  1.00  0.00     0.232 C 
BRANCH  11  12
HETATM   12  C   LIG     1      15.283  34.516  21.196  1.00  0.00     0.158 C 
HETATM   13  O   LIG     1      16.116  34.800  22.099  1.00  0.00    -0.649 OA
BRANCH  12  14
HETATM   14  O   LIG     1      14.042  33.988  21.535  1.00  0.00    -0.775 OA
HETATM   15  H   LIG     1      13.545  34.316  22.354  1.00  0.00     0.167 HD
ENDBRANCH  12  14
ENDBRANCH  11  12
ENDBRANCH   3  11
TORSDOF 4
ENDMDL
MODEL 6
REMARK VINA RESULT:      -6.5      8.873     10.623
REMARK  4 active torsions:
REMARK  status: ('A' for Active; 'I' for Inactive)
REMARK    1  A    between atoms: C_2  and  C_3 
REMARK       I    between atoms: C_2  and  N_9 
REMARK    2  A    between atoms: N_9  and  C_10 
REMARK    3  A    between atoms: C_10  and  C_11 
REMARK    4  A    between atoms: C_11  and  O_12 
ROOT
HETATM    1  O   LIG     1      17.707  33.031  15.318  1.00  0.00    -0.268 OA
HETATM    2  C   LIG     1      16.856  32.651  14.467  1.00  0.00     0.252 C 
HETATM    3  N   LIG     1      17.042  32.984  13.081  1.00  0.00    -0.347 N 
HETATM    4  H   LIG     1      16.290  32.776  12.387  1.00  0.00     0.163 HD
ENDROOT
BRANCH   2   5
HETATM    5  C   LIG     1      15.671  31.883  14.921  1.00  0.00     0.032 A 
HETATM    6  C   LIG     1      15.173  30.799  14.173  1.00  0.00     0.017 A 
HETATM    7  C   LIG     1      14.058  30.083  14.621  1.00  0.00     0.001 A 
HETATM    8  C   LIG     1      13.432  30.436  15.819  1.00  0.00     0.000 A 
HETATM    9  C   LIG     1      13.925  31.501  16.575  1.00  0.00     0.001 A 
HETATM   10  C   LIG     1      15.040  32.220  16.133  1.00  0.00     0.017 A 
ENDBRANCH   2   5
BRANCH   3  11
HETATM   11  C   LIG     1      18.262  33.620  12.589  1.00  0.00     0.232 C 
BRANCH  11  12
HETATM   12  C   LIG     1      17.929  34.744  11.659  1.00  0.00     0.158 C 
HETATM   13  O   LIG     1      17.189  35.687  12.051  1.00  0.00    -0.649 OA
BRANCH  12  14
HETATM   14  O   LIG     1      18.434  34.746  10.364  1.00  0.00    -0.775 OA
HETATM   15  H   LIG     1      18.149  35.454   9.697  1.00  0.00     0.167 HD
ENDBRANCH  12  14
ENDBRANCH  11  12
ENDBRANCH   3  11
TORSDOF 4
ENDMDL
MODEL 7
REMARK VINA RESULT:      -6.5      4.275      8.471
REMARK  4 active torsions:
REMARK  status: ('A' for Active; 'I' for Inactive)
REMARK    1  A    between atoms: C_2  and  C_3 
REMARK       I    between atoms: C_2  and  N_9 
REMARK    2  A    between atoms: N_9  and  C_10 
REMARK    3  A    between atoms: C_10  and  C_11 
REMARK    4  A    between atoms: C_11  and  O_12 
ROOT
HETATM    1  O   LIG     1      14.907  34.784  16.706  1.00  0.00    -0.268 OA
HETATM    2  C   LIG     1      14.955  33.653  17.263  1.00  0.00     0.252 C 
HETATM    3  N   LIG     1      15.385  33.555  18.632  1.00  0.00    -0.347 N 
HETATM    4  H   LIG     1      15.540  32.618  19.066  1.00  0.00     0.163 HD
ENDROOT
BRANCH   2   5
HETATM    5  C   LIG     1      14.585  32.446  16.485  1.00  0.00     0.032 A 
HETATM    6  C   LIG     1      15.372  32.005  15.404  1.00  0.00     0.017 A 
HETATM    7  C   LIG     1      15.010  30.861  14.685  1.00  0.00     0.001 A 
HETATM    8  C   LIG     1      13.866  30.142  15.040  1.00  0.00     0.000 A 
HETATM    9  C   LIG     1      13.085  30.563  16.117  1.00  0.00     0.001 A 
HETATM   10  C   LIG     1      13.442  31.706  16.840  1.00  0.00     0.017 A 
ENDBRANCH   2   5
BRANCH   3  11
HETATM   11  C   LIG     1      15.625  34.734  19.460  1.00  0.00     0.232 C 
BRANCH  11  12
HETATM   12  C   LIG     1      15.189  34.483  20.868  1.00  0.00     0.158 C 
HETATM   13  O   LIG     1      15.565  35.256  21.791  1.00  0.00    -0.649 OA
BRANCH  12  14
HETATM   14  O   LIG     1      14.372  33.396  21.160  1.00  0.00    -0.775 OA
HETATM   15  H   LIG     1      13.878  33.340  22.042  1.00  0.00     0.167 HD
ENDBRANCH  12  14
ENDBRANCH  11  12
ENDBRANCH   3  11
TORSDOF 4
ENDMDL
MODEL 8
REMARK VINA RESULT:      -6.3      4.419      8.600
REMARK  4 active torsions:
REMARK  status: ('A' for Active; 'I' for Inactive)
REMARK    1  A    between atoms: C_2  and  C_3 
REMARK       I    between atoms: C_2  and  N_9 
REMARK    2  A    between atoms: N_9  and  C_10 
REMARK    3  A    between atoms: C_10  and  C_11 
REMARK    4  A    between atoms: C_11  and  O_12 
ROOT
HETATM    1  O   LIG     1      14.151  31.341  18.822  1.00  0.00    -0.268 OA
HETATM    2  C   LIG     1      14.820  32.120  18.088  1.00  0.00     0.252 C 
HETATM    3  N   LIG     1      15.396  33.308  18.656  1.00  0.00    -0.347 N 
HETATM    4  H   LIG     1      15.851  34.016  18.038  1.00  0.00     0.163 HD
ENDROOT
BRANCH   2   5
HETATM    5  C   LIG     1      14.979  31.800  16.649  1.00  0.00     0.032 A 
HETATM    6  C   LIG     1      15.939  32.458  15.857  1.00  0.00     0.017 A 
HETATM    7  C   LIG     1      16.078  32.138  14.502  1.00  0.00     0.001 A 
HETATM    8  C   LIG     1      15.269  31.157  13.926  1.00  0.00     0.000 A 
HETATM    9  C   LIG     1      14.322  30.489  14.704  1.00  0.00     0.001 A 
HETATM   10  C   LIG     1      14.178  30.804  16.059  1.00  0.00     0.017 A 
ENDBRANCH   2   5
BRANCH   3  11
HETATM   11  C   LIG     1      15.370  33.578  20.092  1.00  0.00     0.232 C 
BRANCH  11  12
HETATM   12  C   LIG     1      15.627  35.028  20.357  1.00  0.00     0.158 C 
HETATM   13  O   LIG     1      16.744  35.533  20.062  1.00  0.00    -0.649 OA
BRANCH  12  14
HETATM   14  O   LIG     1      14.636  35.816  20.931  1.00  0.00    -0.775 OA
HETATM   15  H   LIG     1      14.047  36.408  20.358  1.00  0.00     0.167 HD
ENDBRANCH  12  14
ENDBRANCH  11  12
ENDBRANCH   3  11
TORSDOF 4
ENDMDL
MODEL 9
REMARK VINA RESULT:      -6.0      3.104      4.456
REMARK  4 active torsions:
REMARK  status: ('A' for Active; 'I' for Inactive)
REMARK    1  A    between atoms: C_2  and  C_3 
REMARK       I    between atoms: C_2  and  N_9 
REMARK    2  A    between atoms: N_9  and  C_10 
REMARK    3  A    between atoms: C_10  and  C_11 
REMARK    4  A    between atoms: C_11  and  O_12 
ROOT
HETATM    1  O   LIG     1      16.254  37.351  22.428  1.00  0.00    -0.268 OA
HETATM    2  C   LIG     1      17.118  36.769  21.717  1.00  0.00     0.252 C 
HETATM    3  N   LIG     1      17.151  35.332  21.674  1.00  0.00    -0.347 N 
HETATM    4  H   LIG     1      17.930  34.840  21.184  1.00  0.00     0.163 HD
ENDROOT
BRANCH   2   5
HETATM    5  C   LIG     1      18.097  37.583  20.956  1.00  0.00     0.032 A 
HETATM    6  C   LIG     1      18.866  37.020  19.920  1.00  0.00     0.017 A 
HETATM    7  C   LIG     1      19.780  37.805  19.210  1.00  0.00     0.001 A 
HETATM    8  C   LIG     1      19.931  39.159  19.519  1.00  0.00     0.000 A 
HETATM    9  C   LIG     1      19.165  39.731  20.536  1.00  0.00     0.001 A 
HETATM   10  C   LIG     1      18.250  38.951  21.250  1.00  0.00     0.017 A 
ENDBRANCH   2   5
BRANCH   3  11
HETATM   11  C   LIG     1      16.120  34.510  22.304  1.00  0.00     0.232 C 
BRANCH  11  12
HETATM   12  C   LIG     1      14.940  34.362  21.395  1.00  0.00     0.158 C 
HETATM   13  O   LIG     1      14.684  33.244  20.872  1.00  0.00    -0.649 OA
BRANCH  12  14
HETATM   14  O   LIG     1      14.129  35.459  21.126  1.00  0.00    -0.775 OA
HETATM   15  H   LIG     1      13.121  35.388  21.195  1.00  0.00     0.167 HD
ENDBRANCH  12  14
ENDBRANCH  11  12
ENDBRANCH   3  11
TORSDOF 4
ENDMDL
MODEL 10
REMARK VINA RESULT:      -6.0      9.214     11.221
REMARK  4 active torsions:
REMARK  status: ('A' for Active; 'I' for Inactive)
REMARK    1  A    between atoms: C_2  and  C_3 
REMARK       I    between atoms: C_2  and  N_9 
REMARK    2  A    between atoms: N_9  and  C_10 
REMARK    3  A    between atoms: C_10  and  C_11 
REMARK    4  A    between atoms: C_11  and  O_12 
ROOT
HETATM    1  O   LIG     1      15.292  28.697  13.850  1.00  0.00    -0.268 OA
HETATM    2  C   LIG     1      14.250  29.195  14.357  1.00  0.00     0.252 C 
HETATM    3  N   LIG     1      12.980  28.556  14.140  1.00  0.00    -0.347 N 
HETATM    4  H   LIG     1      12.099  29.019  14.455  1.00  0.00     0.163 HD
ENDROOT
BRANCH   2   5
HETATM    5  C   LIG     1      14.356  30.444  15.150  1.00  0.00     0.032 A 
HETATM    6  C   LIG     1      13.435  30.740  16.172  1.00  0.00     0.017 A 
HETATM    7  C   LIG     1      13.555  31.920  16.914  1.00  0.00     0.001 A 
HETATM    8  C   LIG     1      14.596  32.813  16.648  1.00  0.00     0.000 A 
HETATM    9  C   LIG     1      15.523  32.524  15.645  1.00  0.00     0.001 A 
HETATM   10  C   LIG     1      15.408  31.346  14.901  1.00  0.00     0.017 A 
ENDBRANCH   2   5
BRANCH   3  11
HETATM   11  C   LIG     1      12.864  27.258  13.480  1.00  0.00     0.232 C 
BRANCH  11  12
HETATM   12  C   LIG     1      11.510  27.103  12.863  1.00  0.00     0.158 C 
HETATM   13  O   LIG     1      10.761  28.108  12.728  1.00  0.00    -0.649 OA
BRANCH  12  14
HETATM   14  O   LIG     1      11.079  25.851  12.440  1.00  0.00    -0.775 OA
HETATM   15  H   LIG     1      11.287  25.518  11.506  1.00  0.00     0.167 HD
ENDBRANCH  12  14
ENDBRANCH  11  12
ENDBRANCH   3  11
TORSDOF 4
ENDMDL
MODEL 11
REMARK VINA RESULT:      -5.8      8.579     10.027
REMARK  4 active torsions:
REMARK  status: ('A' for Active; 'I' for Inactive)
REMARK    1  A    between atoms: C_2  and  C_3 
REMARK       I    between atoms: C_2  and  N_9 
REMARK    2  A    between atoms: N_9  and  C_10 
REMARK    3  A    between atoms: C_10  and  C_11 
REMARK    4  A    between atoms: C_11  and  O_12 
ROOT
HETATM    1  O   LIG     1      16.767  31.684  13.051  1.00  0.00    -0.268 OA
HETATM    2  C   LIG     1      16.756  32.362  14.116  1.00  0.00     0.252 C 
HETATM    3  N   LIG     1      17.793  33.330  14.351  1.00  0.00    -0.347 N 
HETATM    4  H   LIG     1      17.860  33.812  15.275  1.00  0.00     0.163 HD
ENDROOT
BRANCH   2   5
HETATM    5  C   LIG     1      15.681  32.129  15.111  1.00  0.00     0.032 A 
HETATM    6  C   LIG     1      15.469  33.022  16.179  1.00  0.00     0.017 A 
HETATM    7  C   LIG     1      14.447  32.788  17.104  1.00  0.00     0.001 A 
HETATM    8  C   LIG     1      13.622  31.669  16.972  1.00  0.00     0.000 A 
HETATM    9  C   LIG     1      13.815  30.783  15.910  1.00  0.00     0.001 A 
HETATM   10  C   LIG     1      14.835  31.011  14.982  1.00  0.00     0.017 A 
ENDBRANCH   2   5
BRANCH   3  11
HETATM   11  C   LIG     1      18.783  33.674  13.334  1.00  0.00     0.232 C 
BRANCH  11  12
HETATM   12  C   LIG     1      18.150  34.468  12.235  1.00  0.00     0.158 C 
HETATM   13  O   LIG     1      18.865  34.953  11.316  1.00  0.00    -0.649 OA
BRANCH  12  14
HETATM   14  O   LIG     1      16.775  34.674  12.229  1.00  0.00    -0.775 OA
HETATM   15  H   LIG     1      16.135  33.904  12.385  1.00  0.00     0.167 HD
ENDBRANCH  12  14
ENDBRANCH  11  12
ENDBRANCH   3  11
TORSDOF 4
ENDMDL
MODEL 12
REMARK VINA RESULT:      -5.7      3.413      4.297
REMARK  4 active torsions:
REMARK  status: ('A' for Active; 'I' for Inactive)
REMARK    1  A    between atoms: C_2  and  C_3 
REMARK       I    between atoms: C_2  and  N_9 
REMARK    2  A    between atoms: N_9  and  C_10 
REMARK    3  A    between atoms: C_10  and  C_11 
REMARK    4  A    between atoms: C_11  and  O_12 
ROOT
HETATM    1  O   LIG     1      15.928  35.009  18.065  1.00  0.00    -0.268 OA
HETATM    2  C   LIG     1      15.773  34.561  19.235  1.00  0.00     0.252 C 
HETATM    3  N   LIG     1      15.430  33.178  19.424  1.00  0.00    -0.347 N 
HETATM    4  H   LIG     1      15.187  32.824  20.376  1.00  0.00     0.163 HD
ENDROOT
BRANCH   2   5
HETATM    5  C   LIG     1      15.929  35.480  20.388  1.00  0.00     0.032 A 
HETATM    6  C   LIG     1      17.169  36.081  20.680  1.00  0.00     0.017 A 
HETATM    7  C   LIG     1      17.295  36.950  21.769  1.00  0.00     0.001 A 
HETATM    8  C   LIG     1      16.189  37.232  22.574  1.00  0.00     0.000 A 
HETATM    9  C   LIG     1      14.952  36.651  22.287  1.00  0.00     0.001 A 
HETATM   10  C   LIG     1      14.819  35.783  21.200  1.00  0.00     0.017 A 
ENDBRANCH   2   5
BRANCH   3  11
HETATM   11  C   LIG     1      15.403  32.223  18.319  1.00  0.00     0.232 C 
BRANCH  11  12
HETATM   12  C   LIG     1      14.094  32.295  17.597  1.00  0.00     0.158 C 
HETATM   13  O   LIG     1      13.333  31.290  17.572  1.00  0.00    -0.649 OA
BRANCH  12  14
HETATM   14  O   LIG     1      13.720  33.469  16.953  1.00  0.00    -0.775 OA
HETATM   15  H   LIG     1      14.406  34.041  16.476  1.00  0.00     0.167 HD
ENDBRANCH  12  14
ENDBRANCH  11  12
ENDBRANCH   3  11
TORSDOF 4
ENDMDL
MODEL 13
REMARK VINA RESULT:      -5.6     10.509     12.478
REMARK  4 active torsions:
REMARK  status: ('A' for Active; 'I' for Inactive)
REMARK    1  A    between atoms: C_2  and  C_3 
REMARK       I    between atoms: C_2  and  N_9 
REMARK    2  A    between atoms: N_9  and  C_10 
REMARK    3  A    between atoms: C_10  and  C_11 
REMARK    4  A    between atoms: C_11  and  O_12 
ROOT
HETATM    1  O   LIG     1      14.407  27.153  13.613  1.00  0.00    -0.268 OA
HETATM    2  C   LIG     1      13.593  28.104  13.774  1.00  0.00     0.252 C 
HETATM    3  N   LIG     1      12.213  27.925  13.410  1.00  0.00    -0.347 N 
HETATM    4  H   LIG     1      11.557  28.736  13.430  1.00  0.00     0.163 HD
ENDROOT
BRANCH   2   5
HETATM    5  C   LIG     1      14.084  29.393  14.316  1.00  0.00     0.032 A 
HETATM    6  C   LIG     1      15.219  30.028  13.776  1.00  0.00     0.017 A 
HETATM    7  C   LIG     1      15.664  31.248  14.298  1.00  0.00     0.001 A 
HETATM    8  C   LIG     1      14.980  31.849  15.357  1.00  0.00     0.000 A 
HETATM    9  C   LIG     1      13.846  31.235  15.893  1.00  0.00     0.001 A 
HETATM   10  C   LIG     1      13.397  30.017  15.375  1.00  0.00     0.017 A 
ENDBRANCH   2   5
BRANCH   3  11
HETATM   11  C   LIG     1      11.677  26.629  13.002  1.00  0.00     0.232 C 
BRANCH  11  12
HETATM   12  C   LIG     1      12.010  26.352  11.570  1.00  0.00     0.158 C 
HETATM   13  O   LIG     1      12.826  25.437  11.278  1.00  0.00    -0.649 OA
BRANCH  12  14
HETATM   14  O   LIG     1      11.420  27.106  10.561  1.00  0.00    -0.775 OA
HETATM   15  H   LIG     1      10.495  27.502  10.683  1.00  0.00     0.167 HD
ENDBRANCH  12  14
ENDBRANCH  11  12
ENDBRANCH   3  11
TORSDOF 4
ENDMDL
MODEL 14
REMARK VINA RESULT:      -5.4      6.014      8.137
REMARK  4 active torsions:
REMARK  status: ('A' for Active; 'I' for Inactive)
REMARK    1  A    between atoms: C_2  and  C_3 
REMARK       I    between atoms: C_2  and  N_9 
REMARK    2  A    between atoms: N_9  and  C_10 
REMARK    3  A    between atoms: C_10  and  C_11 
REMARK    4  A    between atoms: C_11  and  O_12 
ROOT
HETATM    1  O   LIG     1      12.672  31.339  16.730  1.00  0.00    -0.268 OA
HETATM    2  C   LIG     1      13.922  31.506  16.761  1.00  0.00     0.252 C 
HETATM    3  N   LIG     1      14.750  30.848  15.786  1.00  0.00    -0.347 N 
HETATM    4  H   LIG     1      15.790  30.885  15.872  1.00  0.00     0.163 HD
ENDROOT
BRANCH   2   5
HETATM    5  C   LIG     1      14.512  32.364  17.817  1.00  0.00     0.032 A 
HETATM    6  C   LIG     1      14.738  31.872  19.116  1.00  0.00     0.017 A 
HETATM    7  C   LIG     1      15.300  32.695  20.097  1.00  0.00     0.001 A 
HETATM    8  C   LIG     1      15.649  34.013  19.793  1.00  0.00     0.000 A 
HETATM    9  C   LIG     1      15.440  34.509  18.505  1.00  0.00     0.001 A 
HETATM   10  C   LIG     1      14.879  33.691  17.519  1.00  0.00     0.017 A 
ENDBRANCH   2   5
BRANCH   3  11
HETATM   11  C   LIG     1      14.188  30.109  14.659  1.00  0.00     0.232 C 
BRANCH  11  12
HETATM   12  C   LIG     1      15.224  29.905  13.598  1.00  0.00     0.158 C 
HETATM   13  O   LIG     1      15.992  30.852  13.277  1.00  0.00    -0.649 OA
BRANCH  12  14
HETATM   14  O   LIG     1      15.336  28.672  12.965  1.00  0.00    -0.775 OA
HETATM   15  H   LIG     1      16.193  28.134  13.024  1.00  0.00     0.167 HD
ENDBRANCH  12  14
ENDBRANCH  11  12
ENDBRANCH   3  11
TORSDOF 4
ENDMDL
MODEL 15
REMARK VINA RESULT:      -5.3      5.365      9.538
REMARK  4 active torsions:
REMARK  status: ('A' for Active; 'I' for Inactive)
REMARK    1  A    between atoms: C_2  and  C_3 
REMARK       I    between atoms: C_2  and  N_9 
REMARK    2  A    between atoms: N_9  and  C_10 
REMARK    3  A    between atoms: C_10  and  C_11 
REMARK    4  A    between atoms: C_11  and  O_12 
ROOT
HETATM    1  O   LIG     1      13.117  32.910  16.865  1.00  0.00    -0.268 OA
HETATM    2  C   LIG     1      14.224  32.335  16.674  1.00  0.00     0.252 C 
HETATM    3  N   LIG     1      15.384  32.768  17.406  1.00  0.00    -0.347 N 
HETATM    4  H   LIG     1      16.325  32.381  17.173  1.00  0.00     0.163 HD
ENDROOT
BRANCH   2   5
HETATM    5  C   LIG     1      14.308  31.238  15.680  1.00  0.00     0.032 A 
HETATM    6  C   LIG     1      13.235  30.347  15.485  1.00  0.00     0.017 A 
HETATM    7  C   LIG     1      13.329  29.321  14.538  1.00  0.00     0.001 A 
HETATM    8  C   LIG     1      14.490  29.176  13.775  1.00  0.00     0.000 A 
HETATM    9  C   LIG     1      15.556  30.060  13.951  1.00  0.00     0.001 A 
HETATM   10  C   LIG     1      15.466  31.088  14.895  1.00  0.00     0.017 A 
ENDBRANCH   2   5
BRANCH   3  11
HETATM   11  C   LIG     1      15.303  33.751  18.483  1.00  0.00     0.232 C 
BRANCH  11  12
HETATM   12  C   LIG     1      15.433  33.082  19.814  1.00  0.00     0.158 C 
HETATM   13  O   LIG     1      15.930  33.709  20.789  1.00  0.00    -0.649 OA
BRANCH  12  14
HETATM   14  O   LIG     1      15.007  31.768  19.976  1.00  0.00    -0.775 OA
HETATM   15  H   LIG     1      14.191  31.423  19.486  1.00  0.00     0.167 HD
ENDBRANCH  12  14
ENDBRANCH  11  12
ENDBRANCH   3  11
TORSDOF 4
ENDMDL
MODEL 16
REMARK VINA RESULT:      -4.9      2.455      5.651
REMARK  4 active torsions:
REMARK  status: ('A' for Active; 'I' for Inactive)
REMARK    1  A    between atoms: C_2  and  C_3 
REMARK       I    between atoms: C_2  and  N_9 
REMARK    2  A    between atoms: N_9  and  C_10 
REMARK    3  A    between atoms: C_10  and  C_11 
REMARK    4  A    between atoms: C_11  and  O_12 
ROOT
HETATM    1  O   LIG     1      17.131  37.788  22.016  1.00  0.00    -0.268 OA
HETATM    2  C   LIG     1      16.809  36.629  22.395  1.00  0.00     0.252 C 
HETATM    3  N   LIG     1      16.968  36.265  23.777  1.00  0.00    -0.347 N 
HETATM    4  H   LIG     1      16.815  35.278  24.080  1.00  0.00     0.163 HD
ENDROOT
BRANCH   2   5
HETATM    5  C   LIG     1      16.290  35.660  21.400  1.00  0.00     0.032 A 
HETATM    6  C   LIG     1      16.520  35.835  20.021  1.00  0.00     0.017 A 
HETATM    7  C   LIG     1      16.028  34.907  19.098  1.00  0.00     0.001 A 
HETATM    8  C   LIG     1      15.308  33.793  19.537  1.00  0.00     0.000 A 
HETATM    9  C   LIG     1      15.085  33.603  20.902  1.00  0.00     0.001 A 
HETATM   10  C   LIG     1      15.574  34.527  21.830  1.00  0.00     0.017 A 
ENDBRANCH   2   5
BRANCH   3  11
HETATM   11  C   LIG     1      17.347  37.237  24.800  1.00  0.00     0.232 C 
BRANCH  11  12
HETATM   12  C   LIG     1      18.030  36.555  25.943  1.00  0.00     0.158 C 
HETATM   13  O   LIG     1      17.744  35.359  26.225  1.00  0.00    -0.649 OA
BRANCH  12  14
HETATM   14  O   LIG     1      18.977  37.240  26.695  1.00  0.00    -0.775 OA
HETATM   15  H   LIG     1      19.231  36.923  27.623  1.00  0.00     0.167 HD
ENDBRANCH  12  14
ENDBRANCH  11  12
ENDBRANCH   3  11
TORSDOF 4
ENDMDL
MODEL 17
REMARK VINA RESULT:      -4.5      1.986      5.932
REMARK  4 active torsions:
REMARK  status: ('A' for Active; 'I' for Inactive)
REMARK    1  A    between atoms: C_2  and  C_3 
REMARK       I    between atoms: C_2  and  N_9 
REMARK    2  A    between atoms: N_9  and  C_10 
REMARK    3  A    between atoms: C_10  and  C_11 
REMARK    4  A    between atoms: C_11  and  O_12 
ROOT
HETATM    1  O   LIG     1      14.666  36.086  21.315  1.00  0.00    -0.268 OA
HETATM    2  C   LIG     1      15.494  35.134  21.288  1.00  0.00     0.252 C 
HETATM    3  N   LIG     1      16.703  35.223  22.063  1.00  0.00    -0.347 N 
HETATM    4  H   LIG     1      17.446  34.497  21.959  1.00  0.00     0.163 HD
ENDROOT
BRANCH   2   5
HETATM    5  C   LIG     1      15.209  33.951  20.441  1.00  0.00     0.032 A 
HETATM    6  C   LIG     1      15.497  33.954  19.062  1.00  0.00     0.017 A 
HETATM    7  C   LIG     1      15.227  32.826  18.280  1.00  0.00     0.001 A 
HETATM    8  C   LIG     1      14.674  31.684  18.863  1.00  0.00     0.000 A 
HETATM    9  C   LIG     1      14.396  31.665  20.231  1.00  0.00     0.001 A 
HETATM   10  C   LIG     1      14.664  32.789  21.018  1.00  0.00     0.017 A 
ENDBRANCH   2   5
BRANCH   3  11
HETATM   11  C   LIG     1      16.945  36.311  23.007  1.00  0.00     0.232 C 
BRANCH  11  12
HETATM   12  C   LIG     1      17.077  35.778  24.398  1.00  0.00     0.158 C 
HETATM   13  O   LIG     1      17.067  34.533  24.599  1.00  0.00    -0.649 OA
BRANCH  12  14
HETATM   14  O   LIG     1      17.208  36.655  25.469  1.00  0.00    -0.775 OA
HETATM   15  H   LIG     1      16.794  37.579  25.437  1.00  0.00     0.167 HD
ENDBRANCH  12  14
ENDBRANCH  11  12
ENDBRANCH   3  11
TORSDOF 4
ENDMDL
