REMARK  4 active torsions:
REMARK  status: ('A' for Active; 'I' for Inactive)
REMARK    1  A    between atoms: C_2  and  C_3 
REMARK       I    between atoms: C_2  and  N_9 
REMARK    2  A    between atoms: N_9  and  C_10 
REMARK    3  A    between atoms: C_10  and  C_11 
REMARK    4  A    between atoms: C_11  and  O_12 
ROOT
HETATM    1  O   LIG     1       1.188   0.484   1.370  1.00  0.00    -0.268 OA
HETATM    2  C   LIG     1       0.543  -0.062   0.433  1.00  0.00     0.252 C 
HETATM    3  N   LIG     1       1.251  -0.789  -0.586  1.00  0.00    -0.347 N 
HETATM    4  H   LIG     1       0.742  -1.145  -1.425  1.00  0.00     0.163 HD
ENDROOT
BRANCH   2   5
HETATM    5  C   LIG     1      -0.933   0.076   0.394  1.00  0.00     0.032 A 
HETATM    6  C   LIG     1      -1.739  -0.881  -0.252  1.00  0.00     0.017 A 
HETATM    7  C   LIG     1      -3.130  -0.737  -0.273  1.00  0.00     0.001 A 
HETATM    8  C   LIG     1      -3.732   0.357   0.353  1.00  0.00     0.000 A 
HETATM    9  C   LIG     1      -2.944   1.306   1.007  1.00  0.00     0.001 A 
HETATM   10  C   LIG     1      -1.553   1.167   1.032  1.00  0.00     0.017 A 
ENDBRANCH   2   5
BRANCH   3  11
HETATM   11  C   LIG     1       2.685  -1.054  -0.500  1.00  0.00     0.232 C 
BRANCH  11  12
HETATM   12  C   LIG     1       3.464   0.206  -0.708  1.00  0.00     0.158 C 
HETATM   13  O   LIG     1       3.373   0.830  -1.800  1.00  0.00    -0.649 OA
BRANCH  12  14
HETATM   14  O   LIG     1       4.290   0.687   0.302  1.00  0.00    -0.775 OA
HETATM   15  H   LIG     1       4.823   1.539   0.175  1.00  0.00     0.167 HD
ENDBRANCH  12  14
ENDBRANCH  11  12
ENDBRANCH   3  11
TORSDOF 4
