MODEL 1
REMARK VINA RESULT:      -6.8      0.000      0.000
REMARK  0 active torsions:
REMARK  status: ('A' for Active; 'I' for Inactive)
ROOT
HETATM    1  C   LIG     1      17.133  36.146  24.188  1.00  0.00    -0.030 A 
HETATM    2  C   LIG     1      17.426  34.915  24.778  1.00  0.00     0.009 A 
HETATM    3  C   LIG     1      17.963  34.907  26.075  1.00  0.00     0.001 A 
HETATM    4  C   LIG     1      18.195  36.119  26.755  1.00  0.00     0.002 A 
HETATM    5  C   LIG     1      17.892  37.344  26.139  1.00  0.00     0.029 A 
HETATM    6  C   LIG     1      17.359  37.319  24.850  1.00  0.00     0.034 A 
HETATM    7  N   LIG     1      16.991  38.436  24.070  1.00  0.00    -0.389 N 
HETATM    8  C   LIG     1      16.479  37.962  22.787  1.00  0.00     0.124 A 
HETATM    9  C   LIG     1      16.563  36.415  22.838  1.00  0.00     0.060 A 
HETATM   10  H   LIG     1      17.071  39.435  24.361  1.00  0.00     0.159 HD
ENDROOT
TORSDOF 0
ENDMDL
MODEL 2
REMARK VINA RESULT:      -6.6      0.963      1.983
REMARK  0 active torsions:
REMARK  status: ('A' for Active; 'I' for Inactive)
ROOT
HETATM    1  C   LIG     1      17.631  37.282  24.792  1.00  0.00    -0.030 A 
HETATM    2  C   LIG     1      18.187  37.287  26.072  1.00  0.00     0.009 A 
HETATM    3  C   LIG     1      18.310  36.063  26.752  1.00  0.00     0.001 A 
HETATM    4  C   LIG     1      17.879  34.867  26.144  1.00  0.00     0.002 A 
HETATM    5  C   LIG     1      17.323  34.891  24.854  1.00  0.00     0.029 A 
HETATM    6  C   LIG     1      17.215  36.121  24.206  1.00  0.00     0.034 A 
HETATM    7  N   LIG     1      16.688  36.349  22.916  1.00  0.00    -0.389 N 
HETATM    8  C   LIG     1      16.764  37.779  22.627  1.00  0.00     0.124 A 
HETATM    9  C   LIG     1      17.398  38.436  23.879  1.00  0.00     0.060 A 
HETATM   10  H   LIG     1      16.308  35.617  22.275  1.00  0.00     0.159 HD
ENDROOT
TORSDOF 0
ENDMDL
MODEL 3
REMARK VINA RESULT:      -6.3      3.116      4.998
REMARK  0 active torsions:
REMARK  status: ('A' for Active; 'I' for Inactive)
ROOT
HETATM    1  C   LIG     1      17.888  38.598  21.572  1.00  0.00    -0.030 A 
HETATM    2  C   LIG     1      18.865  39.333  20.898  1.00  0.00     0.009 A 
HETATM    3  C   LIG     1      19.565  38.711  19.850  1.00  0.00     0.001 A 
HETATM    4  C   LIG     1      19.279  37.377  19.498  1.00  0.00     0.002 A 
HETATM    5  C   LIG     1      18.291  36.660  20.193  1.00  0.00     0.029 A 
HETATM    6  C   LIG     1      17.613  37.305  21.228  1.00  0.00     0.034 A 
HETATM    7  N   LIG     1      16.595  36.758  22.037  1.00  0.00    -0.389 N 
HETATM    8  C   LIG     1      16.161  37.773  22.994  1.00  0.00     0.124 A 
HETATM    9  C   LIG     1      17.020  39.030  22.703  1.00  0.00     0.060 A 
HETATM   10  H   LIG     1      16.214  35.788  21.963  1.00  0.00     0.159 HD
ENDROOT
TORSDOF 0
ENDMDL
MODEL 4
REMARK VINA RESULT:      -6.3      3.344      4.384
REMARK  0 active torsions:
REMARK  status: ('A' for Active; 'I' for Inactive)
ROOT
HETATM    1  C   LIG     1      18.358  37.378  20.531  1.00  0.00    -0.030 A 
HETATM    2  C   LIG     1      17.499  36.330  20.866  1.00  0.00     0.009 A 
HETATM    3  C   LIG     1      16.582  36.525  21.912  1.00  0.00     0.001 A 
HETATM    4  C   LIG     1      16.539  37.755  22.598  1.00  0.00     0.002 A 
HETATM    5  C   LIG     1      17.414  38.794  22.240  1.00  0.00     0.029 A 
HETATM    6  C   LIG     1      18.313  38.569  21.198  1.00  0.00     0.034 A 
HETATM    7  N   LIG     1      19.264  39.482  20.695  1.00  0.00    -0.389 N 
HETATM    8  C   LIG     1      19.998  38.842  19.606  1.00  0.00     0.124 A 
HETATM    9  C   LIG     1      19.405  37.416  19.472  1.00  0.00     0.060 A 
HETATM   10  H   LIG     1      19.419  40.455  21.044  1.00  0.00     0.159 HD
ENDROOT
TORSDOF 0
ENDMDL
MODEL 5
REMARK VINA RESULT:      -6.2      2.994      4.612
REMARK  0 active torsions:
REMARK  status: ('A' for Active; 'I' for Inactive)
ROOT
HETATM    1  C   LIG     1      17.628  37.282  21.198  1.00  0.00    -0.030 A 
HETATM    2  C   LIG     1      18.359  36.694  20.164  1.00  0.00     0.009 A 
HETATM    3  C   LIG     1      19.328  37.470  19.506  1.00  0.00     0.001 A 
HETATM    4  C   LIG     1      19.547  38.808  19.889  1.00  0.00     0.002 A 
HETATM    5  C   LIG     1      18.798  39.375  20.933  1.00  0.00     0.029 A 
HETATM    6  C   LIG     1      17.844  38.580  21.567  1.00  0.00     0.034 A 
HETATM    7  N   LIG     1      16.998  38.965  22.629  1.00  0.00    -0.389 N 
HETATM    8  C   LIG     1      16.155  37.829  22.991  1.00  0.00     0.124 A 
HETATM    9  C   LIG     1      16.559  36.675  22.039  1.00  0.00     0.060 A 
HETATM   10  H   LIG     1      16.978  39.906  23.081  1.00  0.00     0.159 HD
ENDROOT
TORSDOF 0
ENDMDL
MODEL 6
REMARK VINA RESULT:      -6.2      3.429      5.112
REMARK  0 active torsions:
REMARK  status: ('A' for Active; 'I' for Inactive)
ROOT
HETATM    1  C   LIG     1      17.609  37.625  21.462  1.00  0.00    -0.030 A 
HETATM    2  C   LIG     1      18.283  38.845  21.542  1.00  0.00     0.009 A 
HETATM    3  C   LIG     1      19.285  39.118  20.596  1.00  0.00     0.001 A 
HETATM    4  C   LIG     1      19.593  38.175  19.596  1.00  0.00     0.002 A 
HETATM    5  C   LIG     1      18.900  36.955  19.538  1.00  0.00     0.029 A 
HETATM    6  C   LIG     1      17.910  36.713  20.491  1.00  0.00     0.034 A 
HETATM    7  N   LIG     1      17.109  35.557  20.597  1.00  0.00    -0.389 N 
HETATM    8  C   LIG     1      16.204  35.718  21.732  1.00  0.00     0.124 A 
HETATM    9  C   LIG     1      16.520  37.109  22.337  1.00  0.00     0.060 A 
HETATM   10  H   LIG     1      17.155  34.724  19.969  1.00  0.00     0.159 HD
ENDROOT
TORSDOF 0
ENDMDL
MODEL 7
REMARK VINA RESULT:      -6.0      1.406      3.726
REMARK  0 active torsions:
REMARK  status: ('A' for Active; 'I' for Inactive)
ROOT
HETATM    1  C   LIG     1      17.686  37.057  25.057  1.00  0.00    -0.030 A 
HETATM    2  C   LIG     1      17.675  38.376  24.599  1.00  0.00     0.009 A 
HETATM    3  C   LIG     1      17.217  38.627  23.295  1.00  0.00     0.001 A 
HETATM    4  C   LIG     1      16.782  37.565  22.479  1.00  0.00     0.002 A 
HETATM    5  C   LIG     1      16.804  36.247  22.964  1.00  0.00     0.029 A 
HETATM    6  C   LIG     1      17.263  36.030  24.263  1.00  0.00     0.034 A 
HETATM    7  N   LIG     1      17.359  34.787  24.925  1.00  0.00    -0.389 N 
HETATM    8  C   LIG     1      17.889  35.013  26.267  1.00  0.00     0.124 A 
HETATM    9  C   LIG     1      18.120  36.541  26.386  1.00  0.00     0.060 A 
HETATM   10  H   LIG     1      17.096  33.861  24.522  1.00  0.00     0.159 HD
ENDROOT
TORSDOF 0
ENDMDL
MODEL 8
REMARK VINA RESULT:      -6.0      1.023      3.099
REMARK  0 active torsions:
REMARK  status: ('A' for Active; 'I' for Inactive)
ROOT
HETATM    1  C   LIG     1      17.223  36.185  24.284  1.00  0.00    -0.030 A 
HETATM    2  C   LIG     1      17.149  35.028  23.505  1.00  0.00     0.009 A 
HETATM    3  C   LIG     1      16.624  35.129  22.207  1.00  0.00     0.001 A 
HETATM    4  C   LIG     1      16.185  36.373  21.712  1.00  0.00     0.002 A 
HETATM    5  C   LIG     1      16.270  37.522  22.516  1.00  0.00     0.029 A 
HETATM    6  C   LIG     1      16.797  37.390  23.801  1.00  0.00     0.034 A 
HETATM    7  N   LIG     1      16.964  38.419  24.752  1.00  0.00    -0.389 N 
HETATM    8  C   LIG     1      17.549  37.847  25.962  1.00  0.00     0.124 A 
HETATM    9  C   LIG     1      17.735  36.336  25.674  1.00  0.00     0.060 A 
HETATM   10  H   LIG     1      16.712  39.423  24.614  1.00  0.00     0.159 HD
ENDROOT
TORSDOF 0
ENDMDL
MODEL 9
REMARK VINA RESULT:      -6.0      3.479      4.741
REMARK  0 active torsions:
REMARK  status: ('A' for Active; 'I' for Inactive)
ROOT
HETATM    1  C   LIG     1      18.186  38.398  21.162  1.00  0.00    -0.030 A 
HETATM    2  C   LIG     1      17.277  38.649  22.192  1.00  0.00     0.009 A 
HETATM    3  C   LIG     1      16.420  37.612  22.593  1.00  0.00     0.001 A 
HETATM    4  C   LIG     1      16.485  36.352  21.964  1.00  0.00     0.002 A 
HETATM    5  C   LIG     1      17.408  36.127  20.930  1.00  0.00     0.029 A 
HETATM    6  C   LIG     1      18.246  37.176  20.554  1.00  0.00     0.034 A 
HETATM    7  N   LIG     1      19.233  37.146  19.545  1.00  0.00    -0.389 N 
HETATM    8  C   LIG     1      19.877  38.455  19.482  1.00  0.00     0.124 A 
HETATM    9  C   LIG     1      19.189  39.324  20.565  1.00  0.00     0.060 A 
HETATM   10  H   LIG     1      19.464  36.324  18.944  1.00  0.00     0.159 HD
ENDROOT
TORSDOF 0
ENDMDL
MODEL 10
REMARK VINA RESULT:      -5.9      1.672      3.483
REMARK  0 active torsions:
REMARK  status: ('A' for Active; 'I' for Inactive)
ROOT
HETATM    1  C   LIG     1      17.305  37.490  23.230  1.00  0.00    -0.030 A 
HETATM    2  C   LIG     1      17.314  37.521  21.834  1.00  0.00     0.009 A 
HETATM    3  C   LIG     1      17.158  36.311  21.138  1.00  0.00     0.001 A 
HETATM    4  C   LIG     1      16.997  35.102  21.843  1.00  0.00     0.002 A 
HETATM    5  C   LIG     1      16.992  35.099  23.248  1.00  0.00     0.029 A 
HETATM    6  C   LIG     1      17.148  36.316  23.910  1.00  0.00     0.034 A 
HETATM    7  N   LIG     1      17.169  36.518  25.307  1.00  0.00    -0.389 N 
HETATM    8  C   LIG     1      17.355  37.942  25.571  1.00  0.00     0.124 A 
HETATM    9  C   LIG     1      17.450  38.626  24.183  1.00  0.00     0.060 A 
HETATM   10  H   LIG     1      17.069  35.772  26.031  1.00  0.00     0.159 HD
ENDROOT
TORSDOF 0
ENDMDL
MODEL 11
REMARK VINA RESULT:      -5.5      9.318     11.104
REMARK  0 active torsions:
REMARK  status: ('A' for Active; 'I' for Inactive)
ROOT
HETATM    1  C   LIG     1      14.265  31.344  16.099  1.00  0.00    -0.030 A 
HETATM    2  C   LIG     1      13.620  30.286  15.457  1.00  0.00     0.009 A 
HETATM    3  C   LIG     1      14.120  29.851  14.218  1.00  0.00     0.001 A 
HETATM    4  C   LIG     1      15.247  30.476  13.648  1.00  0.00     0.002 A 
HETATM    5  C   LIG     1      15.877  31.540  14.315  1.00  0.00     0.029 A 
HETATM    6  C   LIG     1      15.358  31.948  15.543  1.00  0.00     0.034 A 
HETATM    7  N   LIG     1      15.847  32.989  16.360  1.00  0.00    -0.389 N 
HETATM    8  C   LIG     1      15.011  33.080  17.554  1.00  0.00     0.124 A 
HETATM    9  C   LIG     1      13.930  31.979  17.404  1.00  0.00     0.060 A 
HETATM   10  H   LIG     1      16.672  33.594  16.147  1.00  0.00     0.159 HD
ENDROOT
TORSDOF 0
ENDMDL
MODEL 12
REMARK VINA RESULT:      -5.5      9.297     11.076
REMARK  0 active torsions:
REMARK  status: ('A' for Active; 'I' for Inactive)
ROOT
HETATM    1  C   LIG     1      15.070  31.750  15.600  1.00  0.00    -0.030 A 
HETATM    2  C   LIG     1      15.415  30.960  14.502  1.00  0.00     0.009 A 
HETATM    3  C   LIG     1      14.534  29.938  14.111  1.00  0.00     0.001 A 
HETATM    4  C   LIG     1      13.335  29.725  14.819  1.00  0.00     0.002 A 
HETATM    5  C   LIG     1      13.012  30.534  15.921  1.00  0.00     0.029 A 
HETATM    6  C   LIG     1      13.906  31.541  16.284  1.00  0.00     0.034 A 
HETATM    7  N   LIG     1      13.761  32.450  17.353  1.00  0.00    -0.389 N 
HETATM    8  C   LIG     1      14.924  33.334  17.377  1.00  0.00     0.124 A 
HETATM    9  C   LIG     1      15.828  32.883  16.201  1.00  0.00     0.060 A 
HETATM   10  H   LIG     1      12.955  32.487  18.016  1.00  0.00     0.159 HD
ENDROOT
TORSDOF 0
ENDMDL
MODEL 13
REMARK VINA RESULT:      -5.4      9.823     11.423
REMARK  0 active torsions:
REMARK  status: ('A' for Active; 'I' for Inactive)
ROOT
HETATM    1  C   LIG     1      14.744  30.919  15.000  1.00  0.00    -0.030 A 
HETATM    2  C   LIG     1      15.752  31.861  15.214  1.00  0.00     0.009 A 
HETATM    3  C   LIG     1      15.590  32.787  16.258  1.00  0.00     0.001 A 
HETATM    4  C   LIG     1      14.435  32.754  17.064  1.00  0.00     0.002 A 
HETATM    5  C   LIG     1      13.436  31.795  16.827  1.00  0.00     0.029 A 
HETATM    6  C   LIG     1      13.625  30.890  15.783  1.00  0.00     0.034 A 
HETATM    7  N   LIG     1      12.744  29.860  15.392  1.00  0.00    -0.389 N 
HETATM    8  C   LIG     1      13.328  29.150  14.257  1.00  0.00     0.124 A 
HETATM    9  C   LIG     1      14.683  29.845  13.969  1.00  0.00     0.060 A 
HETATM   10  H   LIG     1      11.826  29.641  15.839  1.00  0.00     0.159 HD
ENDROOT
TORSDOF 0
ENDMDL
MODEL 14
REMARK VINA RESULT:      -5.3      9.011     10.434
REMARK  0 active torsions:
REMARK  status: ('A' for Active; 'I' for Inactive)
ROOT
HETATM    1  C   LIG     1      15.269  31.686  15.080  1.00  0.00    -0.030 A 
HETATM    2  C   LIG     1      14.218  30.801  15.325  1.00  0.00     0.009 A 
HETATM    3  C   LIG     1      13.600  30.829  16.586  1.00  0.00     0.001 A 
HETATM    4  C   LIG     1      14.040  31.734  17.572  1.00  0.00     0.002 A 
HETATM    5  C   LIG     1      15.100  32.615  17.300  1.00  0.00     0.029 A 
HETATM    6  C   LIG     1      15.693  32.563  16.038  1.00  0.00     0.034 A 
HETATM    7  N   LIG     1      16.762  33.360  15.577  1.00  0.00    -0.389 N 
HETATM    8  C   LIG     1      17.070  32.979  14.201  1.00  0.00     0.124 A 
HETATM    9  C   LIG     1      16.075  31.847  13.837  1.00  0.00     0.060 A 
HETATM   10  H   LIG     1      17.252  34.099  16.128  1.00  0.00     0.159 HD
ENDROOT
TORSDOF 0
ENDMDL
MODEL 15
REMARK VINA RESULT:      -5.3      2.351      3.577
REMARK  0 active torsions:
REMARK  status: ('A' for Active; 'I' for Inactive)
ROOT
HETATM    1  C   LIG     1      17.270  36.860  21.528  1.00  0.00    -0.030 A 
HETATM    2  C   LIG     1      17.845  38.130  21.455  1.00  0.00     0.009 A 
HETATM    3  C   LIG     1      18.026  38.852  22.646  1.00  0.00     0.001 A 
HETATM    4  C   LIG     1      17.634  38.296  23.880  1.00  0.00     0.002 A 
HETATM    5  C   LIG     1      17.057  37.015  23.926  1.00  0.00     0.029 A 
HETATM    6  C   LIG     1      16.891  36.324  22.726  1.00  0.00     0.034 A 
HETATM    7  N   LIG     1      16.336  35.037  22.567  1.00  0.00    -0.389 N 
HETATM    8  C   LIG     1      16.350  34.693  21.147  1.00  0.00     0.124 A 
HETATM    9  C   LIG     1      16.977  35.910  20.419  1.00  0.00     0.060 A 
HETATM   10  H   LIG     1      15.975  34.429  23.336  1.00  0.00     0.159 HD
ENDROOT
TORSDOF 0
ENDMDL
MODEL 16
REMARK VINA RESULT:      -5.3      9.451     10.983
REMARK  0 active torsions:
REMARK  status: ('A' for Active; 'I' for Inactive)
ROOT
HETATM    1  C   LIG     1      14.389  30.881  15.488  1.00  0.00    -0.030 A 
HETATM    2  C   LIG     1      13.680  30.925  16.690  1.00  0.00     0.009 A 
HETATM    3  C   LIG     1      13.962  31.961  17.595  1.00  0.00     0.001 A 
HETATM    4  C   LIG     1      14.940  32.927  17.286  1.00  0.00     0.002 A 
HETATM    5  C   LIG     1      15.640  32.860  16.069  1.00  0.00     0.029 A 
HETATM    6  C   LIG     1      15.336  31.819  15.191  1.00  0.00     0.034 A 
HETATM    7  N   LIG     1      15.925  31.583  13.931  1.00  0.00    -0.389 N 
HETATM    8  C   LIG     1      15.316  30.391  13.346  1.00  0.00     0.124 A 
HETATM    9  C   LIG     1      14.272  29.894  14.379  1.00  0.00     0.060 A 
HETATM   10  H   LIG     1      16.672  32.164  13.489  1.00  0.00     0.159 HD
ENDROOT
TORSDOF 0
ENDMDL
MODEL 17
REMARK VINA RESULT:      -5.3      9.400     11.269
REMARK  0 active torsions:
REMARK  status: ('A' for Active; 'I' for Inactive)
ROOT
HETATM    1  C   LIG     1      15.237  32.011  15.846  1.00  0.00    -0.030 A 
HETATM    2  C   LIG     1      16.001  32.290  14.711  1.00  0.00     0.009 A 
HETATM    3  C   LIG     1      15.862  31.456  13.589  1.00  0.00     0.001 A 
HETATM    4  C   LIG     1      14.968  30.367  13.621  1.00  0.00     0.002 A 
HETATM    5  C   LIG     1      14.211  30.108  14.775  1.00  0.00     0.029 A 
HETATM    6  C   LIG     1      14.371  30.955  15.872  1.00  0.00     0.034 A 
HETATM    7  N   LIG     1      13.704  30.860  17.112  1.00  0.00    -0.389 N 
HETATM    8  C   LIG     1      14.167  31.943  17.976  1.00  0.00     0.124 A 
HETATM    9  C   LIG     1      15.206  32.739  17.145  1.00  0.00     0.060 A 
HETATM   10  H   LIG     1      12.997  30.136  17.370  1.00  0.00     0.159 HD
ENDROOT
TORSDOF 0
ENDMDL
MODEL 18
REMARK VINA RESULT:      -5.2      2.301      3.503
REMARK  0 active torsions:
REMARK  status: ('A' for Active; 'I' for Inactive)
ROOT
HETATM    1  C   LIG     1      17.714  37.281  21.258  1.00  0.00    -0.030 A 
HETATM    2  C   LIG     1      17.419  36.111  20.557  1.00  0.00     0.009 A 
HETATM    3  C   LIG     1      16.806  35.053  21.249  1.00  0.00     0.001 A 
HETATM    4  C   LIG     1      16.502  35.182  22.618  1.00  0.00     0.002 A 
HETATM    5  C   LIG     1      16.810  36.371  23.301  1.00  0.00     0.029 A 
HETATM    6  C   LIG     1      17.417  37.403  22.586  1.00  0.00     0.034 A 
HETATM    7  N   LIG     1      17.801  38.664  23.091  1.00  0.00    -0.389 N 
HETATM    8  C   LIG     1      18.400  39.439  22.007  1.00  0.00     0.124 A 
HETATM    9  C   LIG     1      18.355  38.528  20.754  1.00  0.00     0.060 A 
HETATM   10  H   LIG     1      17.677  38.989  24.075  1.00  0.00     0.159 HD
ENDROOT
TORSDOF 0
ENDMDL
MODEL 19
REMARK VINA RESULT:      -5.0      9.761     11.285
REMARK  0 active torsions:
REMARK  status: ('A' for Active; 'I' for Inactive)
ROOT
HETATM    1  C   LIG     1      14.851  32.008  15.935  1.00  0.00    -0.030 A 
HETATM    2  C   LIG     1      13.709  31.621  16.638  1.00  0.00     0.009 A 
HETATM    3  C   LIG     1      12.956  30.542  16.148  1.00  0.00     0.001 A 
HETATM    4  C   LIG     1      13.354  29.874  14.973  1.00  0.00     0.002 A 
HETATM    5  C   LIG     1      14.507  30.283  14.284  1.00  0.00     0.029 A 
HETATM    6  C   LIG     1      15.234  31.358  14.796  1.00  0.00     0.034 A 
HETATM    7  N   LIG     1      16.412  31.913  14.252  1.00  0.00    -0.389 N 
HETATM    8  C   LIG     1      16.843  33.020  15.101  1.00  0.00     0.124 A 
HETATM    9  C   LIG     1      15.805  33.109  16.249  1.00  0.00     0.060 A 
HETATM   10  H   LIG     1      16.896  31.586  13.386  1.00  0.00     0.159 HD
ENDROOT
TORSDOF 0
ENDMDL
MODEL 20
REMARK VINA RESULT:      -4.8      9.605     11.033
REMARK  0 active torsions:
REMARK  status: ('A' for Active; 'I' for Inactive)
ROOT
HETATM    1  C   LIG     1      14.524  31.086  15.111  1.00  0.00    -0.030 A 
HETATM    2  C   LIG     1      15.465  31.180  14.084  1.00  0.00     0.009 A 
HETATM    3  C   LIG     1      16.487  32.136  14.200  1.00  0.00     0.001 A 
HETATM    4  C   LIG     1      16.550  32.975  15.330  1.00  0.00     0.002 A 
HETATM    5  C   LIG     1      15.589  32.861  16.349  1.00  0.00     0.029 A 
HETATM    6  C   LIG     1      14.588  31.901  16.205  1.00  0.00     0.034 A 
HETATM    7  N   LIG     1      13.541  31.635  17.113  1.00  0.00    -0.389 N 
HETATM    8  C   LIG     1      12.718  30.555  16.575  1.00  0.00     0.124 A 
HETATM    9  C   LIG     1      13.360  30.163  15.220  1.00  0.00     0.060 A 
HETATM   10  H   LIG     1      13.381  32.128  18.020  1.00  0.00     0.159 HD
ENDROOT
TORSDOF 0
ENDMDL
