REMARK  0 active torsions:
REMARK  status: ('A' for Active; 'I' for Inactive)
ROOT
HETATM    1  C   LIG     1      -0.057  -0.627  -0.043  1.00  0.00    -0.030 A 
HETATM    2  C   LIG     1       1.116  -1.383   0.000  1.00  0.00     0.009 A 
HETATM    3  C   LIG     1       2.341  -0.709   0.134  1.00  0.00     0.001 A 
HETATM    4  C   LIG     1       2.372   0.697   0.222  1.00  0.00     0.002 A 
HETATM    5  C   LIG     1       1.177   1.434   0.176  1.00  0.00     0.029 A 
HETATM    6  C   LIG     1      -0.023   0.736   0.043  1.00  0.00     0.034 A 
HETATM    7  N   LIG     1      -1.318   1.293  -0.021  1.00  0.00    -0.389 N 
HETATM    8  C   LIG     1      -2.287   0.209  -0.160  1.00  0.00     0.124 A 
HETATM    9  C   LIG     1      -1.462  -1.103  -0.178  1.00  0.00     0.060 A 
HETATM   10  H   LIG     1      -1.546   2.311   0.024  1.00  0.00     0.159 HD
ENDROOT
TORSDOF 0
