REMARK  0 active torsions:
REMARK  status: ('A' for Active; 'I' for Inactive)
ROOT
HETATM    1  C   LIG     1       0.048   0.671   0.139  1.00  0.00    -0.052 A 
HETATM    2  C   LIG     1       1.235   1.406   0.080  1.00  0.00     0.007 A 
HETATM    3  C   LIG     1       2.419   0.748  -0.288  1.00  0.00     0.001 A 
HETATM    4  C   LIG     1       2.399  -0.626  -0.588  1.00  0.00     0.001 A 
HETATM    5  C   LIG     1       1.195  -1.345  -0.521  1.00  0.00     0.007 A 
HETATM    6  C   LIG     1       0.029  -0.669  -0.153  1.00  0.00    -0.052 A 
HETATM    7  C   LIG     1      -1.328  -1.248  -0.027  1.00  0.00     0.039 A 
HETATM    8  C   LIG     1      -2.206  -0.056   0.401  1.00  0.00     0.009 A 
HETATM    9  C   LIG     1      -1.293   1.182   0.503  1.00  0.00     0.039 A 
ENDROOT
TORSDOF 0
