MODEL 1
REMARK VINA RESULT:      -7.0      0.000      0.000
REMARK  0 active torsions:
REMARK  status: ('A' for Active; 'I' for Inactive)
ROOT
HETATM    1  C   LIG     1      17.343  37.050  24.202  1.00  0.00    -0.052 A 
HETATM    2  C   LIG     1      17.795  37.617  25.397  1.00  0.00     0.007 A 
HETATM    3  C   LIG     1      18.115  36.768  26.468  1.00  0.00     0.001 A 
HETATM    4  C   LIG     1      17.979  35.375  26.331  1.00  0.00     0.001 A 
HETATM    5  C   LIG     1      17.521  34.827  25.122  1.00  0.00     0.007 A 
HETATM    6  C   LIG     1      17.209  35.691  24.069  1.00  0.00    -0.052 A 
HETATM    7  C   LIG     1      16.716  35.309  22.726  1.00  0.00     0.039 A 
HETATM    8  C   LIG     1      16.546  36.653  21.992  1.00  0.00     0.009 A 
HETATM    9  C   LIG     1      16.958  37.772  22.969  1.00  0.00     0.039 A 
ENDROOT
TORSDOF 0
ENDMDL
MODEL 2
REMARK VINA RESULT:      -7.0      0.062      2.000
REMARK  0 active torsions:
REMARK  status: ('A' for Active; 'I' for Inactive)
ROOT
HETATM    1  C   LIG     1      17.227  35.675  24.103  1.00  0.00    -0.052 A 
HETATM    2  C   LIG     1      17.539  34.794  25.142  1.00  0.00     0.007 A 
HETATM    3  C   LIG     1      18.002  35.321  26.358  1.00  0.00     0.001 A 
HETATM    4  C   LIG     1      18.147  36.711  26.515  1.00  0.00     0.001 A 
HETATM    5  C   LIG     1      17.828  37.577  25.457  1.00  0.00     0.007 A 
HETATM    6  C   LIG     1      17.369  37.030  24.257  1.00  0.00    -0.052 A 
HETATM    7  C   LIG     1      16.984  37.773  23.035  1.00  0.00     0.039 A 
HETATM    8  C   LIG     1      16.562  36.671  22.044  1.00  0.00     0.009 A 
HETATM    9  C   LIG     1      16.727  35.315  22.757  1.00  0.00     0.039 A 
ENDROOT
TORSDOF 0
ENDMDL
MODEL 3
REMARK VINA RESULT:      -6.9      0.667      3.765
REMARK  0 active torsions:
REMARK  status: ('A' for Active; 'I' for Inactive)
ROOT
HETATM    1  C   LIG     1      17.374  35.627  24.504  1.00  0.00    -0.052 A 
HETATM    2  C   LIG     1      16.970  35.079  23.284  1.00  0.00     0.007 A 
HETATM    3  C   LIG     1      16.655  35.946  22.226  1.00  0.00     0.001 A 
HETATM    4  C   LIG     1      16.745  37.338  22.403  1.00  0.00     0.001 A 
HETATM    5  C   LIG     1      17.152  37.867  23.639  1.00  0.00     0.007 A 
HETATM    6  C   LIG     1      17.461  36.985  24.677  1.00  0.00    -0.052 A 
HETATM    7  C   LIG     1      17.905  37.346  26.043  1.00  0.00     0.039 A 
HETATM    8  C   LIG     1      18.096  35.988  26.746  1.00  0.00     0.009 A 
HETATM    9  C   LIG     1      17.746  34.883  25.729  1.00  0.00     0.039 A 
ENDROOT
TORSDOF 0
ENDMDL
MODEL 4
REMARK VINA RESULT:      -6.9      0.664      3.191
REMARK  0 active torsions:
REMARK  status: ('A' for Active; 'I' for Inactive)
ROOT
HETATM    1  C   LIG     1      17.485  36.966  24.668  1.00  0.00    -0.052 A 
HETATM    2  C   LIG     1      17.192  37.851  23.627  1.00  0.00     0.007 A 
HETATM    3  C   LIG     1      16.775  37.328  22.393  1.00  0.00     0.001 A 
HETATM    4  C   LIG     1      16.661  35.937  22.218  1.00  0.00     0.001 A 
HETATM    5  C   LIG     1      16.962  35.066  23.278  1.00  0.00     0.007 A 
HETATM    6  C   LIG     1      17.374  35.609  24.497  1.00  0.00    -0.052 A 
HETATM    7  C   LIG     1      17.733  34.861  25.723  1.00  0.00     0.039 A 
HETATM    8  C   LIG     1      18.104  35.961  26.738  1.00  0.00     0.009 A 
HETATM    9  C   LIG     1      17.936  37.321  26.032  1.00  0.00     0.039 A 
ENDROOT
TORSDOF 0
ENDMDL
MODEL 5
REMARK VINA RESULT:      -6.9      2.873      4.541
REMARK  0 active torsions:
REMARK  status: ('A' for Active; 'I' for Inactive)
ROOT
HETATM    1  C   LIG     1      18.220  37.149  20.573  1.00  0.00    -0.052 A 
HETATM    2  C   LIG     1      17.352  36.137  20.992  1.00  0.00     0.007 A 
HETATM    3  C   LIG     1      16.442  36.414  22.025  1.00  0.00     0.001 A 
HETATM    4  C   LIG     1      16.416  37.688  22.621  1.00  0.00     0.001 A 
HETATM    5  C   LIG     1      17.299  38.688  22.184  1.00  0.00     0.007 A 
HETATM    6  C   LIG     1      18.195  38.391  21.154  1.00  0.00    -0.052 A 
HETATM    7  C   LIG     1      19.196  39.305  20.560  1.00  0.00     0.039 A 
HETATM    8  C   LIG     1      19.891  38.451  19.482  1.00  0.00     0.009 A 
HETATM    9  C   LIG     1      19.242  37.052  19.506  1.00  0.00     0.039 A 
ENDROOT
TORSDOF 0
ENDMDL
MODEL 6
REMARK VINA RESULT:      -6.9      2.875      4.105
REMARK  0 active torsions:
REMARK  status: ('A' for Active; 'I' for Inactive)
ROOT
HETATM    1  C   LIG     1      18.188  38.390  21.153  1.00  0.00    -0.052 A 
HETATM    2  C   LIG     1      17.289  38.690  22.180  1.00  0.00     0.007 A 
HETATM    3  C   LIG     1      16.409  37.689  22.620  1.00  0.00     0.001 A 
HETATM    4  C   LIG     1      16.439  36.413  22.030  1.00  0.00     0.001 A 
HETATM    5  C   LIG     1      17.349  36.135  20.998  1.00  0.00     0.007 A 
HETATM    6  C   LIG     1      18.216  37.146  20.577  1.00  0.00    -0.052 A 
HETATM    7  C   LIG     1      19.240  37.048  19.512  1.00  0.00     0.039 A 
HETATM    8  C   LIG     1      19.886  38.447  19.483  1.00  0.00     0.009 A 
HETATM    9  C   LIG     1      19.188  39.304  20.557  1.00  0.00     0.039 A 
ENDROOT
TORSDOF 0
ENDMDL
MODEL 7
REMARK VINA RESULT:      -6.8      2.854      4.922
REMARK  0 active torsions:
REMARK  status: ('A' for Active; 'I' for Inactive)
ROOT
HETATM    1  C   LIG     1      17.626  37.286  21.181  1.00  0.00    -0.052 A 
HETATM    2  C   LIG     1      18.361  36.689  20.153  1.00  0.00     0.007 A 
HETATM    3  C   LIG     1      19.343  37.447  19.497  1.00  0.00     0.001 A 
HETATM    4  C   LIG     1      19.573  38.783  19.874  1.00  0.00     0.001 A 
HETATM    5  C   LIG     1      18.822  39.363  20.909  1.00  0.00     0.007 A 
HETATM    6  C   LIG     1      17.850  38.588  21.548  1.00  0.00    -0.052 A 
HETATM    7  C   LIG     1      16.963  39.017  22.654  1.00  0.00     0.039 A 
HETATM    8  C   LIG     1      16.110  37.769  22.955  1.00  0.00     0.009 A 
HETATM    9  C   LIG     1      16.556  36.655  21.987  1.00  0.00     0.039 A 
ENDROOT
TORSDOF 0
ENDMDL
MODEL 8
REMARK VINA RESULT:      -6.8      2.853      4.512
REMARK  0 active torsions:
REMARK  status: ('A' for Active; 'I' for Inactive)
ROOT
HETATM    1  C   LIG     1      17.861  38.595  21.550  1.00  0.00    -0.052 A 
HETATM    2  C   LIG     1      18.836  39.365  20.910  1.00  0.00     0.007 A 
HETATM    3  C   LIG     1      19.580  38.785  19.871  1.00  0.00     0.001 A 
HETATM    4  C   LIG     1      19.340  37.452  19.490  1.00  0.00     0.001 A 
HETATM    5  C   LIG     1      18.357  36.697  20.147  1.00  0.00     0.007 A 
HETATM    6  C   LIG     1      17.628  37.296  21.179  1.00  0.00    -0.052 A 
HETATM    7  C   LIG     1      16.557  36.668  21.986  1.00  0.00     0.039 A 
HETATM    8  C   LIG     1      16.121  37.781  22.959  1.00  0.00     0.009 A 
HETATM    9  C   LIG     1      16.980  39.025  22.659  1.00  0.00     0.039 A 
ENDROOT
TORSDOF 0
ENDMDL
MODEL 9
REMARK VINA RESULT:      -6.2      0.779      3.705
REMARK  0 active torsions:
REMARK  status: ('A' for Active; 'I' for Inactive)
ROOT
HETATM    1  C   LIG     1      17.274  36.079  24.321  1.00  0.00    -0.052 A 
HETATM    2  C   LIG     1      17.108  34.990  23.461  1.00  0.00     0.007 A 
HETATM    3  C   LIG     1      16.802  35.235  22.113  1.00  0.00     0.001 A 
HETATM    4  C   LIG     1      16.665  36.555  21.649  1.00  0.00     0.001 A 
HETATM    5  C   LIG     1      16.835  37.634  22.531  1.00  0.00     0.007 A 
HETATM    6  C   LIG     1      17.140  37.366  23.868  1.00  0.00    -0.052 A 
HETATM    7  C   LIG     1      17.356  38.361  24.943  1.00  0.00     0.039 A 
HETATM    8  C   LIG     1      17.656  37.506  26.190  1.00  0.00     0.009 A 
HETATM    9  C   LIG     1      17.598  36.026  25.765  1.00  0.00     0.039 A 
ENDROOT
TORSDOF 0
ENDMDL
MODEL 10
REMARK VINA RESULT:      -6.1      1.244      3.344
REMARK  0 active torsions:
REMARK  status: ('A' for Active; 'I' for Inactive)
ROOT
HETATM    1  C   LIG     1      17.356  37.453  22.860  1.00  0.00    -0.052 A 
HETATM    2  C   LIG     1      17.356  37.361  21.466  1.00  0.00     0.007 A 
HETATM    3  C   LIG     1      17.163  36.104  20.872  1.00  0.00     0.001 A 
HETATM    4  C   LIG     1      16.975  34.965  21.675  1.00  0.00     0.001 A 
HETATM    5  C   LIG     1      16.981  35.080  23.075  1.00  0.00     0.007 A 
HETATM    6  C   LIG     1      17.174  36.342  23.644  1.00  0.00    -0.052 A 
HETATM    7  C   LIG     1      17.211  36.665  25.088  1.00  0.00     0.039 A 
HETATM    8  C   LIG     1      17.451  38.187  25.125  1.00  0.00     0.009 A 
HETATM    9  C   LIG     1      17.542  38.680  23.667  1.00  0.00     0.039 A 
ENDROOT
TORSDOF 0
ENDMDL
MODEL 11
REMARK VINA RESULT:      -5.8      8.735     11.064
REMARK  0 active torsions:
REMARK  status: ('A' for Active; 'I' for Inactive)
ROOT
HETATM    1  C   LIG     1      14.046  31.295  15.954  1.00  0.00    -0.052 A 
HETATM    2  C   LIG     1      13.290  30.220  15.477  1.00  0.00     0.007 A 
HETATM    3  C   LIG     1      13.750  29.517  14.353  1.00  0.00     0.001 A 
HETATM    4  C   LIG     1      14.950  29.897  13.725  1.00  0.00     0.001 A 
HETATM    5  C   LIG     1      15.693  30.981  14.221  1.00  0.00     0.007 A 
HETATM    6  C   LIG     1      15.216  31.665  15.341  1.00  0.00    -0.052 A 
HETATM    7  C   LIG     1      15.851  32.824  16.008  1.00  0.00     0.039 A 
HETATM    8  C   LIG     1      14.897  33.158  17.170  1.00  0.00     0.009 A 
HETATM    9  C   LIG     1      13.729  32.152  17.118  1.00  0.00     0.039 A 
ENDROOT
TORSDOF 0
ENDMDL
MODEL 12
REMARK VINA RESULT:      -5.8      8.743     11.015
REMARK  0 active torsions:
REMARK  status: ('A' for Active; 'I' for Inactive)
ROOT
HETATM    1  C   LIG     1      15.209  31.658  15.349  1.00  0.00    -0.052 A 
HETATM    2  C   LIG     1      15.701  30.980  14.230  1.00  0.00     0.007 A 
HETATM    3  C   LIG     1      14.969  29.895  13.722  1.00  0.00     0.001 A 
HETATM    4  C   LIG     1      13.765  29.507  14.337  1.00  0.00     0.001 A 
HETATM    5  C   LIG     1      13.290  30.202  15.460  1.00  0.00     0.007 A 
HETATM    6  C   LIG     1      14.036  31.278  15.948  1.00  0.00    -0.052 A 
HETATM    7  C   LIG     1      13.703  32.129  17.113  1.00  0.00     0.039 A 
HETATM    8  C   LIG     1      14.864  33.141  17.182  1.00  0.00     0.009 A 
HETATM    9  C   LIG     1      15.832  32.817  16.026  1.00  0.00     0.039 A 
ENDROOT
TORSDOF 0
ENDMDL
MODEL 13
REMARK VINA RESULT:      -5.8      1.899      3.248
REMARK  0 active torsions:
REMARK  status: ('A' for Active; 'I' for Inactive)
ROOT
HETATM    1  C   LIG     1      16.923  36.392  22.669  1.00  0.00    -0.052 A 
HETATM    2  C   LIG     1      17.054  37.104  23.864  1.00  0.00     0.007 A 
HETATM    3  C   LIG     1      17.626  38.385  23.827  1.00  0.00     0.001 A 
HETATM    4  C   LIG     1      18.057  38.931  22.605  1.00  0.00     0.001 A 
HETATM    5  C   LIG     1      17.916  38.197  21.416  1.00  0.00     0.007 A 
HETATM    6  C   LIG     1      17.344  36.924  21.477  1.00  0.00    -0.052 A 
HETATM    7  C   LIG     1      17.112  36.002  20.341  1.00  0.00     0.039 A 
HETATM    8  C   LIG     1      16.463  34.764  20.990  1.00  0.00     0.009 A 
HETATM    9  C   LIG     1      16.349  35.037  22.503  1.00  0.00     0.039 A 
ENDROOT
TORSDOF 0
ENDMDL
MODEL 14
REMARK VINA RESULT:      -5.8      8.517     10.444
REMARK  0 active torsions:
REMARK  status: ('A' for Active; 'I' for Inactive)
ROOT
HETATM    1  C   LIG     1      15.347  31.857  15.216  1.00  0.00    -0.052 A 
HETATM    2  C   LIG     1      15.624  32.894  16.111  1.00  0.00     0.007 A 
HETATM    3  C   LIG     1      14.930  32.938  17.330  1.00  0.00     0.001 A 
HETATM    4  C   LIG     1      13.973  31.952  17.633  1.00  0.00     0.001 A 
HETATM    5  C   LIG     1      13.710  30.920  16.719  1.00  0.00     0.007 A 
HETATM    6  C   LIG     1      14.414  30.896  15.512  1.00  0.00    -0.052 A 
HETATM    7  C   LIG     1      14.280  29.897  14.428  1.00  0.00     0.039 A 
HETATM    8  C   LIG     1      15.287  30.365  13.360  1.00  0.00     0.009 A 
HETATM    9  C   LIG     1      15.971  31.640  13.891  1.00  0.00     0.039 A 
ENDROOT
TORSDOF 0
ENDMDL
MODEL 15
REMARK VINA RESULT:      -5.8      1.909      3.055
REMARK  0 active torsions:
REMARK  status: ('A' for Active; 'I' for Inactive)
ROOT
HETATM    1  C   LIG     1      17.341  36.928  21.471  1.00  0.00    -0.052 A 
HETATM    2  C   LIG     1      17.903  38.206  21.396  1.00  0.00     0.007 A 
HETATM    3  C   LIG     1      18.045  38.951  22.576  1.00  0.00     0.001 A 
HETATM    4  C   LIG     1      17.625  38.414  23.806  1.00  0.00     0.001 A 
HETATM    5  C   LIG     1      17.062  37.129  23.858  1.00  0.00     0.007 A 
HETATM    6  C   LIG     1      16.931  36.405  22.671  1.00  0.00    -0.052 A 
HETATM    7  C   LIG     1      16.366  35.044  22.521  1.00  0.00     0.039 A 
HETATM    8  C   LIG     1      16.474  34.758  21.011  1.00  0.00     0.009 A 
HETATM    9  C   LIG     1      17.110  35.994  20.346  1.00  0.00     0.039 A 
ENDROOT
TORSDOF 0
ENDMDL
MODEL 16
REMARK VINA RESULT:      -5.8      8.517     10.584
REMARK  0 active torsions:
REMARK  status: ('A' for Active; 'I' for Inactive)
ROOT
HETATM    1  C   LIG     1      14.409  30.891  15.516  1.00  0.00    -0.052 A 
HETATM    2  C   LIG     1      13.704  30.914  16.722  1.00  0.00     0.007 A 
HETATM    3  C   LIG     1      13.968  31.943  17.639  1.00  0.00     0.001 A 
HETATM    4  C   LIG     1      14.927  32.927  17.339  1.00  0.00     0.001 A 
HETATM    5  C   LIG     1      15.625  32.884  16.121  1.00  0.00     0.007 A 
HETATM    6  C   LIG     1      15.345  31.850  15.224  1.00  0.00    -0.052 A 
HETATM    7  C   LIG     1      15.969  31.635  13.898  1.00  0.00     0.039 A 
HETATM    8  C   LIG     1      15.284  30.363  13.363  1.00  0.00     0.009 A 
HETATM    9  C   LIG     1      14.273  29.895  14.429  1.00  0.00     0.039 A 
ENDROOT
TORSDOF 0
ENDMDL
MODEL 17
REMARK VINA RESULT:      -5.6      8.669     11.035
REMARK  0 active torsions:
REMARK  status: ('A' for Active; 'I' for Inactive)
ROOT
HETATM    1  C   LIG     1      14.442  31.002  15.603  1.00  0.00    -0.052 A 
HETATM    2  C   LIG     1      14.408  30.198  14.461  1.00  0.00     0.007 A 
HETATM    3  C   LIG     1      15.255  30.515  13.387  1.00  0.00     0.001 A 
HETATM    4  C   LIG     1      16.115  31.625  13.470  1.00  0.00     0.001 A 
HETATM    5  C   LIG     1      16.131  32.420  14.627  1.00  0.00     0.007 A 
HETATM    6  C   LIG     1      15.281  32.085  15.683  1.00  0.00    -0.052 A 
HETATM    7  C   LIG     1      15.154  32.794  16.977  1.00  0.00     0.039 A 
HETATM    8  C   LIG     1      14.082  31.992  17.740  1.00  0.00     0.009 A 
HETATM    9  C   LIG     1      13.632  30.831  16.831  1.00  0.00     0.039 A 
ENDROOT
TORSDOF 0
ENDMDL
MODEL 18
REMARK VINA RESULT:      -5.4      9.131     11.155
REMARK  0 active torsions:
REMARK  status: ('A' for Active; 'I' for Inactive)
ROOT
HETATM    1  C   LIG     1      15.564  31.444  14.524  1.00  0.00    -0.052 A 
HETATM    2  C   LIG     1      15.146  30.329  13.793  1.00  0.00     0.007 A 
HETATM    3  C   LIG     1      14.019  29.618  14.232  1.00  0.00     0.001 A 
HETATM    4  C   LIG     1      13.331  30.029  15.388  1.00  0.00     0.001 A 
HETATM    5  C   LIG     1      13.770  31.152  16.108  1.00  0.00     0.007 A 
HETATM    6  C   LIG     1      14.894  31.844  15.651  1.00  0.00    -0.052 A 
HETATM    7  C   LIG     1      15.506  33.043  16.268  1.00  0.00     0.039 A 
HETATM    8  C   LIG     1      16.701  33.368  15.351  1.00  0.00     0.009 A 
HETATM    9  C   LIG     1      16.721  32.318  14.223  1.00  0.00     0.039 A 
ENDROOT
TORSDOF 0
ENDMDL
MODEL 19
REMARK VINA RESULT:      -4.9     12.454     13.574
REMARK  0 active torsions:
REMARK  status: ('A' for Active; 'I' for Inactive)
ROOT
HETATM    1  C   LIG     1      22.220  35.635  11.302  1.00  0.00    -0.052 A 
HETATM    2  C   LIG     1      23.118  36.625  10.895  1.00  0.00     0.007 A 
HETATM    3  C   LIG     1      24.084  37.077  11.807  1.00  0.00     0.001 A 
HETATM    4  C   LIG     1      24.137  36.537  13.104  1.00  0.00     0.001 A 
HETATM    5  C   LIG     1      23.224  35.544  13.493  1.00  0.00     0.007 A 
HETATM    6  C   LIG     1      22.271  35.109  12.568  1.00  0.00    -0.052 A 
HETATM    7  C   LIG     1      21.231  34.078  12.786  1.00  0.00     0.039 A 
HETATM    8  C   LIG     1      20.480  34.013  11.442  1.00  0.00     0.009 A 
HETATM    9  C   LIG     1      21.138  35.033  10.491  1.00  0.00     0.039 A 
ENDROOT
TORSDOF 0
ENDMDL
MODEL 20
REMARK VINA RESULT:      -4.9     12.483     13.640
REMARK  0 active torsions:
REMARK  status: ('A' for Active; 'I' for Inactive)
ROOT
HETATM    1  C   LIG     1      22.267  35.115  12.531  1.00  0.00    -0.052 A 
HETATM    2  C   LIG     1      23.206  35.529  13.480  1.00  0.00     0.007 A 
HETATM    3  C   LIG     1      24.129  36.526  13.126  1.00  0.00     0.001 A 
HETATM    4  C   LIG     1      24.101  37.089  11.837  1.00  0.00     0.001 A 
HETATM    5  C   LIG     1      23.149  36.656  10.899  1.00  0.00     0.007 A 
HETATM    6  C   LIG     1      22.240  35.664  11.274  1.00  0.00    -0.052 A 
HETATM    7  C   LIG     1      21.170  35.080  10.434  1.00  0.00     0.039 A 
HETATM    8  C   LIG     1      20.492  34.047  11.354  1.00  0.00     0.009 A 
HETATM    9  C   LIG     1      21.219  34.085  12.713  1.00  0.00     0.039 A 
ENDROOT
TORSDOF 0
ENDMDL
