REMARK  2 active torsions:
REMARK  status: ('A' for Active; 'I' for Inactive)
REMARK    1  A    between atoms: C_2  and  C_3 
REMARK    2  A    between atoms: C_5  and  O_6 
ROOT
HETATM    1  C   LIG     1      -0.546  -0.374   0.067  1.00  0.00    -0.052 A 
HETATM    2  C   LIG     1       0.093   0.856  -0.172  1.00  0.00     0.044 A 
HETATM    3  C   LIG     1       1.493   0.948  -0.168  1.00  0.00     0.072 A 
HETATM    4  C   LIG     1       2.271  -0.197   0.075  1.00  0.00    -0.029 A 
HETATM    5  C   LIG     1       3.770  -0.107   0.081  1.00  0.00     0.051 C 
HETATM    6  C   LIG     1       1.635  -1.425   0.314  1.00  0.00     0.010 A 
HETATM    7  C   LIG     1       0.240  -1.513   0.309  1.00  0.00     0.008 A 
ENDROOT
BRANCH   1   8
HETATM    8  C   LIG     1      -2.059  -0.485   0.066  1.00  0.00     0.010 C 
HETATM    9  C   LIG     1      -2.678   0.380   1.171  1.00  0.00     0.015 C 
HETATM   10  C   LIG     1      -2.639  -0.121  -1.306  1.00  0.00     0.015 C 
ENDBRANCH   1   8
BRANCH   3  11
HETATM   11  O   LIG     1       2.112   2.175  -0.407  1.00  0.00    -0.360 OA
HETATM   12  H   LIG     1       1.575   3.016  -0.585  1.00  0.00     0.217 HD
ENDBRANCH   3  11
TORSDOF 2
