MODEL 1
REMARK VINA RESULT:      -7.3      0.000      0.000
REMARK  2 active torsions:
REMARK  status: ('A' for Active; 'I' for Inactive)
REMARK    1  A    between atoms: C_2  and  C_3 
REMARK    2  A    between atoms: C_5  and  O_6 
ROOT
HETATM    1  C   LIG     1      16.758  36.293  22.951  1.00  0.00    -0.052 A 
HETATM    2  C   LIG     1      16.919  37.469  23.705  1.00  0.00     0.044 A 
HETATM    3  C   LIG     1      17.394  37.414  25.024  1.00  0.00     0.072 A 
HETATM    4  C   LIG     1      17.714  36.174  25.604  1.00  0.00    -0.029 A 
HETATM    5  C   LIG     1      18.222  36.106  27.015  1.00  0.00     0.051 C 
HETATM    6  C   LIG     1      17.553  34.999  24.852  1.00  0.00     0.010 A 
HETATM    7  C   LIG     1      17.081  35.058  23.538  1.00  0.00     0.008 A 
ENDROOT
BRANCH   1   8
HETATM    8  C   LIG     1      16.245  36.341  21.524  1.00  0.00     0.010 C 
HETATM    9  C   LIG     1      17.385  36.134  20.519  1.00  0.00     0.015 C 
HETATM   10  C   LIG     1      15.126  35.315  21.304  1.00  0.00     0.015 C 
ENDBRANCH   1   8
BRANCH   3  11
HETATM   11  O   LIG     1      17.549  38.589  25.759  1.00  0.00    -0.360 OA
HETATM   12  H   LIG     1      17.798  38.573  26.742  1.00  0.00     0.217 HD
ENDBRANCH   3  11
TORSDOF 2
ENDMDL
MODEL 2
REMARK VINA RESULT:      -7.1      2.514      4.472
REMARK  2 active torsions:
REMARK  status: ('A' for Active; 'I' for Inactive)
REMARK    1  A    between atoms: C_2  and  C_3 
REMARK    2  A    between atoms: C_5  and  O_6 
ROOT
HETATM    1  C   LIG     1      17.298  36.825  21.427  1.00  0.00    -0.052 A 
HETATM    2  C   LIG     1      17.641  38.133  21.811  1.00  0.00     0.044 A 
HETATM    3  C   LIG     1      18.605  38.860  21.096  1.00  0.00     0.072 A 
HETATM    4  C   LIG     1      19.236  38.281  19.981  1.00  0.00    -0.029 A 
HETATM    5  C   LIG     1      20.268  39.052  19.210  1.00  0.00     0.051 C 
HETATM    6  C   LIG     1      18.895  36.975  19.596  1.00  0.00     0.010 A 
HETATM    7  C   LIG     1      17.934  36.254  20.312  1.00  0.00     0.008 A 
ENDROOT
BRANCH   1   8
HETATM    8  C   LIG     1      16.258  36.029  22.194  1.00  0.00     0.010 C 
HETATM    9  C   LIG     1      15.333  35.264  21.240  1.00  0.00     0.015 C 
HETATM   10  C   LIG     1      16.920  35.078  23.198  1.00  0.00     0.015 C 
ENDBRANCH   1   8
BRANCH   3  11
HETATM   11  O   LIG     1      18.934  40.157  21.489  1.00  0.00    -0.360 OA
HETATM   12  H   LIG     1      18.699  40.510  22.410  1.00  0.00     0.217 HD
ENDBRANCH   3  11
TORSDOF 2
ENDMDL
MODEL 3
REMARK VINA RESULT:      -6.8      1.444      1.975
REMARK  2 active torsions:
REMARK  status: ('A' for Active; 'I' for Inactive)
REMARK    1  A    between atoms: C_2  and  C_3 
REMARK    2  A    between atoms: C_5  and  O_6 
ROOT
HETATM    1  C   LIG     1      17.486  37.178  22.690  1.00  0.00    -0.052 A 
HETATM    2  C   LIG     1      17.628  37.757  23.964  1.00  0.00     0.044 A 
HETATM    3  C   LIG     1      17.525  36.973  25.123  1.00  0.00     0.072 A 
HETATM    4  C   LIG     1      17.279  35.593  25.017  1.00  0.00    -0.029 A 
HETATM    5  C   LIG     1      17.167  34.746  26.252  1.00  0.00     0.051 C 
HETATM    6  C   LIG     1      17.137  35.013  23.746  1.00  0.00     0.010 A 
HETATM    7  C   LIG     1      17.240  35.798  22.594  1.00  0.00     0.008 A 
ENDROOT
BRANCH   1   8
HETATM    8  C   LIG     1      17.595  38.017  21.431  1.00  0.00     0.010 C 
HETATM    9  C   LIG     1      18.316  39.341  21.709  1.00  0.00     0.015 C 
HETATM   10  C   LIG     1      18.290  37.239  20.307  1.00  0.00     0.015 C 
ENDBRANCH   1   8
BRANCH   3  11
HETATM   11  O   LIG     1      17.668  37.562  26.379  1.00  0.00    -0.360 OA
HETATM   12  H   LIG     1      18.516  37.454  26.923  1.00  0.00     0.217 HD
ENDBRANCH   3  11
TORSDOF 2
ENDMDL
MODEL 4
REMARK VINA RESULT:      -6.7      2.974      5.107
REMARK  2 active torsions:
REMARK  status: ('A' for Active; 'I' for Inactive)
REMARK    1  A    between atoms: C_2  and  C_3 
REMARK    2  A    between atoms: C_5  and  O_6 
ROOT
HETATM    1  C   LIG     1      17.500  37.541  22.443  1.00  0.00    -0.052 A 
HETATM    2  C   LIG     1      17.609  36.738  21.294  1.00  0.00     0.044 A 
HETATM    3  C   LIG     1      18.270  37.211  20.150  1.00  0.00     0.072 A 
HETATM    4  C   LIG     1      18.832  38.499  20.147  1.00  0.00    -0.029 A 
HETATM    5  C   LIG     1      19.541  39.013  18.927  1.00  0.00     0.051 C 
HETATM    6  C   LIG     1      18.724  39.302  21.293  1.00  0.00     0.010 A 
HETATM    7  C   LIG     1      18.065  38.828  22.430  1.00  0.00     0.008 A 
ENDROOT
BRANCH   1   8
HETATM    8  C   LIG     1      16.787  37.041  23.685  1.00  0.00     0.010 C 
HETATM    9  C   LIG     1      17.078  35.555  23.929  1.00  0.00     0.015 C 
HETATM   10  C   LIG     1      17.159  37.881  24.913  1.00  0.00     0.015 C 
ENDBRANCH   1   8
BRANCH   3  11
HETATM   11  O   LIG     1      18.371  36.402  19.018  1.00  0.00    -0.360 OA
HETATM   12  H   LIG     1      18.545  35.406  19.090  1.00  0.00     0.217 HD
ENDBRANCH   3  11
TORSDOF 2
ENDMDL
MODEL 5
REMARK VINA RESULT:      -6.7      2.275      4.606
REMARK  2 active torsions:
REMARK  status: ('A' for Active; 'I' for Inactive)
REMARK    1  A    between atoms: C_2  and  C_3 
REMARK    2  A    between atoms: C_5  and  O_6 
ROOT
HETATM    1  C   LIG     1      17.411  37.328  22.865  1.00  0.00    -0.052 A 
HETATM    2  C   LIG     1      17.993  38.551  22.485  1.00  0.00     0.044 A 
HETATM    3  C   LIG     1      18.488  38.735  21.185  1.00  0.00     0.072 A 
HETATM    4  C   LIG     1      18.403  37.692  20.248  1.00  0.00    -0.029 A 
HETATM    5  C   LIG     1      18.930  37.881  18.854  1.00  0.00     0.051 C 
HETATM    6  C   LIG     1      17.823  36.471  20.625  1.00  0.00     0.010 A 
HETATM    7  C   LIG     1      17.331  36.291  21.921  1.00  0.00     0.008 A 
ENDROOT
BRANCH   1   8
HETATM    8  C   LIG     1      16.874  37.118  24.268  1.00  0.00     0.010 C 
HETATM    9  C   LIG     1      17.274  35.741  24.813  1.00  0.00     0.015 C 
HETATM   10  C   LIG     1      17.335  38.236  25.210  1.00  0.00     0.015 C 
ENDBRANCH   1   8
BRANCH   3  11
HETATM   11  O   LIG     1      19.062  39.954  20.824  1.00  0.00    -0.360 OA
HETATM   12  H   LIG     1      19.413  40.603  21.518  1.00  0.00     0.217 HD
ENDBRANCH   3  11
TORSDOF 2
ENDMDL
MODEL 6
REMARK VINA RESULT:      -6.3      1.720      4.271
REMARK  2 active torsions:
REMARK  status: ('A' for Active; 'I' for Inactive)
REMARK    1  A    between atoms: C_2  and  C_3 
REMARK    2  A    between atoms: C_5  and  O_6 
ROOT
HETATM    1  C   LIG     1      17.345  36.239  24.243  1.00  0.00    -0.052 A 
HETATM    2  C   LIG     1      17.506  37.437  23.524  1.00  0.00     0.044 A 
HETATM    3  C   LIG     1      17.427  37.447  22.123  1.00  0.00     0.072 A 
HETATM    4  C   LIG     1      17.182  36.252  21.425  1.00  0.00    -0.029 A 
HETATM    5  C   LIG     1      17.096  36.254  19.926  1.00  0.00     0.051 C 
HETATM    6  C   LIG     1      17.021  35.056  22.142  1.00  0.00     0.010 A 
HETATM    7  C   LIG     1      17.101  35.049  23.537  1.00  0.00     0.008 A 
ENDROOT
BRANCH   1   8
HETATM    8  C   LIG     1      17.430  36.216  25.758  1.00  0.00     0.010 C 
HETATM    9  C   LIG     1      17.527  34.779  26.285  1.00  0.00     0.015 C 
HETATM   10  C   LIG     1      18.604  37.065  26.259  1.00  0.00     0.015 C 
ENDBRANCH   1   8
BRANCH   3  11
HETATM   11  O   LIG     1      17.589  38.643  21.424  1.00  0.00    -0.360 OA
HETATM   12  H   LIG     1      18.054  39.443  21.839  1.00  0.00     0.217 HD
ENDBRANCH   3  11
TORSDOF 2
ENDMDL
MODEL 7
REMARK VINA RESULT:      -6.3      1.387      1.983
REMARK  2 active torsions:
REMARK  status: ('A' for Active; 'I' for Inactive)
REMARK    1  A    between atoms: C_2  and  C_3 
REMARK    2  A    between atoms: C_5  and  O_6 
ROOT
HETATM    1  C   LIG     1      16.932  36.317  22.793  1.00  0.00    -0.052 A 
HETATM    2  C   LIG     1      16.998  35.255  23.714  1.00  0.00     0.044 A 
HETATM    3  C   LIG     1      17.452  35.470  25.024  1.00  0.00     0.072 A 
HETATM    4  C   LIG     1      17.845  36.758  25.428  1.00  0.00    -0.029 A 
HETATM    5  C   LIG     1      18.331  36.997  26.828  1.00  0.00     0.051 C 
HETATM    6  C   LIG     1      17.780  37.818  24.511  1.00  0.00     0.010 A 
HETATM    7  C   LIG     1      17.327  37.600  23.207  1.00  0.00     0.008 A 
ENDROOT
BRANCH   1   8
HETATM    8  C   LIG     1      16.444  36.096  21.374  1.00  0.00     0.010 C 
HETATM    9  C   LIG     1      17.582  36.284  20.362  1.00  0.00     0.015 C 
HETATM   10  C   LIG     1      15.797  34.714  21.222  1.00  0.00     0.015 C 
ENDBRANCH   1   8
BRANCH   3  11
HETATM   11  O   LIG     1      17.511  34.407  25.925  1.00  0.00    -0.360 OA
HETATM   12  H   LIG     1      16.780  34.249  26.609  1.00  0.00     0.217 HD
ENDBRANCH   3  11
TORSDOF 2
ENDMDL
MODEL 8
REMARK VINA RESULT:      -6.0      2.744      4.794
REMARK  2 active torsions:
REMARK  status: ('A' for Active; 'I' for Inactive)
REMARK    1  A    between atoms: C_2  and  C_3 
REMARK    2  A    between atoms: C_5  and  O_6 
ROOT
HETATM    1  C   LIG     1      16.855  37.401  21.986  1.00  0.00    -0.052 A 
HETATM    2  C   LIG     1      15.625  36.760  22.219  1.00  0.00     0.044 A 
HETATM    3  C   LIG     1      15.232  35.662  21.439  1.00  0.00     0.072 A 
HETATM    4  C   LIG     1      16.072  35.192  20.415  1.00  0.00    -0.029 A 
HETATM    5  C   LIG     1      15.658  34.017  19.576  1.00  0.00     0.051 C 
HETATM    6  C   LIG     1      17.299  35.830  20.182  1.00  0.00     0.010 A 
HETATM    7  C   LIG     1      17.688  36.924  20.961  1.00  0.00     0.008 A 
ENDROOT
BRANCH   1   8
HETATM    8  C   LIG     1      17.290  38.590  22.823  1.00  0.00     0.010 C 
HETATM    9  C   LIG     1      17.653  38.160  24.250  1.00  0.00     0.015 C 
HETATM   10  C   LIG     1      18.456  39.334  22.161  1.00  0.00     0.015 C 
ENDBRANCH   1   8
BRANCH   3  11
HETATM   11  O   LIG     1      14.009  35.037  21.681  1.00  0.00    -0.360 OA
HETATM   12  H   LIG     1      13.128  35.487  21.460  1.00  0.00     0.217 HD
ENDBRANCH   3  11
TORSDOF 2
ENDMDL
MODEL 9
REMARK VINA RESULT:      -5.9      8.392     10.651
REMARK  2 active torsions:
REMARK  status: ('A' for Active; 'I' for Inactive)
REMARK    1  A    between atoms: C_2  and  C_3 
REMARK    2  A    between atoms: C_5  and  O_6 
ROOT
HETATM    1  C   LIG     1      14.511  30.246  14.637  1.00  0.00    -0.052 A 
HETATM    2  C   LIG     1      13.593  30.556  15.656  1.00  0.00     0.044 A 
HETATM    3  C   LIG     1      13.787  31.676  16.478  1.00  0.00     0.072 A 
HETATM    4  C   LIG     1      14.908  32.502  16.286  1.00  0.00    -0.029 A 
HETATM    5  C   LIG     1      15.123  33.703  17.162  1.00  0.00     0.051 C 
HETATM    6  C   LIG     1      15.825  32.194  15.270  1.00  0.00     0.010 A 
HETATM    7  C   LIG     1      15.629  31.077  14.453  1.00  0.00     0.008 A 
ENDROOT
BRANCH   1   8
HETATM    8  C   LIG     1      14.312  29.037  13.743  1.00  0.00     0.010 C 
HETATM    9  C   LIG     1      15.496  28.068  13.850  1.00  0.00     0.015 C 
HETATM   10  C   LIG     1      12.991  28.326  14.061  1.00  0.00     0.015 C 
ENDBRANCH   1   8
BRANCH   3  11
HETATM   11  O   LIG     1      12.867  31.971  17.485  1.00  0.00    -0.360 OA
HETATM   12  H   LIG     1      12.166  31.300  17.778  1.00  0.00     0.217 HD
ENDBRANCH   3  11
TORSDOF 2
ENDMDL
MODEL 10
REMARK VINA RESULT:      -5.9      2.633      4.041
REMARK  2 active torsions:
REMARK  status: ('A' for Active; 'I' for Inactive)
REMARK    1  A    between atoms: C_2  and  C_3 
REMARK    2  A    between atoms: C_5  and  O_6 
ROOT
HETATM    1  C   LIG     1      18.500  37.897  20.211  1.00  0.00    -0.052 A 
HETATM    2  C   LIG     1      18.119  38.915  21.103  1.00  0.00     0.044 A 
HETATM    3  C   LIG     1      17.307  38.628  22.211  1.00  0.00     0.072 A 
HETATM    4  C   LIG     1      16.868  37.313  22.438  1.00  0.00    -0.029 A 
HETATM    5  C   LIG     1      15.999  36.998  23.622  1.00  0.00     0.051 C 
HETATM    6  C   LIG     1      17.247  36.296  21.548  1.00  0.00     0.010 A 
HETATM    7  C   LIG     1      18.056  36.585  20.446  1.00  0.00     0.008 A 
ENDROOT
BRANCH   1   8
HETATM    8  C   LIG     1      19.377  38.195  19.009  1.00  0.00     0.010 C 
HETATM    9  C   LIG     1      18.713  39.219  18.080  1.00  0.00     0.015 C 
HETATM   10  C   LIG     1      20.768  38.670  19.444  1.00  0.00     0.015 C 
ENDBRANCH   1   8
BRANCH   3  11
HETATM   11  O   LIG     1      16.938  39.649  23.088  1.00  0.00    -0.360 OA
HETATM   12  H   LIG     1      15.977  39.774  23.383  1.00  0.00     0.217 HD
ENDBRANCH   3  11
TORSDOF 2
ENDMDL
MODEL 11
REMARK VINA RESULT:      -5.9      7.894     10.107
REMARK  2 active torsions:
REMARK  status: ('A' for Active; 'I' for Inactive)
REMARK    1  A    between atoms: C_2  and  C_3 
REMARK    2  A    between atoms: C_5  and  O_6 
ROOT
HETATM    1  C   LIG     1      14.593  30.760  14.952  1.00  0.00    -0.052 A 
HETATM    2  C   LIG     1      15.683  31.637  14.805  1.00  0.00     0.044 A 
HETATM    3  C   LIG     1      15.882  32.689  15.711  1.00  0.00     0.072 A 
HETATM    4  C   LIG     1      14.988  32.874  16.780  1.00  0.00    -0.029 A 
HETATM    5  C   LIG     1      15.194  33.998  17.754  1.00  0.00     0.051 C 
HETATM    6  C   LIG     1      13.900  32.000  16.928  1.00  0.00     0.010 A 
HETATM    7  C   LIG     1      13.705  30.952  16.023  1.00  0.00     0.008 A 
ENDROOT
BRANCH   1   8
HETATM    8  C   LIG     1      14.367  29.619  13.977  1.00  0.00     0.010 C 
HETATM    9  C   LIG     1      15.530  28.620  14.017  1.00  0.00     0.015 C 
HETATM   10  C   LIG     1      13.031  28.918  14.248  1.00  0.00     0.015 C 
ENDBRANCH   1   8
BRANCH   3  11
HETATM   11  O   LIG     1      16.968  33.551  15.552  1.00  0.00    -0.360 OA
HETATM   12  H   LIG     1      17.363  34.058  16.335  1.00  0.00     0.217 HD
ENDBRANCH   3  11
TORSDOF 2
ENDMDL
MODEL 12
REMARK VINA RESULT:      -5.8      8.900     11.322
REMARK  2 active torsions:
REMARK  status: ('A' for Active; 'I' for Inactive)
REMARK    1  A    between atoms: C_2  and  C_3 
REMARK    2  A    between atoms: C_5  and  O_6 
ROOT
HETATM    1  C   LIG     1      15.082  31.609  15.605  1.00  0.00    -0.052 A 
HETATM    2  C   LIG     1      15.599  30.818  14.563  1.00  0.00     0.044 A 
HETATM    3  C   LIG     1      14.843  29.771  14.016  1.00  0.00     0.072 A 
HETATM    4  C   LIG     1      13.554  29.504  14.507  1.00  0.00    -0.029 A 
HETATM    5  C   LIG     1      12.738  28.385  13.926  1.00  0.00     0.051 C 
HETATM    6  C   LIG     1      13.036  30.292  15.547  1.00  0.00     0.010 A 
HETATM    7  C   LIG     1      13.792  31.335  16.090  1.00  0.00     0.008 A 
ENDROOT
BRANCH   1   8
HETATM    8  C   LIG     1      15.890  32.743  16.205  1.00  0.00     0.010 C 
HETATM    9  C   LIG     1      16.852  33.344  15.173  1.00  0.00     0.015 C 
HETATM   10  C   LIG     1      14.975  33.822  16.797  1.00  0.00     0.015 C 
ENDBRANCH   1   8
BRANCH   3  11
HETATM   11  O   LIG     1      15.371  28.996  12.982  1.00  0.00    -0.360 OA
HETATM   12  H   LIG     1      16.360  29.005  12.763  1.00  0.00     0.217 HD
ENDBRANCH   3  11
TORSDOF 2
ENDMDL
MODEL 13
REMARK VINA RESULT:      -5.7      8.502     10.871
REMARK  2 active torsions:
REMARK  status: ('A' for Active; 'I' for Inactive)
REMARK    1  A    between atoms: C_2  and  C_3 
REMARK    2  A    between atoms: C_5  and  O_6 
ROOT
HETATM    1  C   LIG     1      15.399  31.865  15.482  1.00  0.00    -0.052 A 
HETATM    2  C   LIG     1      14.250  31.513  16.213  1.00  0.00     0.044 A 
HETATM    3  C   LIG     1      13.406  30.485  15.769  1.00  0.00     0.072 A 
HETATM    4  C   LIG     1      13.706  29.793  14.583  1.00  0.00    -0.029 A 
HETATM    5  C   LIG     1      12.808  28.690  14.101  1.00  0.00     0.051 C 
HETATM    6  C   LIG     1      14.852  30.142  13.852  1.00  0.00     0.010 A 
HETATM    7  C   LIG     1      15.691  31.167  14.297  1.00  0.00     0.008 A 
ENDROOT
BRANCH   1   8
HETATM    8  C   LIG     1      16.319  32.976  15.952  1.00  0.00     0.010 C 
HETATM    9  C   LIG     1      17.215  33.473  14.810  1.00  0.00     0.015 C 
HETATM   10  C   LIG     1      15.520  34.132  16.566  1.00  0.00     0.015 C 
ENDBRANCH   1   8
BRANCH   3  11
HETATM   11  O   LIG     1      12.270  30.148  16.505  1.00  0.00    -0.360 OA
HETATM   12  H   LIG     1      11.676  29.370  16.241  1.00  0.00     0.217 HD
ENDBRANCH   3  11
TORSDOF 2
ENDMDL
MODEL 14
REMARK VINA RESULT:      -5.7      9.079     10.385
REMARK  2 active torsions:
REMARK  status: ('A' for Active; 'I' for Inactive)
REMARK    1  A    between atoms: C_2  and  C_3 
REMARK    2  A    between atoms: C_5  and  O_6 
ROOT
HETATM    1  C   LIG     1      15.002  31.555  15.243  1.00  0.00    -0.052 A 
HETATM    2  C   LIG     1      15.500  32.722  15.849  1.00  0.00     0.044 A 
HETATM    3  C   LIG     1      16.487  33.492  15.215  1.00  0.00     0.072 A 
HETATM    4  C   LIG     1      16.987  33.099  13.962  1.00  0.00    -0.029 A 
HETATM    5  C   LIG     1      18.044  33.918  13.277  1.00  0.00     0.051 C 
HETATM    6  C   LIG     1      16.492  31.934  13.356  1.00  0.00     0.010 A 
HETATM    7  C   LIG     1      15.508  31.170  13.990  1.00  0.00     0.008 A 
ENDROOT
BRANCH   1   8
HETATM    8  C   LIG     1      13.936  30.714  15.919  1.00  0.00     0.010 C 
HETATM    9  C   LIG     1      12.963  31.591  16.716  1.00  0.00     0.015 C 
HETATM   10  C   LIG     1      13.185  29.848  14.899  1.00  0.00     0.015 C 
ENDBRANCH   1   8
BRANCH   3  11
HETATM   11  O   LIG     1      16.971  34.648  15.829  1.00  0.00    -0.360 OA
HETATM   12  H   LIG     1      16.587  35.562  15.619  1.00  0.00     0.217 HD
ENDBRANCH   3  11
TORSDOF 2
ENDMDL
MODEL 15
REMARK VINA RESULT:      -5.6      3.207      4.080
REMARK  2 active torsions:
REMARK  status: ('A' for Active; 'I' for Inactive)
REMARK    1  A    between atoms: C_2  and  C_3 
REMARK    2  A    between atoms: C_5  and  O_6 
ROOT
HETATM    1  C   LIG     1      16.712  35.851  20.853  1.00  0.00    -0.052 A 
HETATM    2  C   LIG     1      17.798  36.328  20.097  1.00  0.00     0.044 A 
HETATM    3  C   LIG     1      18.436  37.529  20.440  1.00  0.00     0.072 A 
HETATM    4  C   LIG     1      17.992  38.269  21.549  1.00  0.00    -0.029 A 
HETATM    5  C   LIG     1      18.669  39.556  21.923  1.00  0.00     0.051 C 
HETATM    6  C   LIG     1      16.908  37.794  22.304  1.00  0.00     0.010 A 
HETATM    7  C   LIG     1      16.275  36.597  21.960  1.00  0.00     0.008 A 
ENDROOT
BRANCH   1   8
HETATM    8  C   LIG     1      16.014  34.554  20.491  1.00  0.00     0.010 C 
HETATM    9  C   LIG     1      14.842  34.272  21.439  1.00  0.00     0.015 C 
HETATM   10  C   LIG     1      15.548  34.566  19.030  1.00  0.00     0.015 C 
ENDBRANCH   1   8
BRANCH   3  11
HETATM   11  O   LIG     1      19.512  37.989  19.680  1.00  0.00    -0.360 OA
HETATM   12  H   LIG     1      20.439  37.588  19.773  1.00  0.00     0.217 HD
ENDBRANCH   3  11
TORSDOF 2
ENDMDL
MODEL 16
REMARK VINA RESULT:      -5.6      8.771      9.997
REMARK  2 active torsions:
REMARK  status: ('A' for Active; 'I' for Inactive)
REMARK    1  A    between atoms: C_2  and  C_3 
REMARK    2  A    between atoms: C_5  and  O_6 
ROOT
HETATM    1  C   LIG     1      16.293  32.508  14.984  1.00  0.00    -0.052 A 
HETATM    2  C   LIG     1      15.633  32.832  16.183  1.00  0.00     0.044 A 
HETATM    3  C   LIG     1      14.504  32.108  16.597  1.00  0.00     0.072 A 
HETATM    4  C   LIG     1      14.024  31.046  15.810  1.00  0.00    -0.029 A 
HETATM    5  C   LIG     1      12.817  30.267  16.246  1.00  0.00     0.051 C 
HETATM    6  C   LIG     1      14.681  30.723  14.613  1.00  0.00     0.010 A 
HETATM    7  C   LIG     1      15.805  31.446  14.204  1.00  0.00     0.008 A 
ENDROOT
BRANCH   1   8
HETATM    8  C   LIG     1      17.513  33.285  14.526  1.00  0.00     0.010 C 
HETATM    9  C   LIG     1      17.695  33.184  13.006  1.00  0.00     0.015 C 
HETATM   10  C   LIG     1      17.437  34.749  14.974  1.00  0.00     0.015 C 
ENDBRANCH   1   8
BRANCH   3  11
HETATM   11  O   LIG     1      13.861  32.441  17.789  1.00  0.00    -0.360 OA
HETATM   12  H   LIG     1      13.082  31.897  18.142  1.00  0.00     0.217 HD
ENDBRANCH   3  11
TORSDOF 2
ENDMDL
MODEL 17
REMARK VINA RESULT:      -5.4      7.161      9.817
REMARK  2 active torsions:
REMARK  status: ('A' for Active; 'I' for Inactive)
REMARK    1  A    between atoms: C_2  and  C_3 
REMARK    2  A    between atoms: C_5  and  O_6 
ROOT
HETATM    1  C   LIG     1      14.943  32.328  17.155  1.00  0.00    -0.052 A 
HETATM    2  C   LIG     1      15.951  32.629  16.221  1.00  0.00     0.044 A 
HETATM    3  C   LIG     1      16.023  31.944  14.999  1.00  0.00     0.072 A 
HETATM    4  C   LIG     1      15.081  30.945  14.698  1.00  0.00    -0.029 A 
HETATM    5  C   LIG     1      15.151  30.207  13.392  1.00  0.00     0.051 C 
HETATM    6  C   LIG     1      14.075  30.643  15.629  1.00  0.00     0.010 A 
HETATM    7  C   LIG     1      14.006  31.329  16.845  1.00  0.00     0.008 A 
ENDROOT
BRANCH   1   8
HETATM    8  C   LIG     1      14.857  33.062  18.480  1.00  0.00     0.010 C 
HETATM    9  C   LIG     1      15.509  32.251  19.606  1.00  0.00     0.015 C 
HETATM   10  C   LIG     1      15.479  34.460  18.378  1.00  0.00     0.015 C 
ENDBRANCH   1   8
BRANCH   3  11
HETATM   11  O   LIG     1      17.028  32.254  14.083  1.00  0.00    -0.360 OA
HETATM   12  H   LIG     1      17.773  32.903  14.310  1.00  0.00     0.217 HD
ENDBRANCH   3  11
TORSDOF 2
ENDMDL
MODEL 18
REMARK VINA RESULT:      -5.3      4.591      6.971
REMARK  2 active torsions:
REMARK  status: ('A' for Active; 'I' for Inactive)
REMARK    1  A    between atoms: C_2  and  C_3 
REMARK    2  A    between atoms: C_5  and  O_6 
ROOT
HETATM    1  C   LIG     1      15.668  34.288  19.992  1.00  0.00    -0.052 A 
HETATM    2  C   LIG     1      15.288  32.955  20.232  1.00  0.00     0.044 A 
HETATM    3  C   LIG     1      14.860  32.132  19.179  1.00  0.00     0.072 A 
HETATM    4  C   LIG     1      14.810  32.638  17.869  1.00  0.00    -0.029 A 
HETATM    5  C   LIG     1      14.353  31.763  16.737  1.00  0.00     0.051 C 
HETATM    6  C   LIG     1      15.189  33.967  17.628  1.00  0.00     0.010 A 
HETATM    7  C   LIG     1      15.615  34.784  18.679  1.00  0.00     0.008 A 
ENDROOT
BRANCH   1   8
HETATM    8  C   LIG     1      16.131  35.187  21.123  1.00  0.00     0.010 C 
HETATM    9  C   LIG     1      17.347  36.023  20.702  1.00  0.00     0.015 C 
HETATM   10  C   LIG     1      14.991  36.086  21.617  1.00  0.00     0.015 C 
ENDBRANCH   1   8
BRANCH   3  11
HETATM   11  O   LIG     1      14.486  30.812  19.433  1.00  0.00    -0.360 OA
HETATM   12  H   LIG     1      13.747  30.358  18.908  1.00  0.00     0.217 HD
ENDBRANCH   3  11
TORSDOF 2
ENDMDL
MODEL 19
REMARK VINA RESULT:      -5.3      2.713      4.514
REMARK  2 active torsions:
REMARK  status: ('A' for Active; 'I' for Inactive)
REMARK    1  A    between atoms: C_2  and  C_3 
REMARK    2  A    between atoms: C_5  and  O_6 
ROOT
HETATM    1  C   LIG     1      17.397  37.028  22.510  1.00  0.00    -0.052 A 
HETATM    2  C   LIG     1      17.426  36.981  21.104  1.00  0.00     0.044 A 
HETATM    3  C   LIG     1      16.893  35.882  20.414  1.00  0.00     0.072 A 
HETATM    4  C   LIG     1      16.322  34.814  21.128  1.00  0.00    -0.029 A 
HETATM    5  C   LIG     1      15.750  33.634  20.397  1.00  0.00     0.051 C 
HETATM    6  C   LIG     1      16.293  34.860  22.531  1.00  0.00     0.010 A 
HETATM    7  C   LIG     1      16.824  35.957  23.215  1.00  0.00     0.008 A 
ENDROOT
BRANCH   1   8
HETATM    8  C   LIG     1      17.971  38.211  23.266  1.00  0.00     0.010 C 
HETATM    9  C   LIG     1      17.686  39.528  22.534  1.00  0.00     0.015 C 
HETATM   10  C   LIG     1      17.442  38.257  24.705  1.00  0.00     0.015 C 
ENDBRANCH   1   8
BRANCH   3  11
HETATM   11  O   LIG     1      16.929  35.849  19.020  1.00  0.00    -0.360 OA
HETATM   12  H   LIG     1      16.368  36.480  18.459  1.00  0.00     0.217 HD
ENDBRANCH   3  11
TORSDOF 2
ENDMDL
MODEL 20
REMARK VINA RESULT:      -5.2      9.341     11.890
REMARK  2 active torsions:
REMARK  status: ('A' for Active; 'I' for Inactive)
REMARK    1  A    between atoms: C_2  and  C_3 
REMARK    2  A    between atoms: C_5  and  O_6 
ROOT
HETATM    1  C   LIG     1      14.385  30.942  15.453  1.00  0.00    -0.052 A 
HETATM    2  C   LIG     1      13.278  30.118  15.181  1.00  0.00     0.044 A 
HETATM    3  C   LIG     1      13.414  28.984  14.365  1.00  0.00     0.072 A 
HETATM    4  C   LIG     1      14.665  28.662  13.813  1.00  0.00    -0.029 A 
HETATM    5  C   LIG     1      14.819  27.451  12.939  1.00  0.00     0.051 C 
HETATM    6  C   LIG     1      15.771  29.484  14.083  1.00  0.00     0.010 A 
HETATM    7  C   LIG     1      15.632  30.612  14.897  1.00  0.00     0.008 A 
ENDROOT
BRANCH   1   8
HETATM    8  C   LIG     1      14.250  32.171  16.333  1.00  0.00     0.010 C 
HETATM    9  C   LIG     1      14.070  31.780  17.805  1.00  0.00     0.015 C 
HETATM   10  C   LIG     1      15.449  33.111  16.157  1.00  0.00     0.015 C 
ENDBRANCH   1   8
BRANCH   3  11
HETATM   11  O   LIG     1      12.307  28.177  14.104  1.00  0.00    -0.360 OA
HETATM   12  H   LIG     1      11.391  28.571  13.923  1.00  0.00     0.217 HD
ENDBRANCH   3  11
TORSDOF 2
ENDMDL
