REMARK  5 active torsions:
REMARK  status: ('A' for Active; 'I' for Inactive)
REMARK    1  A    between atoms: C_13  and  O_14 
REMARK    2  A    between atoms: C_22  and  C_24 
REMARK    3  A    between atoms: C_22  and  O_23 
REMARK    4  A    between atoms: C_24  and  C_25 
REMARK    5  A    between atoms: C_25  and  O_26 
ROOT
HETATM    1  O   LIG     1      -5.675   2.791   0.734  1.00  0.00    -0.289 OA
HETATM    2  C   LIG     1      -4.755   2.015   0.361  1.00  0.00     0.172 C 
HETATM    3  C   LIG     1      -3.959   2.330  -0.826  1.00  0.00     0.052 C 
HETATM    4  C   LIG     1      -3.045   1.468  -1.277  1.00  0.00    -0.006 C 
HETATM    5  C   LIG     1      -2.902   0.055  -0.712  1.00  0.00     0.036 C 
HETATM    6  C   LIG     1      -3.720  -0.862  -1.651  1.00  0.00     0.028 C 
HETATM    7  C   LIG     1      -3.522  -0.059   0.702  1.00  0.00    -0.061 C 
HETATM    8  C   LIG     1      -2.937  -1.073   1.669  1.00  0.00     0.036 C 
HETATM    9  C   LIG     1      -1.429  -0.806   1.913  1.00  0.00     0.013 C 
HETATM   10  C   LIG     1      -0.788   0.001   0.756  1.00  0.00     0.035 C 
HETATM   11  C   LIG     1      -1.387  -0.428  -0.629  1.00  0.00     0.147 C 
HETATM   12  F   LIG     1      -1.428  -1.812  -0.690  1.00  0.00    -0.238 F 
HETATM   13  C   LIG     1      -0.429   0.000  -1.789  1.00  0.00     0.160 C 
HETATM   14  C   LIG     1       0.961  -0.714  -1.671  1.00  0.00     0.048 C 
HETATM   15  C   LIG     1       1.509  -0.867  -0.195  1.00  0.00     0.001 C 
HETATM   16  C   LIG     1       1.331  -2.355   0.269  1.00  0.00     0.019 C 
HETATM   17  C   LIG     1       0.764   0.097   0.738  1.00  0.00     0.005 C 
HETATM   18  C   LIG     1       1.557   0.123   2.034  1.00  0.00     0.013 C 
HETATM   19  C   LIG     1       3.032   0.046   1.565  1.00  0.00     0.025 C 
HETATM   20  C   LIG     1       3.878  -0.810   2.523  1.00  0.00     0.013 C 
HETATM   21  C   LIG     1       3.020  -0.446   0.061  1.00  0.00     0.131 C 
HETATM   22  C   LIG     1      -4.430   0.824   1.148  1.00  0.00     0.058 C 
ENDROOT
BRANCH  21  23
HETATM   23  C   LIG     1       3.542   0.662  -0.885  1.00  0.00     0.185 C 
HETATM   24  O   LIG     1       4.314   0.349  -1.781  1.00  0.00    -0.292 OA
BRANCH  23  25
HETATM   25  C   LIG     1       3.162   2.127  -0.801  1.00  0.00     0.245 C 
BRANCH  25  26
HETATM   26  O   LIG     1       4.311   2.926  -0.870  1.00  0.00    -0.393 OA
HETATM   27  H   LIG     1       4.769   2.840   0.008  1.00  0.00     0.209 HD
ENDBRANCH  25  26
ENDBRANCH  23  25
ENDBRANCH  21  23
BRANCH  21  28
HETATM   28  O   LIG     1       3.879  -1.562  -0.075  1.00  0.00    -0.381 OA
HETATM   29  H   LIG     1       3.765  -1.927  -0.992  1.00  0.00     0.211 HD
ENDBRANCH  21  28
BRANCH  13  30
HETATM   30  O   LIG     1      -0.233   1.393  -1.788  1.00  0.00    -0.392 OA
HETATM   31  H   LIG     1       0.101   1.638  -2.691  1.00  0.00     0.210 HD
ENDBRANCH  13  30
TORSDOF 5
