MODEL 1
REMARK VINA RESULT:      -5.6      0.000      0.000
REMARK  5 active torsions:
REMARK  status: ('A' for Active; 'I' for Inactive)
REMARK    1  A    between atoms: C_14  and  C_16 
REMARK    2  A    between atoms: C_14  and  O_15 
REMARK    3  A    between atoms: C_16  and  C_17 
REMARK    4  A    between atoms: C_17  and  O_18 
REMARK    5  A    between atoms: O_18  and  C_19 
ROOT
HETATM    1  O   LIG     1      26.991  32.553  37.713  1.00  0.00    -0.293 OA
HETATM    2  C   LIG     1      27.199  31.541  36.995  1.00  0.00     0.149 C 
HETATM    3  C   LIG     1      26.064  30.610  36.683  1.00  0.00     0.084 C 
HETATM    4  C   LIG     1      26.375  29.724  35.468  1.00  0.00     0.022 C 
HETATM    5  C   LIG     1      27.794  29.075  35.541  1.00  0.00    -0.009 C 
HETATM    6  C   LIG     1      27.858  28.083  36.730  1.00  0.00     0.021 C 
HETATM    7  C   LIG     1      28.847  30.173  35.786  1.00  0.00    -0.067 C 
HETATM    8  C   LIG     1      30.213  30.039  35.127  1.00  0.00     0.035 C 
HETATM    9  C   LIG     1      30.105  29.855  33.590  1.00  0.00     0.010 C 
HETATM   10  C   LIG     1      28.703  29.366  33.157  1.00  0.00     0.003 C 
HETATM   11  C   LIG     1      28.547  28.905  31.680  1.00  0.00     0.002 C 
HETATM   12  C   LIG     1      29.457  29.493  30.605  1.00  0.00     0.009 C 
HETATM   13  C   LIG     1      29.341  28.518  29.420  1.00  0.00     0.047 C 
HETATM   14  C   LIG     1      28.400  27.357  29.869  1.00  0.00     0.128 C 
HETATM   15  C   LIG     1      28.540  27.390  31.434  1.00  0.00     0.005 C 
HETATM   16  C   LIG     1      29.885  26.710  31.864  1.00  0.00     0.019 C 
HETATM   17  C   LIG     1      27.340  26.770  32.213  1.00  0.00     0.091 C 
HETATM   18  C   LIG     1      27.161  27.347  33.609  1.00  0.00     0.133 C 
HETATM   19  C   LIG     1      28.170  28.332  34.200  1.00  0.00     0.072 C 
HETATM   20  O   LIG     1      26.249  26.913  34.293  1.00  0.00    -0.297 OA
HETATM   21  C   LIG     1      28.557  31.279  36.491  1.00  0.00     0.053 C 
ENDROOT
BRANCH  14  22
HETATM   22  C   LIG     1      28.738  26.000  29.243  1.00  0.00     0.185 C 
HETATM   23  O   LIG     1      29.755  25.889  28.573  1.00  0.00    -0.292 OA
BRANCH  22  24
HETATM   24  C   LIG     1      27.936  24.755  29.521  1.00  0.00     0.260 C 
BRANCH  24  25
HETATM   25  O   LIG     1      26.664  24.862  28.890  1.00  0.00    -0.314 OA
BRANCH  25  26
HETATM   26  C   LIG     1      26.299  24.083  27.789  1.00  0.00     0.255 C 
HETATM   27  C   LIG     1      26.356  24.675  26.421  1.00  0.00     0.126 C 
HETATM   28  O   LIG     1      25.900  22.896  27.944  1.00  0.00    -0.266 OA
ENDBRANCH  25  26
ENDBRANCH  24  25
ENDBRANCH  22  24
ENDBRANCH  14  22
BRANCH  14  29
HETATM   29  O   LIG     1      27.077  27.684  29.504  1.00  0.00    -0.381 OA
HETATM   30  H   LIG     1      27.069  28.625  29.184  1.00  0.00     0.211 HD
ENDBRANCH  14  29
TORSDOF 5
ENDMDL
MODEL 2
REMARK VINA RESULT:      -5.2      4.620     11.761
REMARK  5 active torsions:
REMARK  status: ('A' for Active; 'I' for Inactive)
REMARK    1  A    between atoms: C_14  and  C_16 
REMARK    2  A    between atoms: C_14  and  O_15 
REMARK    3  A    between atoms: C_16  and  C_17 
REMARK    4  A    between atoms: C_17  and  O_18 
REMARK    5  A    between atoms: O_18  and  C_19 
ROOT
HETATM    1  O   LIG     1      27.295  24.707  17.448  1.00  0.00    -0.293 OA
HETATM    2  C   LIG     1      27.616  24.668  18.665  1.00  0.00     0.149 C 
HETATM    3  C   LIG     1      27.855  25.950  19.407  1.00  0.00     0.084 C 
HETATM    4  C   LIG     1      27.783  25.747  20.927  1.00  0.00     0.022 C 
HETATM    5  C   LIG     1      28.608  24.510  21.410  1.00  0.00    -0.009 C 
HETATM    6  C   LIG     1      30.117  24.751  21.154  1.00  0.00     0.021 C 
HETATM    7  C   LIG     1      28.185  23.267  20.604  1.00  0.00    -0.067 C 
HETATM    8  C   LIG     1      28.147  21.916  21.305  1.00  0.00     0.035 C 
HETATM    9  C   LIG     1      27.265  21.945  22.581  1.00  0.00     0.010 C 
HETATM   10  C   LIG     1      27.045  23.382  23.108  1.00  0.00     0.003 C 
HETATM   11  C   LIG     1      26.394  23.522  24.513  1.00  0.00     0.002 C 
HETATM   12  C   LIG     1      25.461  22.428  25.026  1.00  0.00     0.009 C 
HETATM   13  C   LIG     1      25.384  22.662  26.545  1.00  0.00     0.047 C 
HETATM   14  C   LIG     1      26.325  23.862  26.875  1.00  0.00     0.128 C 
HETATM   15  C   LIG     1      27.343  23.837  25.678  1.00  0.00     0.005 C 
HETATM   16  C   LIG     1      28.404  22.706  25.903  1.00  0.00     0.019 C 
HETATM   17  C   LIG     1      28.047  25.198  25.386  1.00  0.00     0.091 C 
HETATM   18  C   LIG     1      28.489  25.353  23.939  1.00  0.00     0.133 C 
HETATM   19  C   LIG     1      28.364  24.203  22.939  1.00  0.00     0.072 C 
HETATM   20  O   LIG     1      29.056  26.386  23.624  1.00  0.00    -0.297 OA
HETATM   21  C   LIG     1      27.770  23.365  19.330  1.00  0.00     0.053 C 
ENDROOT
BRANCH  14  22
HETATM   22  C   LIG     1      26.986  23.778  28.255  1.00  0.00     0.185 C 
HETATM   23  O   LIG     1      26.915  22.734  28.887  1.00  0.00    -0.292 OA
BRANCH  22  24
HETATM   24  C   LIG     1      27.833  24.890  28.819  1.00  0.00     0.260 C 
BRANCH  24  25
HETATM   25  O   LIG     1      27.074  26.094  28.846  1.00  0.00    -0.314 OA
BRANCH  25  26
HETATM   26  C   LIG     1      27.322  27.123  29.759  1.00  0.00     0.255 C 
HETATM   27  C   LIG     1      28.297  28.195  29.405  1.00  0.00     0.126 C 
HETATM   28  O   LIG     1      26.751  27.139  30.883  1.00  0.00    -0.266 OA
ENDBRANCH  25  26
ENDBRANCH  24  25
ENDBRANCH  22  24
ENDBRANCH  14  22
BRANCH  14  29
HETATM   29  O   LIG     1      25.569  25.053  26.829  1.00  0.00    -0.381 OA
HETATM   30  H   LIG     1      24.801  24.954  27.453  1.00  0.00     0.211 HD
ENDBRANCH  14  29
TORSDOF 5
ENDMDL
MODEL 3
REMARK VINA RESULT:      -5.2     10.403     14.908
REMARK  5 active torsions:
REMARK  status: ('A' for Active; 'I' for Inactive)
REMARK    1  A    between atoms: C_14  and  C_16 
REMARK    2  A    between atoms: C_14  and  O_15 
REMARK    3  A    between atoms: C_16  and  C_17 
REMARK    4  A    between atoms: C_17  and  O_18 
REMARK    5  A    between atoms: O_18  and  C_19 
ROOT
HETATM    1  O   LIG     1      29.635  26.851  15.659  1.00  0.00    -0.293 OA
HETATM    2  C   LIG     1      29.195  26.122  16.587  1.00  0.00     0.149 C 
HETATM    3  C   LIG     1      28.851  26.740  17.910  1.00  0.00     0.084 C 
HETATM    4  C   LIG     1      27.931  25.830  18.738  1.00  0.00     0.022 C 
HETATM    5  C   LIG     1      28.426  24.349  18.780  1.00  0.00    -0.009 C 
HETATM    6  C   LIG     1      29.778  24.266  19.532  1.00  0.00     0.021 C 
HETATM    7  C   LIG     1      28.655  23.845  17.342  1.00  0.00    -0.067 C 
HETATM    8  C   LIG     1      28.334  22.393  17.013  1.00  0.00     0.035 C 
HETATM    9  C   LIG     1      26.877  22.017  17.395  1.00  0.00     0.010 C 
HETATM   10  C   LIG     1      26.272  22.995  18.429  1.00  0.00     0.003 C 
HETATM   11  C   LIG     1      24.919  22.581  19.076  1.00  0.00     0.002 C 
HETATM   12  C   LIG     1      23.959  21.678  18.307  1.00  0.00     0.009 C 
HETATM   13  C   LIG     1      22.999  21.130  19.377  1.00  0.00     0.047 C 
HETATM   14  C   LIG     1      23.469  21.696  20.753  1.00  0.00     0.128 C 
HETATM   15  C   LIG     1      24.989  22.000  20.495  1.00  0.00     0.005 C 
HETATM   16  C   LIG     1      25.816  20.670  20.553  1.00  0.00     0.019 C 
HETATM   17  C   LIG     1      25.613  23.074  21.437  1.00  0.00     0.091 C 
HETATM   18  C   LIG     1      26.795  23.807  20.822  1.00  0.00     0.133 C 
HETATM   19  C   LIG     1      27.370  23.396  19.466  1.00  0.00     0.072 C 
HETATM   20  O   LIG     1      27.350  24.661  21.494  1.00  0.00    -0.297 OA
HETATM   21  C   LIG     1      29.046  24.676  16.361  1.00  0.00     0.053 C 
ENDROOT
BRANCH  14  22
HETATM   22  C   LIG     1      23.215  20.758  21.937  1.00  0.00     0.185 C 
HETATM   23  O   LIG     1      22.990  19.575  21.722  1.00  0.00    -0.292 OA
BRANCH  22  24
HETATM   24  C   LIG     1      23.354  21.202  23.370  1.00  0.00     0.260 C 
BRANCH  24  25
HETATM   25  O   LIG     1      24.595  20.736  23.890  1.00  0.00    -0.314 OA
BRANCH  25  26
HETATM   26  C   LIG     1      25.348  21.465  24.815  1.00  0.00     0.255 C 
HETATM   27  C   LIG     1      24.981  22.882  25.103  1.00  0.00     0.126 C 
HETATM   28  O   LIG     1      26.344  20.945  25.388  1.00  0.00    -0.266 OA
ENDBRANCH  25  26
ENDBRANCH  24  25
ENDBRANCH  22  24
ENDBRANCH  14  22
BRANCH  14  29
HETATM   29  O   LIG     1      22.780  22.903  21.002  1.00  0.00    -0.381 OA
HETATM   30  H   LIG     1      23.211  23.620  20.464  1.00  0.00     0.211 HD
ENDBRANCH  14  29
TORSDOF 5
ENDMDL
MODEL 4
REMARK VINA RESULT:      -5.1      8.161     12.153
REMARK  5 active torsions:
REMARK  status: ('A' for Active; 'I' for Inactive)
REMARK    1  A    between atoms: C_14  and  C_16 
REMARK    2  A    between atoms: C_14  and  O_15 
REMARK    3  A    between atoms: C_16  and  C_17 
REMARK    4  A    between atoms: C_17  and  O_18 
REMARK    5  A    between atoms: O_18  and  C_19 
ROOT
HETATM    1  O   LIG     1      27.347  21.450  29.875  1.00  0.00    -0.293 OA
HETATM    2  C   LIG     1      26.998  21.833  28.728  1.00  0.00     0.149 C 
HETATM    3  C   LIG     1      28.039  22.326  27.766  1.00  0.00     0.084 C 
HETATM    4  C   LIG     1      27.525  22.314  26.319  1.00  0.00     0.022 C 
HETATM    5  C   LIG     1      26.105  22.950  26.178  1.00  0.00    -0.009 C 
HETATM    6  C   LIG     1      26.168  24.460  26.521  1.00  0.00     0.021 C 
HETATM    7  C   LIG     1      25.142  22.279  27.177  1.00  0.00    -0.067 C 
HETATM    8  C   LIG     1      23.693  22.061  26.766  1.00  0.00     0.035 C 
HETATM    9  C   LIG     1      23.577  21.274  25.432  1.00  0.00     0.010 C 
HETATM   10  C   LIG     1      24.883  21.328  24.606  1.00  0.00     0.003 C 
HETATM   11  C   LIG     1      24.811  20.795  23.147  1.00  0.00     0.002 C 
HETATM   12  C   LIG     1      23.783  19.727  22.782  1.00  0.00     0.009 C 
HETATM   13  C   LIG     1      23.692  19.782  21.247  1.00  0.00     0.047 C 
HETATM   14  C   LIG     1      24.638  20.928  20.769  1.00  0.00     0.128 C 
HETATM   15  C   LIG     1      24.721  21.852  22.037  1.00  0.00     0.005 C 
HETATM   16  C   LIG     1      23.423  22.724  22.148  1.00  0.00     0.019 C 
HETATM   17  C   LIG     1      25.992  22.753  22.111  1.00  0.00     0.091 C 
HETATM   18  C   LIG     1      26.389  23.126  23.531  1.00  0.00     0.133 C 
HETATM   19  C   LIG     1      25.514  22.752  24.727  1.00  0.00     0.072 C 
HETATM   20  O   LIG     1      27.370  23.836  23.681  1.00  0.00    -0.297 OA
HETATM   21  C   LIG     1      25.574  21.809  28.360  1.00  0.00     0.053 C 
ENDROOT
BRANCH  14  22
HETATM   22  C   LIG     1      24.161  21.648  19.504  1.00  0.00     0.185 C 
HETATM   23  O   LIG     1      24.911  22.438  18.949  1.00  0.00    -0.292 OA
BRANCH  22  24
HETATM   24  C   LIG     1      22.848  21.332  18.836  1.00  0.00     0.260 C 
BRANCH  24  25
HETATM   25  O   LIG     1      23.061  20.379  17.801  1.00  0.00    -0.314 OA
BRANCH  25  26
HETATM   26  C   LIG     1      22.167  19.337  17.537  1.00  0.00     0.255 C 
HETATM   27  C   LIG     1      22.044  18.213  18.510  1.00  0.00     0.126 C 
HETATM   28  O   LIG     1      21.483  19.329  16.477  1.00  0.00    -0.266 OA
ENDBRANCH  25  26
ENDBRANCH  24  25
ENDBRANCH  22  24
ENDBRANCH  14  22
BRANCH  14  29
HETATM   29  O   LIG     1      25.910  20.377  20.500  1.00  0.00    -0.381 OA
HETATM   30  H   LIG     1      26.431  20.375  21.347  1.00  0.00     0.211 HD
ENDBRANCH  14  29
TORSDOF 5
ENDMDL
MODEL 5
REMARK VINA RESULT:      -5.1      6.501     10.895
REMARK  5 active torsions:
REMARK  status: ('A' for Active; 'I' for Inactive)
REMARK    1  A    between atoms: C_14  and  C_16 
REMARK    2  A    between atoms: C_14  and  O_15 
REMARK    3  A    between atoms: C_16  and  C_17 
REMARK    4  A    between atoms: C_17  and  O_18 
REMARK    5  A    between atoms: O_18  and  C_19 
ROOT
HETATM    1  O   LIG     1      28.010  26.151  28.981  1.00  0.00    -0.293 OA
HETATM    2  C   LIG     1      27.855  25.481  27.926  1.00  0.00     0.149 C 
HETATM    3  C   LIG     1      26.487  24.986  27.561  1.00  0.00     0.084 C 
HETATM    4  C   LIG     1      26.400  24.604  26.076  1.00  0.00     0.022 C 
HETATM    5  C   LIG     1      27.598  23.717  25.610  1.00  0.00    -0.009 C 
HETATM    6  C   LIG     1      27.552  22.347  26.332  1.00  0.00     0.021 C 
HETATM    7  C   LIG     1      28.924  24.405  25.990  1.00  0.00    -0.067 C 
HETATM    8  C   LIG     1      30.113  24.278  25.049  1.00  0.00     0.035 C 
HETATM    9  C   LIG     1      29.767  24.735  23.606  1.00  0.00     0.010 C 
HETATM   10  C   LIG     1      28.244  24.736  23.342  1.00  0.00     0.003 C 
HETATM   11  C   LIG     1      27.789  24.930  21.868  1.00  0.00     0.002 C 
HETATM   12  C   LIG     1      28.677  25.703  20.898  1.00  0.00     0.009 C 
HETATM   13  C   LIG     1      28.163  25.312  19.501  1.00  0.00     0.047 C 
HETATM   14  C   LIG     1      27.016  24.274  19.706  1.00  0.00     0.128 C 
HETATM   15  C   LIG     1      27.356  23.664  21.114  1.00  0.00     0.005 C 
HETATM   16  C   LIG     1      28.520  22.624  20.979  1.00  0.00     0.019 C 
HETATM   17  C   LIG     1      26.144  23.033  21.866  1.00  0.00     0.091 C 
HETATM   18  C   LIG     1      26.299  23.041  23.379  1.00  0.00     0.133 C 
HETATM   19  C   LIG     1      27.596  23.500  24.046  1.00  0.00     0.072 C 
HETATM   20  O   LIG     1      25.399  22.559  24.047  1.00  0.00    -0.297 OA
HETATM   21  C   LIG     1      29.023  25.180  27.083  1.00  0.00     0.053 C 
ENDROOT
BRANCH  14  22
HETATM   22  C   LIG     1      26.907  23.232  18.588  1.00  0.00     0.185 C 
HETATM   23  O   LIG     1      27.717  23.253  17.673  1.00  0.00    -0.292 OA
BRANCH  22  24
HETATM   24  C   LIG     1      25.916  22.098  18.629  1.00  0.00     0.260 C 
BRANCH  24  25
HETATM   25  O   LIG     1      24.602  22.611  18.438  1.00  0.00    -0.314 OA
BRANCH  25  26
HETATM   26  C   LIG     1      23.454  21.903  18.805  1.00  0.00     0.255 C 
HETATM   27  C   LIG     1      22.968  21.976  20.213  1.00  0.00     0.126 C 
HETATM   28  O   LIG     1      22.842  21.188  17.965  1.00  0.00    -0.266 OA
ENDBRANCH  25  26
ENDBRANCH  24  25
ENDBRANCH  22  24
ENDBRANCH  14  22
BRANCH  14  29
HETATM   29  O   LIG     1      25.788  24.967  19.773  1.00  0.00    -0.381 OA
HETATM   30  H   LIG     1      25.984  25.942  19.777  1.00  0.00     0.211 HD
ENDBRANCH  14  29
TORSDOF 5
ENDMDL
MODEL 6
REMARK VINA RESULT:      -5.1      5.989     13.825
REMARK  5 active torsions:
REMARK  status: ('A' for Active; 'I' for Inactive)
REMARK    1  A    between atoms: C_14  and  C_16 
REMARK    2  A    between atoms: C_14  and  O_15 
REMARK    3  A    between atoms: C_16  and  C_17 
REMARK    4  A    between atoms: C_17  and  O_18 
REMARK    5  A    between atoms: O_18  and  C_19 
ROOT
HETATM    1  O   LIG     1      22.041  20.128  17.284  1.00  0.00    -0.293 OA
HETATM    2  C   LIG     1      22.827  20.392  18.232  1.00  0.00     0.149 C 
HETATM    3  C   LIG     1      23.456  21.753  18.312  1.00  0.00     0.084 C 
HETATM    4  C   LIG     1      23.996  22.045  19.719  1.00  0.00     0.022 C 
HETATM    5  C   LIG     1      24.839  20.864  20.300  1.00  0.00    -0.009 C 
HETATM    6  C   LIG     1      26.125  20.672  19.458  1.00  0.00     0.021 C 
HETATM    7  C   LIG     1      24.021  19.561  20.215  1.00  0.00    -0.067 C 
HETATM    8  C   LIG     1      24.159  18.534  21.330  1.00  0.00     0.035 C 
HETATM    9  C   LIG     1      23.882  19.148  22.728  1.00  0.00     0.010 C 
HETATM   10  C   LIG     1      24.018  20.689  22.727  1.00  0.00     0.003 C 
HETATM   11  C   LIG     1      24.014  21.393  24.114  1.00  0.00     0.002 C 
HETATM   12  C   LIG     1      23.284  20.745  25.288  1.00  0.00     0.009 C 
HETATM   13  C   LIG     1      23.855  21.443  26.534  1.00  0.00     0.047 C 
HETATM   14  C   LIG     1      24.946  22.445  26.043  1.00  0.00     0.128 C 
HETATM   15  C   LIG     1      25.379  21.828  24.664  1.00  0.00     0.005 C 
HETATM   16  C   LIG     1      26.340  20.614  24.901  1.00  0.00     0.019 C 
HETATM   17  C   LIG     1      26.013  22.842  23.662  1.00  0.00     0.091 C 
HETATM   18  C   LIG     1      25.836  22.444  22.205  1.00  0.00     0.133 C 
HETATM   19  C   LIG     1      25.217  21.102  21.814  1.00  0.00     0.072 C 
HETATM   20  O   LIG     1      26.309  23.178  21.352  1.00  0.00    -0.297 OA
HETATM   21  C   LIG     1      23.130  19.355  19.230  1.00  0.00     0.053 C 
ENDROOT
BRANCH  14  22
HETATM   22  C   LIG     1      26.104  22.642  27.027  1.00  0.00     0.185 C 
HETATM   23  O   LIG     1      26.397  21.734  27.792  1.00  0.00    -0.292 OA
BRANCH  22  24
HETATM   24  C   LIG     1      26.986  23.863  27.010  1.00  0.00     0.260 C 
BRANCH  24  25
HETATM   25  O   LIG     1      26.417  24.868  27.842  1.00  0.00    -0.314 OA
BRANCH  25  26
HETATM   26  C   LIG     1      26.998  25.267  29.050  1.00  0.00     0.255 C 
HETATM   27  C   LIG     1      27.223  26.719  29.309  1.00  0.00     0.126 C 
HETATM   28  O   LIG     1      27.355  24.413  29.906  1.00  0.00    -0.266 OA
ENDBRANCH  25  26
ENDBRANCH  24  25
ENDBRANCH  22  24
ENDBRANCH  14  22
BRANCH  14  29
HETATM   29  O   LIG     1      24.340  23.702  25.832  1.00  0.00    -0.381 OA
HETATM   30  H   LIG     1      25.037  24.328  25.499  1.00  0.00     0.211 HD
ENDBRANCH  14  29
TORSDOF 5
ENDMDL
MODEL 7
REMARK VINA RESULT:      -5.0      8.290     12.036
REMARK  5 active torsions:
REMARK  status: ('A' for Active; 'I' for Inactive)
REMARK    1  A    between atoms: C_14  and  C_16 
REMARK    2  A    between atoms: C_14  and  O_15 
REMARK    3  A    between atoms: C_16  and  C_17 
REMARK    4  A    between atoms: C_17  and  O_18 
REMARK    5  A    between atoms: O_18  and  C_19 
ROOT
HETATM    1  O   LIG     1      27.452  21.491  29.636  1.00  0.00    -0.293 OA
HETATM    2  C   LIG     1      27.049  21.846  28.497  1.00  0.00     0.149 C 
HETATM    3  C   LIG     1      28.039  22.355  27.490  1.00  0.00     0.084 C 
HETATM    4  C   LIG     1      27.471  22.306  26.064  1.00  0.00     0.022 C 
HETATM    5  C   LIG     1      26.029  22.898  25.968  1.00  0.00    -0.009 C 
HETATM    6  C   LIG     1      26.059  24.414  26.286  1.00  0.00     0.021 C 
HETATM    7  C   LIG     1      25.124  22.215  27.011  1.00  0.00    -0.067 C 
HETATM    8  C   LIG     1      23.668  21.948  26.658  1.00  0.00     0.035 C 
HETATM    9  C   LIG     1      23.526  21.138  25.341  1.00  0.00     0.010 C 
HETATM   10  C   LIG     1      24.798  21.217  24.466  1.00  0.00     0.003 C 
HETATM   11  C   LIG     1      24.687  20.660  23.018  1.00  0.00     0.002 C 
HETATM   12  C   LIG     1      23.679  19.557  22.707  1.00  0.00     0.009 C 
HETATM   13  C   LIG     1      23.529  19.586  21.176  1.00  0.00     0.047 C 
HETATM   14  C   LIG     1      24.422  20.751  20.647  1.00  0.00     0.128 C 
HETATM   15  C   LIG     1      24.525  21.697  21.897  1.00  0.00     0.005 C 
HETATM   16  C   LIG     1      23.207  22.532  22.044  1.00  0.00     0.019 C 
HETATM   17  C   LIG     1      25.771  22.635  21.910  1.00  0.00     0.091 C 
HETATM   18  C   LIG     1      26.209  23.042  23.309  1.00  0.00     0.133 C 
HETATM   19  C   LIG     1      25.390  22.661  24.543  1.00  0.00     0.072 C 
HETATM   20  O   LIG     1      27.173  23.782  23.412  1.00  0.00    -0.297 OA
HETATM   21  C   LIG     1      25.614  21.775  28.183  1.00  0.00     0.053 C 
ENDROOT
BRANCH  14  22
HETATM   22  C   LIG     1      23.877  21.438  19.391  1.00  0.00     0.185 C 
HETATM   23  O   LIG     1      22.750  21.163  19.003  1.00  0.00    -0.292 OA
BRANCH  22  24
HETATM   24  C   LIG     1      24.621  22.537  18.678  1.00  0.00     0.260 C 
BRANCH  24  25
HETATM   25  O   LIG     1      25.845  22.022  18.164  1.00  0.00    -0.314 OA
BRANCH  25  26
HETATM   26  C   LIG     1      27.085  22.609  18.435  1.00  0.00     0.255 C 
HETATM   27  C   LIG     1      27.381  23.971  17.905  1.00  0.00     0.126 C 
HETATM   28  O   LIG     1      27.959  21.989  19.100  1.00  0.00    -0.266 OA
ENDBRANCH  25  26
ENDBRANCH  24  25
ENDBRANCH  22  24
ENDBRANCH  14  22
BRANCH  14  29
HETATM   29  O   LIG     1      25.699  20.234  20.337  1.00  0.00    -0.381 OA
HETATM   30  H   LIG     1      26.014  19.704  21.117  1.00  0.00     0.211 HD
ENDBRANCH  14  29
TORSDOF 5
ENDMDL
MODEL 8
REMARK VINA RESULT:      -4.9     10.777     13.976
REMARK  5 active torsions:
REMARK  status: ('A' for Active; 'I' for Inactive)
REMARK    1  A    between atoms: C_14  and  C_16 
REMARK    2  A    between atoms: C_14  and  O_15 
REMARK    3  A    between atoms: C_16  and  C_17 
REMARK    4  A    between atoms: C_17  and  O_18 
REMARK    5  A    between atoms: O_18  and  C_19 
ROOT
HETATM    1  O   LIG     1      22.687  18.627  24.384  1.00  0.00    -0.293 OA
HETATM    2  C   LIG     1      23.423  19.585  24.029  1.00  0.00     0.149 C 
HETATM    3  C   LIG     1      24.823  19.675  24.559  1.00  0.00     0.084 C 
HETATM    4  C   LIG     1      25.695  20.603  23.701  1.00  0.00     0.022 C 
HETATM    5  C   LIG     1      24.995  21.962  23.378  1.00  0.00    -0.009 C 
HETATM    6  C   LIG     1      24.791  22.772  24.682  1.00  0.00     0.021 C 
HETATM    7  C   LIG     1      23.606  21.690  22.770  1.00  0.00    -0.067 C 
HETATM    8  C   LIG     1      23.086  22.618  21.681  1.00  0.00     0.035 C 
HETATM    9  C   LIG     1      24.080  22.740  20.495  1.00  0.00     0.010 C 
HETATM   10  C   LIG     1      25.515  22.319  20.888  1.00  0.00     0.003 C 
HETATM   11  C   LIG     1      26.643  22.635  19.865  1.00  0.00     0.002 C 
HETATM   12  C   LIG     1      26.311  22.723  18.378  1.00  0.00     0.009 C 
HETATM   13  C   LIG     1      27.504  23.470  17.756  1.00  0.00     0.047 C 
HETATM   14  C   LIG     1      28.473  23.843  18.921  1.00  0.00     0.128 C 
HETATM   15  C   LIG     1      27.516  23.861  20.168  1.00  0.00     0.005 C 
HETATM   16  C   LIG     1      26.689  25.192  20.186  1.00  0.00     0.019 C 
HETATM   17  C   LIG     1      28.222  23.636  21.540  1.00  0.00     0.091 C 
HETATM   18  C   LIG     1      27.312  23.031  22.598  1.00  0.00     0.133 C 
HETATM   19  C   LIG     1      25.821  22.816  22.338  1.00  0.00     0.072 C 
HETATM   20  O   LIG     1      27.781  22.828  23.705  1.00  0.00    -0.297 OA
HETATM   21  C   LIG     1      22.887  20.608  23.117  1.00  0.00     0.053 C 
ENDROOT
BRANCH  14  22
HETATM   22  C   LIG     1      29.237  25.153  18.705  1.00  0.00     0.185 C 
HETATM   23  O   LIG     1      30.218  25.391  19.394  1.00  0.00    -0.292 OA
BRANCH  22  24
HETATM   24  C   LIG     1      28.907  26.111  17.590  1.00  0.00     0.260 C 
BRANCH  24  25
HETATM   25  O   LIG     1      29.843  25.943  16.530  1.00  0.00    -0.314 OA
BRANCH  25  26
HETATM   26  C   LIG     1      29.463  25.903  15.185  1.00  0.00     0.255 C 
HETATM   27  C   LIG     1      29.013  24.611  14.590  1.00  0.00     0.126 C 
HETATM   28  O   LIG     1      29.519  26.940  14.469  1.00  0.00    -0.266 OA
ENDBRANCH  25  26
ENDBRANCH  24  25
ENDBRANCH  22  24
ENDBRANCH  14  22
BRANCH  14  29
HETATM   29  O   LIG     1      29.421  22.808  19.066  1.00  0.00    -0.381 OA
HETATM   30  H   LIG     1      30.014  23.038  19.831  1.00  0.00     0.211 HD
ENDBRANCH  14  29
TORSDOF 5
ENDMDL
MODEL 9
REMARK VINA RESULT:      -4.8      4.846     12.425
REMARK  5 active torsions:
REMARK  status: ('A' for Active; 'I' for Inactive)
REMARK    1  A    between atoms: C_14  and  C_16 
REMARK    2  A    between atoms: C_14  and  O_15 
REMARK    3  A    between atoms: C_16  and  C_17 
REMARK    4  A    between atoms: C_17  and  O_18 
REMARK    5  A    between atoms: O_18  and  C_19 
ROOT
HETATM    1  O   LIG     1      23.326  21.934  18.170  1.00  0.00    -0.293 OA
HETATM    2  C   LIG     1      24.098  22.041  19.160  1.00  0.00     0.149 C 
HETATM    3  C   LIG     1      24.942  23.274  19.308  1.00  0.00     0.084 C 
HETATM    4  C   LIG     1      25.453  23.440  20.746  1.00  0.00     0.022 C 
HETATM    5  C   LIG     1      26.056  22.122  21.328  1.00  0.00    -0.009 C 
HETATM    6  C   LIG     1      27.332  21.733  20.540  1.00  0.00     0.021 C 
HETATM    7  C   LIG     1      25.037  20.978  21.169  1.00  0.00    -0.067 C 
HETATM    8  C   LIG     1      24.946  19.918  22.258  1.00  0.00     0.035 C 
HETATM    9  C   LIG     1      24.708  20.541  23.660  1.00  0.00     0.010 C 
HETATM   10  C   LIG     1      25.100  22.036  23.711  1.00  0.00     0.003 C 
HETATM   11  C   LIG     1      25.146  22.701  25.116  1.00  0.00     0.002 C 
HETATM   12  C   LIG     1      24.262  22.161  26.236  1.00  0.00     0.009 C 
HETATM   13  C   LIG     1      24.880  22.726  27.527  1.00  0.00     0.047 C 
HETATM   14  C   LIG     1      26.146  23.538  27.115  1.00  0.00     0.128 C 
HETATM   15  C   LIG     1      26.536  22.887  25.739  1.00  0.00     0.005 C 
HETATM   16  C   LIG     1      27.268  21.523  25.983  1.00  0.00     0.019 C 
HETATM   17  C   LIG     1      27.380  23.800  24.797  1.00  0.00     0.091 C 
HETATM   18  C   LIG     1      27.210  23.470  23.322  1.00  0.00     0.133 C 
HETATM   19  C   LIG     1      26.395  22.260  22.864  1.00  0.00     0.072 C 
HETATM   20  O   LIG     1      27.841  24.130  22.513  1.00  0.00    -0.297 OA
HETATM   21  C   LIG     1      24.173  20.947  20.139  1.00  0.00     0.053 C 
ENDROOT
BRANCH  14  22
HETATM   22  C   LIG     1      27.271  23.516  28.155  1.00  0.00     0.185 C 
HETATM   23  O   LIG     1      27.195  22.742  29.098  1.00  0.00    -0.292 OA
BRANCH  22  24
HETATM   24  C   LIG     1      28.536  24.319  28.000  1.00  0.00     0.260 C 
BRANCH  24  25
HETATM   25  O   LIG     1      28.242  25.701  28.175  1.00  0.00    -0.314 OA
BRANCH  25  26
HETATM   26  C   LIG     1      28.257  26.324  29.427  1.00  0.00     0.255 C 
HETATM   27  C   LIG     1      27.635  27.671  29.582  1.00  0.00     0.126 C 
HETATM   28  O   LIG     1      28.811  25.770  30.416  1.00  0.00    -0.266 OA
ENDBRANCH  25  26
ENDBRANCH  24  25
ENDBRANCH  22  24
ENDBRANCH  14  22
BRANCH  14  29
HETATM   29  O   LIG     1      25.771  24.884  26.913  1.00  0.00    -0.381 OA
HETATM   30  H   LIG     1      24.813  24.900  26.645  1.00  0.00     0.211 HD
ENDBRANCH  14  29
TORSDOF 5
ENDMDL
MODEL 10
REMARK VINA RESULT:      -4.6      7.776     12.632
REMARK  5 active torsions:
REMARK  status: ('A' for Active; 'I' for Inactive)
REMARK    1  A    between atoms: C_14  and  C_16 
REMARK    2  A    between atoms: C_14  and  O_15 
REMARK    3  A    between atoms: C_16  and  C_17 
REMARK    4  A    between atoms: C_17  and  O_18 
REMARK    5  A    between atoms: O_18  and  C_19 
ROOT
HETATM    1  O   LIG     1      27.631  25.542  27.421  1.00  0.00    -0.293 OA
HETATM    2  C   LIG     1      27.163  24.657  26.658  1.00  0.00     0.149 C 
HETATM    3  C   LIG     1      25.787  24.114  26.914  1.00  0.00     0.084 C 
HETATM    4  C   LIG     1      25.215  23.413  25.673  1.00  0.00     0.022 C 
HETATM    5  C   LIG     1      26.231  22.424  25.017  1.00  0.00    -0.009 C 
HETATM    6  C   LIG     1      26.525  21.251  25.985  1.00  0.00     0.021 C 
HETATM    7  C   LIG     1      27.559  23.158  24.749  1.00  0.00    -0.067 C 
HETATM    8  C   LIG     1      28.355  22.805  23.500  1.00  0.00     0.035 C 
HETATM    9  C   LIG     1      27.502  22.934  22.209  1.00  0.00     0.010 C 
HETATM   10  C   LIG     1      25.985  22.902  22.505  1.00  0.00     0.003 C 
HETATM   11  C   LIG     1      25.035  22.769  21.281  1.00  0.00     0.002 C 
HETATM   12  C   LIG     1      25.481  23.291  19.918  1.00  0.00     0.009 C 
HETATM   13  C   LIG     1      24.540  22.608  18.911  1.00  0.00     0.047 C 
HETATM   14  C   LIG     1      23.604  21.660  19.724  1.00  0.00     0.128 C 
HETATM   15  C   LIG     1      24.449  21.374  21.018  1.00  0.00     0.005 C 
HETATM   16  C   LIG     1      25.558  20.311  20.707  1.00  0.00     0.019 C 
HETATM   17  C   LIG     1      23.616  20.947  22.265  1.00  0.00     0.091 C 
HETATM   18  C   LIG     1      24.285  21.290  23.587  1.00  0.00     0.133 C 
HETATM   19  C   LIG     1      25.700  21.864  23.639  1.00  0.00     0.072 C 
HETATM   20  O   LIG     1      23.705  20.983  24.616  1.00  0.00    -0.297 OA
HETATM   21  C   LIG     1      27.982  24.156  25.544  1.00  0.00     0.053 C 
ENDROOT
BRANCH  14  22
HETATM   22  C   LIG     1      23.180  20.397  18.967  1.00  0.00     0.185 C 
HETATM   23  O   LIG     1      22.487  19.566  19.535  1.00  0.00    -0.292 OA
BRANCH  22  24
HETATM   24  C   LIG     1      23.475  20.190  17.504  1.00  0.00     0.260 C 
BRANCH  24  25
HETATM   25  O   LIG     1      24.623  19.358  17.367  1.00  0.00    -0.314 OA
BRANCH  25  26
HETATM   26  C   LIG     1      25.711  19.700  16.559  1.00  0.00     0.255 C 
HETATM   27  C   LIG     1      26.874  20.416  17.160  1.00  0.00     0.126 C 
HETATM   28  O   LIG     1      25.708  19.432  15.326  1.00  0.00    -0.266 OA
ENDBRANCH  25  26
ENDBRANCH  24  25
ENDBRANCH  22  24
ENDBRANCH  14  22
BRANCH  14  29
HETATM   29  O   LIG     1      22.434  22.371  20.069  1.00  0.00    -0.381 OA
HETATM   30  H   LIG     1      22.364  22.387  21.061  1.00  0.00     0.211 HD
ENDBRANCH  14  29
TORSDOF 5
ENDMDL
MODEL 11
REMARK VINA RESULT:      -4.4     10.364     13.003
REMARK  5 active torsions:
REMARK  status: ('A' for Active; 'I' for Inactive)
REMARK    1  A    between atoms: C_14  and  C_16 
REMARK    2  A    between atoms: C_14  and  O_15 
REMARK    3  A    between atoms: C_16  and  C_17 
REMARK    4  A    between atoms: C_17  and  O_18 
REMARK    5  A    between atoms: O_18  and  C_19 
ROOT
HETATM    1  O   LIG     1      20.727  20.620  28.306  1.00  0.00    -0.293 OA
HETATM    2  C   LIG     1      21.591  20.438  27.407  1.00  0.00     0.149 C 
HETATM    3  C   LIG     1      21.504  19.220  26.536  1.00  0.00     0.084 C 
HETATM    4  C   LIG     1      22.325  19.385  25.248  1.00  0.00     0.022 C 
HETATM    5  C   LIG     1      23.762  19.937  25.516  1.00  0.00    -0.009 C 
HETATM    6  C   LIG     1      24.580  18.903  26.329  1.00  0.00     0.021 C 
HETATM    7  C   LIG     1      23.668  21.227  26.352  1.00  0.00    -0.067 C 
HETATM    8  C   LIG     1      24.662  22.349  26.087  1.00  0.00     0.035 C 
HETATM    9  C   LIG     1      24.671  22.780  24.596  1.00  0.00     0.010 C 
HETATM   10  C   LIG     1      24.074  21.695  23.670  1.00  0.00     0.003 C 
HETATM   11  C   LIG     1      24.258  21.902  22.139  1.00  0.00     0.002 C 
HETATM   12  C   LIG     1      24.398  23.315  21.579  1.00  0.00     0.009 C 
HETATM   13  C   LIG     1      24.998  23.120  20.176  1.00  0.00     0.047 C 
HETATM   14  C   LIG     1      25.240  21.591  19.986  1.00  0.00     0.128 C 
HETATM   15  C   LIG     1      25.364  21.078  21.466  1.00  0.00     0.005 C 
HETATM   16  C   LIG     1      26.786  21.418  22.030  1.00  0.00     0.019 C 
HETATM   17  C   LIG     1      25.043  19.565  21.666  1.00  0.00     0.091 C 
HETATM   18  C   LIG     1      24.545  19.231  23.064  1.00  0.00     0.133 C 
HETATM   19  C   LIG     1      24.517  20.283  24.173  1.00  0.00     0.072 C 
HETATM   20  O   LIG     1      24.277  18.067  23.311  1.00  0.00    -0.297 OA
HETATM   21  C   LIG     1      22.679  21.414  27.244  1.00  0.00     0.053 C 
ENDROOT
BRANCH  14  22
HETATM   22  C   LIG     1      26.448  21.252  19.107  1.00  0.00     0.185 C 
HETATM   23  O   LIG     1      26.457  20.199  18.486  1.00  0.00    -0.292 OA
BRANCH  22  24
HETATM   24  C   LIG     1      27.579  22.220  18.872  1.00  0.00     0.260 C 
BRANCH  24  25
HETATM   25  O   LIG     1      27.317  22.976  17.695  1.00  0.00    -0.314 OA
BRANCH  25  26
HETATM   26  C   LIG     1      27.746  24.296  17.533  1.00  0.00     0.255 C 
HETATM   27  C   LIG     1      27.398  25.311  18.570  1.00  0.00     0.126 C 
HETATM   28  O   LIG     1      28.402  24.640  16.512  1.00  0.00    -0.266 OA
ENDBRANCH  25  26
ENDBRANCH  24  25
ENDBRANCH  22  24
ENDBRANCH  14  22
BRANCH  14  29
HETATM   29  O   LIG     1      24.095  21.026  19.383  1.00  0.00    -0.381 OA
HETATM   30  H   LIG     1      23.294  21.483  19.755  1.00  0.00     0.211 HD
ENDBRANCH  14  29
TORSDOF 5
ENDMDL
MODEL 12
REMARK VINA RESULT:      -4.3      7.035     12.460
REMARK  5 active torsions:
REMARK  status: ('A' for Active; 'I' for Inactive)
REMARK    1  A    between atoms: C_14  and  C_16 
REMARK    2  A    between atoms: C_14  and  O_15 
REMARK    3  A    between atoms: C_16  and  C_17 
REMARK    4  A    between atoms: C_17  and  O_18 
REMARK    5  A    between atoms: O_18  and  C_19 
ROOT
HETATM    1  O   LIG     1      22.697  21.370  18.529  1.00  0.00    -0.293 OA
HETATM    2  C   LIG     1      23.545  21.562  19.440  1.00  0.00     0.149 C 
HETATM    3  C   LIG     1      24.387  22.804  19.415  1.00  0.00     0.084 C 
HETATM    4  C   LIG     1      25.011  23.093  20.788  1.00  0.00     0.022 C 
HETATM    5  C   LIG     1      25.669  21.830  21.430  1.00  0.00    -0.009 C 
HETATM    6  C   LIG     1      26.881  21.377  20.577  1.00  0.00     0.021 C 
HETATM    7  C   LIG     1      24.649  20.675  21.451  1.00  0.00    -0.067 C 
HETATM    8  C   LIG     1      24.655  19.712  22.629  1.00  0.00     0.035 C 
HETATM    9  C   LIG     1      24.524  20.452  23.988  1.00  0.00     0.010 C 
HETATM   10  C   LIG     1      24.908  21.946  23.880  1.00  0.00     0.003 C 
HETATM   11  C   LIG     1      25.060  22.728  25.215  1.00  0.00     0.002 C 
HETATM   12  C   LIG     1      24.273  22.284  26.445  1.00  0.00     0.009 C 
HETATM   13  C   LIG     1      24.988  22.958  27.630  1.00  0.00     0.047 C 
HETATM   14  C   LIG     1      26.210  23.734  27.050  1.00  0.00     0.128 C 
HETATM   15  C   LIG     1      26.495  22.969  25.707  1.00  0.00     0.005 C 
HETATM   16  C   LIG     1      27.254  21.631  26.006  1.00  0.00     0.019 C 
HETATM   17  C   LIG     1      27.253  23.799  24.626  1.00  0.00     0.091 C 
HETATM   18  C   LIG     1      26.968  23.344  23.203  1.00  0.00     0.133 C 
HETATM   19  C   LIG     1      26.129  22.099  22.916  1.00  0.00     0.072 C 
HETATM   20  O   LIG     1      27.527  23.934  22.293  1.00  0.00    -0.297 OA
HETATM   21  C   LIG     1      23.707  20.555  20.500  1.00  0.00     0.053 C 
ENDROOT
BRANCH  14  22
HETATM   22  C   LIG     1      27.415  23.801  27.994  1.00  0.00     0.185 C 
HETATM   23  O   LIG     1      28.395  24.454  27.664  1.00  0.00    -0.292 OA
BRANCH  22  24
HETATM   24  C   LIG     1      27.400  23.199  29.375  1.00  0.00     0.260 C 
BRANCH  24  25
HETATM   25  O   LIG     1      28.267  22.070  29.407  1.00  0.00    -0.314 OA
BRANCH  25  26
HETATM   26  C   LIG     1      27.811  20.775  29.669  1.00  0.00     0.255 C 
HETATM   27  C   LIG     1      26.360  20.549  29.933  1.00  0.00     0.126 C 
HETATM   28  O   LIG     1      28.616  19.804  29.709  1.00  0.00    -0.266 OA
ENDBRANCH  25  26
ENDBRANCH  24  25
ENDBRANCH  22  24
ENDBRANCH  14  22
BRANCH  14  29
HETATM   29  O   LIG     1      25.809  25.057  26.765  1.00  0.00    -0.381 OA
HETATM   30  H   LIG     1      26.598  25.550  26.414  1.00  0.00     0.211 HD
ENDBRANCH  14  29
TORSDOF 5
ENDMDL
MODEL 13
REMARK VINA RESULT:      -4.2      2.585      4.706
REMARK  5 active torsions:
REMARK  status: ('A' for Active; 'I' for Inactive)
REMARK    1  A    between atoms: C_14  and  C_16 
REMARK    2  A    between atoms: C_14  and  O_15 
REMARK    3  A    between atoms: C_16  and  C_17 
REMARK    4  A    between atoms: C_17  and  O_18 
REMARK    5  A    between atoms: O_18  and  C_19 
ROOT
HETATM    1  O   LIG     1      26.551  29.404  34.863  1.00  0.00    -0.293 OA
HETATM    2  C   LIG     1      26.992  28.458  34.158  1.00  0.00     0.149 C 
HETATM    3  C   LIG     1      26.838  27.045  34.640  1.00  0.00     0.084 C 
HETATM    4  C   LIG     1      27.005  26.035  33.496  1.00  0.00     0.022 C 
HETATM    5  C   LIG     1      28.260  26.326  32.613  1.00  0.00    -0.009 C 
HETATM    6  C   LIG     1      29.550  26.131  33.450  1.00  0.00     0.021 C 
HETATM    7  C   LIG     1      28.224  27.791  32.137  1.00  0.00    -0.067 C 
HETATM    8  C   LIG     1      28.742  28.124  30.745  1.00  0.00     0.035 C 
HETATM    9  C   LIG     1      28.047  27.277  29.646  1.00  0.00     0.010 C 
HETATM   10  C   LIG     1      27.389  26.000  30.219  1.00  0.00     0.003 C 
HETATM   11  C   LIG     1      26.884  24.950  29.190  1.00  0.00     0.002 C 
HETATM   12  C   LIG     1      26.460  25.401  27.795  1.00  0.00     0.009 C 
HETATM   13  C   LIG     1      26.466  24.116  26.950  1.00  0.00     0.047 C 
HETATM   14  C   LIG     1      26.950  22.957  27.876  1.00  0.00     0.128 C 
HETATM   15  C   LIG     1      27.777  23.721  28.973  1.00  0.00     0.005 C 
HETATM   16  C   LIG     1      29.188  24.102  28.408  1.00  0.00     0.019 C 
HETATM   17  C   LIG     1      27.917  22.968  30.332  1.00  0.00     0.091 C 
HETATM   18  C   LIG     1      28.119  23.895  31.520  1.00  0.00     0.133 C 
HETATM   19  C   LIG     1      28.306  25.401  31.334  1.00  0.00     0.072 C 
HETATM   20  O   LIG     1      28.247  23.390  32.623  1.00  0.00    -0.297 OA
HETATM   21  C   LIG     1      27.668  28.758  32.887  1.00  0.00     0.053 C 
ENDROOT
BRANCH  14  22
HETATM   22  C   LIG     1      27.740  21.863  27.151  1.00  0.00     0.185 C 
HETATM   23  O   LIG     1      28.217  22.102  26.051  1.00  0.00    -0.292 OA
BRANCH  22  24
HETATM   24  C   LIG     1      28.065  20.538  27.789  1.00  0.00     0.260 C 
BRANCH  24  25
HETATM   25  O   LIG     1      27.467  19.490  27.034  1.00  0.00    -0.314 OA
BRANCH  25  26
HETATM   26  C   LIG     1      26.086  19.396  26.835  1.00  0.00     0.255 C 
HETATM   27  C   LIG     1      25.551  19.287  25.447  1.00  0.00     0.126 C 
HETATM   28  O   LIG     1      25.291  19.426  27.814  1.00  0.00    -0.266 OA
ENDBRANCH  25  26
ENDBRANCH  24  25
ENDBRANCH  22  24
ENDBRANCH  14  22
BRANCH  14  29
HETATM   29  O   LIG     1      25.820  22.354  28.469  1.00  0.00    -0.381 OA
HETATM   30  H   LIG     1      25.014  22.861  28.183  1.00  0.00     0.211 HD
ENDBRANCH  14  29
TORSDOF 5
ENDMDL
MODEL 14
REMARK VINA RESULT:      -4.2      4.404     11.488
REMARK  5 active torsions:
REMARK  status: ('A' for Active; 'I' for Inactive)
REMARK    1  A    between atoms: C_14  and  C_16 
REMARK    2  A    between atoms: C_14  and  O_15 
REMARK    3  A    between atoms: C_16  and  C_17 
REMARK    4  A    between atoms: C_17  and  O_18 
REMARK    5  A    between atoms: O_18  and  C_19 
ROOT
HETATM    1  O   LIG     1      22.142  22.496  20.136  1.00  0.00    -0.293 OA
HETATM    2  C   LIG     1      23.145  22.400  20.891  1.00  0.00     0.149 C 
HETATM    3  C   LIG     1      24.496  22.808  20.380  1.00  0.00     0.084 C 
HETATM    4  C   LIG     1      25.485  23.055  21.528  1.00  0.00     0.022 C 
HETATM    5  C   LIG     1      25.471  21.912  22.593  1.00  0.00    -0.009 C 
HETATM    6  C   LIG     1      25.984  20.595  21.959  1.00  0.00     0.021 C 
HETATM    7  C   LIG     1      24.026  21.674  23.070  1.00  0.00    -0.067 C 
HETATM    8  C   LIG     1      23.784  21.305  24.527  1.00  0.00     0.035 C 
HETATM    9  C   LIG     1      24.415  22.336  25.502  1.00  0.00     0.010 C 
HETATM   10  C   LIG     1      25.517  23.183  24.825  1.00  0.00     0.003 C 
HETATM   11  C   LIG     1      26.392  24.068  25.758  1.00  0.00     0.002 C 
HETATM   12  C   LIG     1      25.816  24.576  27.076  1.00  0.00     0.009 C 
HETATM   13  C   LIG     1      27.043  24.998  27.902  1.00  0.00     0.047 C 
HETATM   14  C   LIG     1      28.308  24.668  27.050  1.00  0.00     0.128 C 
HETATM   15  C   LIG     1      27.790  23.531  26.097  1.00  0.00     0.005 C 
HETATM   16  C   LIG     1      27.733  22.170  26.872  1.00  0.00     0.019 C 
HETATM   17  C   LIG     1      28.592  23.371  24.769  1.00  0.00     0.091 C 
HETATM   18  C   LIG     1      27.770  22.782  23.632  1.00  0.00     0.133 C 
HETATM   19  C   LIG     1      26.345  22.277  23.857  1.00  0.00     0.072 C 
HETATM   20  O   LIG     1      28.322  22.614  22.557  1.00  0.00    -0.297 OA
HETATM   21  C   LIG     1      22.976  21.869  22.253  1.00  0.00     0.053 C 
ENDROOT
BRANCH  14  22
HETATM   22  C   LIG     1      29.536  24.274  27.877  1.00  0.00     0.185 C 
HETATM   23  O   LIG     1      30.613  24.137  27.316  1.00  0.00    -0.292 OA
BRANCH  22  24
HETATM   24  C   LIG     1      29.503  24.170  29.380  1.00  0.00     0.260 C 
BRANCH  24  25
HETATM   25  O   LIG     1      29.495  25.477  29.944  1.00  0.00    -0.314 OA
BRANCH  25  26
HETATM   26  C   LIG     1      29.347  25.707  31.315  1.00  0.00     0.255 C 
HETATM   27  C   LIG     1      27.992  26.001  31.866  1.00  0.00     0.126 C 
HETATM   28  O   LIG     1      30.348  25.691  32.082  1.00  0.00    -0.266 OA
ENDBRANCH  25  26
ENDBRANCH  24  25
ENDBRANCH  22  24
ENDBRANCH  14  22
BRANCH  14  29
HETATM   29  O   LIG     1      28.647  25.807  26.288  1.00  0.00    -0.381 OA
HETATM   30  H   LIG     1      29.043  26.482  26.901  1.00  0.00     0.211 HD
ENDBRANCH  14  29
TORSDOF 5
ENDMDL
MODEL 15
REMARK VINA RESULT:      -4.2      5.893     10.347
REMARK  5 active torsions:
REMARK  status: ('A' for Active; 'I' for Inactive)
REMARK    1  A    between atoms: C_14  and  C_16 
REMARK    2  A    between atoms: C_14  and  O_15 
REMARK    3  A    between atoms: C_16  and  C_17 
REMARK    4  A    between atoms: C_17  and  O_18 
REMARK    5  A    between atoms: O_18  and  C_19 
ROOT
HETATM    1  O   LIG     1      28.587  26.728  29.382  1.00  0.00    -0.293 OA
HETATM    2  C   LIG     1      28.095  25.856  28.619  1.00  0.00     0.149 C 
HETATM    3  C   LIG     1      26.604  25.712  28.527  1.00  0.00     0.084 C 
HETATM    4  C   LIG     1      26.185  24.954  27.259  1.00  0.00     0.022 C 
HETATM    5  C   LIG     1      27.015  23.650  27.033  1.00  0.00    -0.009 C 
HETATM    6  C   LIG     1      26.721  22.636  28.167  1.00  0.00     0.021 C 
HETATM    7  C   LIG     1      28.518  23.986  27.078  1.00  0.00    -0.067 C 
HETATM    8  C   LIG     1      29.466  23.233  26.156  1.00  0.00     0.035 C 
HETATM    9  C   LIG     1      29.030  23.326  24.669  1.00  0.00     0.010 C 
HETATM   10  C   LIG     1      27.539  23.710  24.520  1.00  0.00     0.003 C 
HETATM   11  C   LIG     1      26.924  23.588  23.097  1.00  0.00     0.002 C 
HETATM   12  C   LIG     1      27.820  23.734  21.870  1.00  0.00     0.009 C 
HETATM   13  C   LIG     1      27.005  23.123  20.717  1.00  0.00     0.047 C 
HETATM   14  C   LIG     1      25.672  22.589  21.326  1.00  0.00     0.128 C 
HETATM   15  C   LIG     1      26.057  22.349  22.831  1.00  0.00     0.005 C 
HETATM   16  C   LIG     1      26.866  21.015  22.969  1.00  0.00     0.019 C 
HETATM   17  C   LIG     1      24.856  22.366  23.826  1.00  0.00     0.091 C 
HETATM   18  C   LIG     1      25.245  22.772  25.239  1.00  0.00     0.133 C 
HETATM   19  C   LIG     1      26.706  22.993  25.631  1.00  0.00     0.072 C 
HETATM   20  O   LIG     1      24.367  22.804  26.086  1.00  0.00    -0.297 OA
HETATM   21  C   LIG     1      28.991  24.981  27.847  1.00  0.00     0.053 C 
ENDROOT
BRANCH  14  22
HETATM   22  C   LIG     1      25.114  21.348  20.622  1.00  0.00     0.185 C 
HETATM   23  O   LIG     1      25.867  20.652  19.956  1.00  0.00    -0.292 OA
BRANCH  22  24
HETATM   24  C   LIG     1      23.698  20.872  20.816  1.00  0.00     0.260 C 
BRANCH  24  25
HETATM   25  O   LIG     1      22.972  21.041  19.603  1.00  0.00    -0.314 OA
BRANCH  25  26
HETATM   26  C   LIG     1      22.686  19.980  18.739  1.00  0.00     0.255 C 
HETATM   27  C   LIG     1      22.581  18.597  19.289  1.00  0.00     0.126 C 
HETATM   28  O   LIG     1      22.540  20.177  17.502  1.00  0.00    -0.266 OA
ENDBRANCH  25  26
ENDBRANCH  24  25
ENDBRANCH  22  24
ENDBRANCH  14  22
BRANCH  14  29
HETATM   29  O   LIG     1      24.699  23.608  21.242  1.00  0.00    -0.381 OA
HETATM   30  H   LIG     1      24.905  24.166  20.445  1.00  0.00     0.211 HD
ENDBRANCH  14  29
TORSDOF 5
ENDMDL
MODEL 16
REMARK VINA RESULT:      -4.1      3.070      5.706
REMARK  5 active torsions:
REMARK  status: ('A' for Active; 'I' for Inactive)
REMARK    1  A    between atoms: C_14  and  C_16 
REMARK    2  A    between atoms: C_14  and  O_15 
REMARK    3  A    between atoms: C_16  and  C_17 
REMARK    4  A    between atoms: C_17  and  O_18 
REMARK    5  A    between atoms: O_18  and  C_19 
ROOT
HETATM    1  O   LIG     1      26.535  27.630  34.747  1.00  0.00    -0.293 OA
HETATM    2  C   LIG     1      27.098  27.047  33.783  1.00  0.00     0.149 C 
HETATM    3  C   LIG     1      27.555  25.627  33.945  1.00  0.00     0.084 C 
HETATM    4  C   LIG     1      27.788  24.949  32.587  1.00  0.00     0.022 C 
HETATM    5  C   LIG     1      28.626  25.832  31.608  1.00  0.00    -0.009 C 
HETATM    6  C   LIG     1      30.060  26.019  32.163  1.00  0.00     0.021 C 
HETATM    7  C   LIG     1      27.979  27.226  31.494  1.00  0.00    -0.067 C 
HETATM    8  C   LIG     1      28.013  27.944  30.152  1.00  0.00     0.035 C 
HETATM    9  C   LIG     1      27.416  27.077  29.011  1.00  0.00     0.010 C 
HETATM   10  C   LIG     1      27.388  25.574  29.372  1.00  0.00     0.003 C 
HETATM   11  C   LIG     1      27.051  24.583  28.221  1.00  0.00     0.002 C 
HETATM   12  C   LIG     1      26.186  25.049  27.053  1.00  0.00     0.009 C 
HETATM   13  C   LIG     1      26.437  24.012  25.944  1.00  0.00     0.047 C 
HETATM   14  C   LIG     1      27.490  22.999  26.491  1.00  0.00     0.128 C 
HETATM   15  C   LIG     1      28.236  23.840  27.589  1.00  0.00     0.005 C 
HETATM   16  C   LIG     1      29.258  24.816  26.911  1.00  0.00     0.019 C 
HETATM   17  C   LIG     1      28.937  22.997  28.698  1.00  0.00     0.091 C 
HETATM   18  C   LIG     1      29.078  23.734  30.021  1.00  0.00     0.133 C 
HETATM   19  C   LIG     1      28.687  25.206  30.159  1.00  0.00     0.072 C 
HETATM   20  O   LIG     1      29.623  23.151  30.944  1.00  0.00    -0.297 OA
HETATM   21  C   LIG     1      27.315  27.777  32.524  1.00  0.00     0.053 C 
ENDROOT
BRANCH  14  22
HETATM   22  C   LIG     1      28.417  22.418  25.418  1.00  0.00     0.185 C 
HETATM   23  O   LIG     1      29.167  21.498  25.712  1.00  0.00    -0.292 OA
BRANCH  22  24
HETATM   24  C   LIG     1      28.357  22.846  23.974  1.00  0.00     0.260 C 
BRANCH  24  25
HETATM   25  O   LIG     1      29.571  23.503  23.626  1.00  0.00    -0.314 OA
BRANCH  25  26
HETATM   26  C   LIG     1      29.607  24.808  23.125  1.00  0.00     0.255 C 
HETATM   27  C   LIG     1      28.436  25.707  23.341  1.00  0.00     0.126 C 
HETATM   28  O   LIG     1      30.606  25.221  22.475  1.00  0.00    -0.266 OA
ENDBRANCH  25  26
ENDBRANCH  24  25
ENDBRANCH  22  24
ENDBRANCH  14  22
BRANCH  14  29
HETATM   29  O   LIG     1      26.807  21.924  27.100  1.00  0.00    -0.381 OA
HETATM   30  H   LIG     1      26.980  21.963  28.078  1.00  0.00     0.211 HD
ENDBRANCH  14  29
TORSDOF 5
ENDMDL
MODEL 17
REMARK VINA RESULT:      -4.1      6.517     11.077
REMARK  5 active torsions:
REMARK  status: ('A' for Active; 'I' for Inactive)
REMARK    1  A    between atoms: C_14  and  C_16 
REMARK    2  A    between atoms: C_14  and  O_15 
REMARK    3  A    between atoms: C_16  and  C_17 
REMARK    4  A    between atoms: C_17  and  O_18 
REMARK    5  A    between atoms: O_18  and  C_19 
ROOT
HETATM    1  O   LIG     1      28.118  26.047  29.016  1.00  0.00    -0.293 OA
HETATM    2  C   LIG     1      27.945  25.416  27.940  1.00  0.00     0.149 C 
HETATM    3  C   LIG     1      26.559  24.995  27.546  1.00  0.00     0.084 C 
HETATM    4  C   LIG     1      26.472  24.662  26.050  1.00  0.00     0.022 C 
HETATM    5  C   LIG     1      27.634  23.735  25.569  1.00  0.00    -0.009 C 
HETATM    6  C   LIG     1      27.517  22.348  26.249  1.00  0.00     0.021 C 
HETATM    7  C   LIG     1      28.984  24.350  25.982  1.00  0.00    -0.067 C 
HETATM    8  C   LIG     1      30.178  24.197  25.049  1.00  0.00     0.035 C 
HETATM    9  C   LIG     1      29.869  24.712  23.618  1.00  0.00     0.010 C 
HETATM   10  C   LIG     1      28.350  24.791  23.339  1.00  0.00     0.003 C 
HETATM   11  C   LIG     1      27.920  25.049  21.867  1.00  0.00     0.002 C 
HETATM   12  C   LIG     1      28.853  25.810  20.929  1.00  0.00     0.009 C 
HETATM   13  C   LIG     1      28.337  25.485  19.517  1.00  0.00     0.047 C 
HETATM   14  C   LIG     1      27.142  24.494  19.679  1.00  0.00     0.128 C 
HETATM   15  C   LIG     1      27.438  23.828  21.072  1.00  0.00     0.005 C 
HETATM   16  C   LIG     1      28.555  22.740  20.916  1.00  0.00     0.019 C 
HETATM   17  C   LIG     1      26.190  23.231  21.792  1.00  0.00     0.091 C 
HETATM   18  C   LIG     1      26.329  23.187  23.306  1.00  0.00     0.133 C 
HETATM   19  C   LIG     1      27.638  23.566  23.999  1.00  0.00     0.072 C 
HETATM   20  O   LIG     1      25.401  22.726  23.951  1.00  0.00    -0.297 OA
HETATM   21  C   LIG     1      29.107  25.087  27.099  1.00  0.00     0.053 C 
ENDROOT
BRANCH  14  22
HETATM   22  C   LIG     1      26.998  23.493  18.529  1.00  0.00     0.185 C 
HETATM   23  O   LIG     1      25.955  22.866  18.412  1.00  0.00    -0.292 OA
BRANCH  22  24
HETATM   24  C   LIG     1      28.042  23.334  17.454  1.00  0.00     0.260 C 
BRANCH  24  25
HETATM   25  O   LIG     1      28.064  21.981  17.014  1.00  0.00    -0.314 OA
BRANCH  25  26
HETATM   26  C   LIG     1      28.804  20.987  17.662  1.00  0.00     0.255 C 
HETATM   27  C   LIG     1      30.293  21.014  17.582  1.00  0.00     0.126 C 
HETATM   28  O   LIG     1      28.225  20.059  18.290  1.00  0.00    -0.266 OA
ENDBRANCH  25  26
ENDBRANCH  24  25
ENDBRANCH  22  24
ENDBRANCH  14  22
BRANCH  14  29
HETATM   29  O   LIG     1      25.946  25.241  19.756  1.00  0.00    -0.381 OA
HETATM   30  H   LIG     1      25.842  25.561  20.692  1.00  0.00     0.211 HD
ENDBRANCH  14  29
TORSDOF 5
ENDMDL
MODEL 18
REMARK VINA RESULT:      -4.0      4.456      8.140
REMARK  5 active torsions:
REMARK  status: ('A' for Active; 'I' for Inactive)
REMARK    1  A    between atoms: C_14  and  C_16 
REMARK    2  A    between atoms: C_14  and  O_15 
REMARK    3  A    between atoms: C_16  and  C_17 
REMARK    4  A    between atoms: C_17  and  O_18 
REMARK    5  A    between atoms: O_18  and  C_19 
ROOT
HETATM    1  O   LIG     1      27.538  27.942  31.370  1.00  0.00    -0.293 OA
HETATM    2  C   LIG     1      27.888  27.131  30.473  1.00  0.00     0.149 C 
HETATM    3  C   LIG     1      27.195  25.804  30.365  1.00  0.00     0.084 C 
HETATM    4  C   LIG     1      27.418  25.159  28.989  1.00  0.00     0.022 C 
HETATM    5  C   LIG     1      28.914  25.190  28.543  1.00  0.00    -0.009 C 
HETATM    6  C   LIG     1      29.765  24.307  29.491  1.00  0.00     0.021 C 
HETATM    7  C   LIG     1      29.448  26.632  28.637  1.00  0.00    -0.067 C 
HETATM    8  C   LIG     1      30.448  27.115  27.596  1.00  0.00     0.035 C 
HETATM    9  C   LIG     1      29.922  26.924  26.149  1.00  0.00     0.010 C 
HETATM   10  C   LIG     1      28.782  25.882  26.073  1.00  0.00     0.003 C 
HETATM   11  C   LIG     1      28.348  25.420  24.653  1.00  0.00     0.002 C 
HETATM   12  C   LIG     1      28.530  26.360  23.464  1.00  0.00     0.009 C 
HETATM   13  C   LIG     1      28.434  25.449  22.228  1.00  0.00     0.047 C 
HETATM   14  C   LIG     1      28.252  23.988  22.745  1.00  0.00     0.128 C 
HETATM   15  C   LIG     1      28.875  24.056  24.186  1.00  0.00     0.005 C 
HETATM   16  C   LIG     1      30.439  24.022  24.093  1.00  0.00     0.019 C 
HETATM   17  C   LIG     1      28.362  22.965  25.175  1.00  0.00     0.091 C 
HETATM   18  C   LIG     1      28.437  23.387  26.635  1.00  0.00     0.133 C 
HETATM   19  C   LIG     1      29.093  24.703  27.052  1.00  0.00     0.072 C 
HETATM   20  O   LIG     1      28.062  22.589  27.479  1.00  0.00    -0.297 OA
HETATM   21  C   LIG     1      28.985  27.492  29.561  1.00  0.00     0.053 C 
ENDROOT
BRANCH  14  22
HETATM   22  C   LIG     1      28.883  22.922  21.844  1.00  0.00     0.185 C 
HETATM   23  O   LIG     1      28.964  21.771  22.249  1.00  0.00    -0.292 OA
BRANCH  22  24
HETATM   24  C   LIG     1      29.299  23.201  20.423  1.00  0.00     0.260 C 
BRANCH  24  25
HETATM   25  O   LIG     1      28.245  22.831  19.541  1.00  0.00    -0.314 OA
BRANCH  25  26
HETATM   26  C   LIG     1      27.175  23.680  19.245  1.00  0.00     0.255 C 
HETATM   27  C   LIG     1      27.318  24.683  18.149  1.00  0.00     0.126 C 
HETATM   28  O   LIG     1      26.103  23.622  19.908  1.00  0.00    -0.266 OA
ENDBRANCH  25  26
ENDBRANCH  24  25
ENDBRANCH  22  24
ENDBRANCH  14  22
BRANCH  14  29
HETATM   29  O   LIG     1      26.871  23.713  22.838  1.00  0.00    -0.381 OA
HETATM   30  H   LIG     1      26.708  22.814  22.446  1.00  0.00     0.211 HD
ENDBRANCH  14  29
TORSDOF 5
ENDMDL
MODEL 19
REMARK VINA RESULT:      -3.9      7.088     10.502
REMARK  5 active torsions:
REMARK  status: ('A' for Active; 'I' for Inactive)
REMARK    1  A    between atoms: C_14  and  C_16 
REMARK    2  A    between atoms: C_14  and  O_15 
REMARK    3  A    between atoms: C_16  and  C_17 
REMARK    4  A    between atoms: C_17  and  O_18 
REMARK    5  A    between atoms: O_18  and  C_19 
ROOT
HETATM    1  O   LIG     1      27.684  22.058  31.053  1.00  0.00    -0.293 OA
HETATM    2  C   LIG     1      27.895  22.253  29.827  1.00  0.00     0.149 C 
HETATM    3  C   LIG     1      28.793  21.317  29.073  1.00  0.00     0.084 C 
HETATM    4  C   LIG     1      28.579  21.424  27.557  1.00  0.00     0.022 C 
HETATM    5  C   LIG     1      28.553  22.902  27.054  1.00  0.00    -0.009 C 
HETATM    6  C   LIG     1      29.943  23.554  27.263  1.00  0.00     0.021 C 
HETATM    7  C   LIG     1      27.527  23.705  27.876  1.00  0.00    -0.067 C 
HETATM    8  C   LIG     1      26.718  24.792  27.182  1.00  0.00     0.035 C 
HETATM    9  C   LIG     1      25.970  24.254  25.932  1.00  0.00     0.010 C 
HETATM   10  C   LIG     1      26.581  22.934  25.408  1.00  0.00     0.003 C 
HETATM   11  C   LIG     1      26.084  22.433  24.022  1.00  0.00     0.002 C 
HETATM   12  C   LIG     1      24.685  22.807  23.541  1.00  0.00     0.009 C 
HETATM   13  C   LIG     1      24.711  22.549  22.025  1.00  0.00     0.047 C 
HETATM   14  C   LIG     1      26.155  22.081  21.662  1.00  0.00     0.128 C 
HETATM   15  C   LIG     1      27.014  22.690  22.828  1.00  0.00     0.005 C 
HETATM   16  C   LIG     1      27.251  24.218  22.575  1.00  0.00     0.019 C 
HETATM   17  C   LIG     1      28.368  21.963  23.094  1.00  0.00     0.091 C 
HETATM   18  C   LIG     1      28.860  22.103  24.526  1.00  0.00     0.133 C 
HETATM   19  C   LIG     1      28.138  22.998  25.533  1.00  0.00     0.072 C 
HETATM   20  O   LIG     1      29.918  21.571  24.821  1.00  0.00    -0.297 OA
HETATM   21  C   LIG     1      27.273  23.409  29.162  1.00  0.00     0.053 C 
ENDROOT
BRANCH  14  22
HETATM   22  C   LIG     1      26.617  22.502  20.263  1.00  0.00     0.185 C 
HETATM   23  O   LIG     1      27.669  22.059  19.825  1.00  0.00    -0.292 OA
BRANCH  22  24
HETATM   24  C   LIG     1      25.768  23.344  19.347  1.00  0.00     0.260 C 
BRANCH  24  25
HETATM   25  O   LIG     1      26.176  24.705  19.443  1.00  0.00    -0.314 OA
BRANCH  25  26
HETATM   26  C   LIG     1      27.165  25.257  18.624  1.00  0.00     0.255 C 
HETATM   27  C   LIG     1      27.789  26.558  19.005  1.00  0.00     0.126 C 
HETATM   28  O   LIG     1      27.516  24.679  17.559  1.00  0.00    -0.266 OA
ENDBRANCH  25  26
ENDBRANCH  24  25
ENDBRANCH  22  24
ENDBRANCH  14  22
BRANCH  14  29
HETATM   29  O   LIG     1      26.199  20.671  21.726  1.00  0.00    -0.381 OA
HETATM   30  H   LIG     1      27.121  20.381  21.493  1.00  0.00     0.211 HD
ENDBRANCH  14  29
TORSDOF 5
ENDMDL
MODEL 20
REMARK VINA RESULT:      -3.7      3.781      7.129
REMARK  5 active torsions:
REMARK  status: ('A' for Active; 'I' for Inactive)
REMARK    1  A    between atoms: C_14  and  C_16 
REMARK    2  A    between atoms: C_14  and  O_15 
REMARK    3  A    between atoms: C_16  and  C_17 
REMARK    4  A    between atoms: C_17  and  O_18 
REMARK    5  A    between atoms: O_18  and  C_19 
ROOT
HETATM    1  O   LIG     1      28.440  28.736  31.922  1.00  0.00    -0.293 OA
HETATM    2  C   LIG     1      28.412  27.698  31.210  1.00  0.00     0.149 C 
HETATM    3  C   LIG     1      27.295  26.711  31.389  1.00  0.00     0.084 C 
HETATM    4  C   LIG     1      27.165  25.778  30.176  1.00  0.00     0.022 C 
HETATM    5  C   LIG     1      28.536  25.187  29.718  1.00  0.00    -0.009 C 
HETATM    6  C   LIG     1      29.104  24.259  30.821  1.00  0.00     0.021 C 
HETATM    7  C   LIG     1      29.542  26.334  29.504  1.00  0.00    -0.067 C 
HETATM    8  C   LIG     1      30.558  26.220  28.376  1.00  0.00     0.035 C 
HETATM    9  C   LIG     1      29.879  25.956  27.005  1.00  0.00     0.010 C 
HETATM   10  C   LIG     1      28.447  25.394  27.159  1.00  0.00     0.003 C 
HETATM   11  C   LIG     1      27.762  24.855  25.871  1.00  0.00     0.002 C 
HETATM   12  C   LIG     1      28.159  25.422  24.511  1.00  0.00     0.009 C 
HETATM   13  C   LIG     1      27.651  24.387  23.493  1.00  0.00     0.047 C 
HETATM   14  C   LIG     1      27.017  23.214  24.305  1.00  0.00     0.128 C 
HETATM   15  C   LIG     1      27.743  23.330  25.694  1.00  0.00     0.005 C 
HETATM   16  C   LIG     1      29.184  22.724  25.595  1.00  0.00     0.019 C 
HETATM   17  C   LIG     1      26.968  22.705  26.894  1.00  0.00     0.091 C 
HETATM   18  C   LIG     1      27.306  23.343  28.233  1.00  0.00     0.133 C 
HETATM   19  C   LIG     1      28.410  24.393  28.359  1.00  0.00     0.072 C 
HETATM   20  O   LIG     1      26.749  22.909  29.228  1.00  0.00    -0.297 OA
HETATM   21  C   LIG     1      29.485  27.463  30.232  1.00  0.00     0.053 C 
ENDROOT
BRANCH  14  22
HETATM   22  C   LIG     1      27.162  21.842  23.641  1.00  0.00     0.185 C 
HETATM   23  O   LIG     1      27.078  20.835  24.329  1.00  0.00    -0.292 OA
BRANCH  22  24
HETATM   24  C   LIG     1      27.279  21.670  22.148  1.00  0.00     0.260 C 
BRANCH  24  25
HETATM   25  O   LIG     1      26.091  22.147  21.524  1.00  0.00    -0.314 OA
BRANCH  25  26
HETATM   26  C   LIG     1      24.845  21.542  21.710  1.00  0.00     0.255 C 
HETATM   27  C   LIG     1      24.607  20.173  21.168  1.00  0.00     0.126 C 
HETATM   28  O   LIG     1      23.916  22.152  22.309  1.00  0.00    -0.266 OA
ENDBRANCH  25  26
ENDBRANCH  24  25
ENDBRANCH  22  24
ENDBRANCH  14  22
BRANCH  14  29
HETATM   29  O   LIG     1      25.639  23.473  24.468  1.00  0.00    -0.381 OA
HETATM   30  H   LIG     1      25.161  23.105  23.677  1.00  0.00     0.211 HD
ENDBRANCH  14  29
TORSDOF 5
ENDMDL
