MODEL 1
REMARK VINA RESULT:      -5.0      0.000      0.000
REMARK  5 active torsions:
REMARK  status: ('A' for Active; 'I' for Inactive)
REMARK    1  A    between atoms: C_13  and  O_14 
REMARK    2  A    between atoms: C_22  and  C_24 
REMARK    3  A    between atoms: C_22  and  O_23 
REMARK    4  A    between atoms: C_24  and  C_25 
REMARK    5  A    between atoms: C_25  and  O_26 
ROOT
HETATM    1  O   LIG     1      21.909  18.308  15.078  1.00  0.00    -0.289 OA
HETATM    2  C   LIG     1      22.754  18.679  15.936  1.00  0.00     0.172 C 
HETATM    3  C   LIG     1      24.178  18.406  15.736  1.00  0.00     0.052 C 
HETATM    4  C   LIG     1      25.066  18.716  16.682  1.00  0.00    -0.006 C 
HETATM    5  C   LIG     1      24.649  19.192  18.074  1.00  0.00     0.036 C 
HETATM    6  C   LIG     1      24.657  17.933  18.972  1.00  0.00     0.028 C 
HETATM    7  C   LIG     1      23.206  19.753  18.076  1.00  0.00    -0.061 C 
HETATM    8  C   LIG     1      22.851  20.832  19.083  1.00  0.00     0.036 C 
HETATM    9  C   LIG     1      23.764  22.074  18.916  1.00  0.00     0.013 C 
HETATM   10  C   LIG     1      25.100  21.722  18.213  1.00  0.00     0.035 C 
HETATM   11  C   LIG     1      25.617  20.311  18.662  1.00  0.00     0.147 C 
HETATM   12  F   LIG     1      25.514  20.214  20.040  1.00  0.00    -0.238 F 
HETATM   13  C   LIG     1      27.146  20.174  18.360  1.00  0.00     0.160 C 
HETATM   14  C   LIG     1      27.981  21.225  19.167  1.00  0.00     0.048 C 
HETATM   15  C   LIG     1      27.315  22.655  19.290  1.00  0.00     0.001 C 
HETATM   16  C   LIG     1      26.736  22.830  20.737  1.00  0.00     0.019 C 
HETATM   17  C   LIG     1      26.214  22.807  18.231  1.00  0.00     0.005 C 
HETATM   18  C   LIG     1      25.862  24.285  18.202  1.00  0.00     0.013 C 
HETATM   19  C   LIG     1      27.225  24.993  18.408  1.00  0.00     0.025 C 
HETATM   20  C   LIG     1      27.073  26.253  19.278  1.00  0.00     0.013 C 
HETATM   21  C   LIG     1      28.234  23.910  18.968  1.00  0.00     0.131 C 
HETATM   22  C   LIG     1      22.327  19.444  17.109  1.00  0.00     0.058 C 
ENDROOT
BRANCH  21  23
HETATM   23  C   LIG     1      29.363  23.629  17.947  1.00  0.00     0.185 C 
HETATM   24  O   LIG     1      30.451  23.259  18.366  1.00  0.00    -0.292 OA
BRANCH  23  25
HETATM   25  C   LIG     1      29.228  23.765  16.443  1.00  0.00     0.245 C 
BRANCH  25  26
HETATM   26  O   LIG     1      28.866  22.533  15.881  1.00  0.00    -0.393 OA
HETATM   27  H   LIG     1      27.879  22.462  15.965  1.00  0.00     0.209 HD
ENDBRANCH  25  26
ENDBRANCH  23  25
ENDBRANCH  21  23
BRANCH  21  28
HETATM   28  O   LIG     1      28.841  24.400  20.149  1.00  0.00    -0.381 OA
HETATM   29  H   LIG     1      29.459  23.700  20.490  1.00  0.00     0.211 HD
ENDBRANCH  21  28
BRANCH  13  30
HETATM   30  O   LIG     1      27.401  20.338  16.986  1.00  0.00    -0.392 OA
HETATM   31  H   LIG     1      27.268  21.301  16.781  1.00  0.00     0.210 HD
ENDBRANCH  13  30
TORSDOF 5
ENDMDL
MODEL 2
REMARK VINA RESULT:      -4.9      2.727      6.792
REMARK  5 active torsions:
REMARK  status: ('A' for Active; 'I' for Inactive)
REMARK    1  A    between atoms: C_13  and  O_14 
REMARK    2  A    between atoms: C_22  and  C_24 
REMARK    3  A    between atoms: C_22  and  O_23 
REMARK    4  A    between atoms: C_24  and  C_25 
REMARK    5  A    between atoms: C_25  and  O_26 
ROOT
HETATM    1  O   LIG     1      29.005  27.639  17.674  1.00  0.00    -0.289 OA
HETATM    2  C   LIG     1      28.717  26.554  18.246  1.00  0.00     0.172 C 
HETATM    3  C   LIG     1      28.164  26.558  19.601  1.00  0.00     0.052 C 
HETATM    4  C   LIG     1      27.941  25.410  20.244  1.00  0.00    -0.006 C 
HETATM    5  C   LIG     1      28.409  24.060  19.700  1.00  0.00     0.036 C 
HETATM    6  C   LIG     1      29.766  23.775  20.383  1.00  0.00     0.028 C 
HETATM    7  C   LIG     1      28.662  24.119  18.173  1.00  0.00    -0.061 C 
HETATM    8  C   LIG     1      28.469  22.852  17.359  1.00  0.00     0.036 C 
HETATM    9  C   LIG     1      27.024  22.310  17.505  1.00  0.00     0.013 C 
HETATM   10  C   LIG     1      26.344  22.811  18.804  1.00  0.00     0.035 C 
HETATM   11  C   LIG     1      27.373  22.885  19.985  1.00  0.00     0.147 C 
HETATM   12  F   LIG     1      28.122  21.718  20.001  1.00  0.00    -0.238 F 
HETATM   13  C   LIG     1      26.622  22.903  21.357  1.00  0.00     0.160 C 
HETATM   14  C   LIG     1      25.800  21.586  21.572  1.00  0.00     0.048 C 
HETATM   15  C   LIG     1      25.087  21.026  20.276  1.00  0.00     0.001 C 
HETATM   16  C   LIG     1      25.883  19.782  19.747  1.00  0.00     0.019 C 
HETATM   17  C   LIG     1      25.008  22.127  19.210  1.00  0.00     0.005 C 
HETATM   18  C   LIG     1      24.041  21.619  18.153  1.00  0.00     0.013 C 
HETATM   19  C   LIG     1      22.959  20.872  18.973  1.00  0.00     0.025 C 
HETATM   20  C   LIG     1      22.471  19.614  18.236  1.00  0.00     0.013 C 
HETATM   21  C   LIG     1      23.558  20.614  20.414  1.00  0.00     0.131 C 
HETATM   22  C   LIG     1      28.870  25.282  17.536  1.00  0.00     0.058 C 
ENDROOT
BRANCH  21  23
HETATM   23  C   LIG     1      22.777  21.411  21.487  1.00  0.00     0.185 C 
HETATM   24  O   LIG     1      22.698  20.948  22.616  1.00  0.00    -0.292 OA
BRANCH  23  25
HETATM   25  C   LIG     1      22.100  22.748  21.255  1.00  0.00     0.245 C 
BRANCH  25  26
HETATM   26  O   LIG     1      22.957  23.791  21.630  1.00  0.00    -0.393 OA
HETATM   27  H   LIG     1      23.826  23.373  21.870  1.00  0.00     0.209 HD
ENDBRANCH  25  26
ENDBRANCH  23  25
ENDBRANCH  21  23
BRANCH  21  28
HETATM   28  O   LIG     1      23.439  19.241  20.734  1.00  0.00    -0.381 OA
HETATM   29  H   LIG     1      24.119  18.743  20.208  1.00  0.00     0.211 HD
ENDBRANCH  21  28
BRANCH  13  30
HETATM   30  O   LIG     1      25.754  24.007  21.438  1.00  0.00    -0.392 OA
HETATM   31  H   LIG     1      26.143  24.631  22.106  1.00  0.00     0.210 HD
ENDBRANCH  13  30
TORSDOF 5
ENDMDL
MODEL 3
REMARK VINA RESULT:      -4.8      4.067      6.831
REMARK  5 active torsions:
REMARK  status: ('A' for Active; 'I' for Inactive)
REMARK    1  A    between atoms: C_13  and  O_14 
REMARK    2  A    between atoms: C_22  and  C_24 
REMARK    3  A    between atoms: C_22  and  O_23 
REMARK    4  A    between atoms: C_24  and  C_25 
REMARK    5  A    between atoms: C_25  and  O_26 
ROOT
HETATM    1  O   LIG     1      27.199  19.412  27.408  1.00  0.00    -0.289 OA
HETATM    2  C   LIG     1      26.654  20.123  26.523  1.00  0.00     0.172 C 
HETATM    3  C   LIG     1      27.469  20.966  25.646  1.00  0.00     0.052 C 
HETATM    4  C   LIG     1      26.891  21.788  24.768  1.00  0.00    -0.006 C 
HETATM    5  C   LIG     1      25.383  22.037  24.748  1.00  0.00     0.036 C 
HETATM    6  C   LIG     1      25.154  23.324  25.573  1.00  0.00     0.028 C 
HETATM    7  C   LIG     1      24.607  20.894  25.448  1.00  0.00    -0.061 C 
HETATM    8  C   LIG     1      23.195  20.587  24.982  1.00  0.00     0.036 C 
HETATM    9  C   LIG     1      23.170  20.223  23.475  1.00  0.00     0.013 C 
HETATM   10  C   LIG     1      24.402  20.786  22.722  1.00  0.00     0.035 C 
HETATM   11  C   LIG     1      24.802  22.199  23.274  1.00  0.00     0.147 C 
HETATM   12  F   LIG     1      23.657  22.970  23.402  1.00  0.00    -0.238 F 
HETATM   13  C   LIG     1      25.685  22.958  22.230  1.00  0.00     0.160 C 
HETATM   14  C   LIG     1      24.900  23.212  20.898  1.00  0.00     0.048 C 
HETATM   15  C   LIG     1      23.962  22.023  20.440  1.00  0.00     0.001 C 
HETATM   16  C   LIG     1      22.469  22.401  20.739  1.00  0.00     0.019 C 
HETATM   17  C   LIG     1      24.364  20.734  21.169  1.00  0.00     0.005 C 
HETATM   18  C   LIG     1      23.651  19.604  20.445  1.00  0.00     0.013 C 
HETATM   19  C   LIG     1      23.704  20.028  18.956  1.00  0.00     0.025 C 
HETATM   20  C   LIG     1      22.409  19.644  18.220  1.00  0.00     0.013 C 
HETATM   21  C   LIG     1      24.062  21.569  18.920  1.00  0.00     0.131 C 
HETATM   22  C   LIG     1      25.205  20.065  26.318  1.00  0.00     0.058 C 
ENDROOT
BRANCH  21  23
HETATM   23  C   LIG     1      25.451  21.797  18.278  1.00  0.00     0.185 C 
HETATM   24  O   LIG     1      25.708  22.901  17.818  1.00  0.00    -0.292 OA
BRANCH  23  25
HETATM   25  C   LIG     1      26.545  20.752  18.177  1.00  0.00     0.245 C 
BRANCH  25  26
HETATM   26  O   LIG     1      27.346  20.783  19.327  1.00  0.00    -0.393 OA
HETATM   27  H   LIG     1      26.951  20.130  19.964  1.00  0.00     0.209 HD
ENDBRANCH  25  26
ENDBRANCH  23  25
ENDBRANCH  21  23
BRANCH  21  28
HETATM   28  O   LIG     1      23.110  22.255  18.130  1.00  0.00    -0.381 OA
HETATM   29  H   LIG     1      22.369  21.624  17.927  1.00  0.00     0.211 HD
ENDBRANCH  21  28
BRANCH  13  30
HETATM   30  O   LIG     1      26.856  22.232  21.944  1.00  0.00    -0.392 OA
HETATM   31  H   LIG     1      27.397  22.790  21.325  1.00  0.00     0.210 HD
ENDBRANCH  13  30
TORSDOF 5
ENDMDL
MODEL 4
REMARK VINA RESULT:      -4.7      3.567      7.030
REMARK  5 active torsions:
REMARK  status: ('A' for Active; 'I' for Inactive)
REMARK    1  A    between atoms: C_13  and  O_14 
REMARK    2  A    between atoms: C_22  and  C_24 
REMARK    3  A    between atoms: C_22  and  O_23 
REMARK    4  A    between atoms: C_24  and  C_25 
REMARK    5  A    between atoms: C_25  and  O_26 
ROOT
HETATM    1  O   LIG     1      30.303  28.286  18.629  1.00  0.00    -0.289 OA
HETATM    2  C   LIG     1      29.910  27.115  18.881  1.00  0.00     0.172 C 
HETATM    3  C   LIG     1      30.345  26.437  20.103  1.00  0.00     0.052 C 
HETATM    4  C   LIG     1      30.006  25.166  20.329  1.00  0.00    -0.006 C 
HETATM    5  C   LIG     1      29.319  24.301  19.273  1.00  0.00     0.036 C 
HETATM    6  C   LIG     1      30.448  23.508  18.575  1.00  0.00     0.028 C 
HETATM    7  C   LIG     1      28.623  25.164  18.193  1.00  0.00    -0.061 C 
HETATM    8  C   LIG     1      27.395  24.603  17.498  1.00  0.00     0.036 C 
HETATM    9  C   LIG     1      26.280  24.266  18.522  1.00  0.00     0.013 C 
HETATM   10  C   LIG     1      26.848  24.044  19.946  1.00  0.00     0.035 C 
HETATM   11  C   LIG     1      28.234  23.313  19.892  1.00  0.00     0.147 C 
HETATM   12  F   LIG     1      28.145  22.248  19.009  1.00  0.00    -0.238 F 
HETATM   13  C   LIG     1      28.558  22.663  21.278  1.00  0.00     0.160 C 
HETATM   14  C   LIG     1      27.500  21.571  21.654  1.00  0.00     0.048 C 
HETATM   15  C   LIG     1      26.008  21.925  21.265  1.00  0.00     0.001 C 
HETATM   16  C   LIG     1      25.594  21.094  20.001  1.00  0.00     0.019 C 
HETATM   17  C   LIG     1      25.884  23.432  21.002  1.00  0.00     0.005 C 
HETATM   18  C   LIG     1      24.394  23.730  20.961  1.00  0.00     0.013 C 
HETATM   19  C   LIG     1      23.803  22.803  22.053  1.00  0.00     0.025 C 
HETATM   20  C   LIG     1      22.434  22.243  21.629  1.00  0.00     0.013 C 
HETATM   21  C   LIG     1      24.900  21.710  22.384  1.00  0.00     0.131 C 
HETATM   22  C   LIG     1      28.965  26.446  17.986  1.00  0.00     0.058 C 
ENDROOT
BRANCH  21  23
HETATM   23  C   LIG     1      25.417  21.871  23.833  1.00  0.00     0.185 C 
HETATM   24  O   LIG     1      25.808  20.875  24.428  1.00  0.00    -0.292 OA
BRANCH  23  25
HETATM   25  C   LIG     1      25.494  23.182  24.589  1.00  0.00     0.245 C 
BRANCH  25  26
HETATM   26  O   LIG     1      26.805  23.678  24.560  1.00  0.00    -0.393 OA
HETATM   27  H   LIG     1      27.212  23.453  25.438  1.00  0.00     0.209 HD
ENDBRANCH  25  26
ENDBRANCH  23  25
ENDBRANCH  21  23
BRANCH  21  28
HETATM   28  O   LIG     1      24.326  20.421  22.277  1.00  0.00    -0.381 OA
HETATM   29  H   LIG     1      24.829  19.810  22.877  1.00  0.00     0.211 HD
ENDBRANCH  21  28
BRANCH  13  30
HETATM   30  O   LIG     1      28.595  23.638  22.291  1.00  0.00    -0.392 OA
HETATM   31  H   LIG     1      29.184  24.369  21.967  1.00  0.00     0.210 HD
ENDBRANCH  13  30
TORSDOF 5
ENDMDL
MODEL 5
REMARK VINA RESULT:      -4.6      4.857      6.634
REMARK  5 active torsions:
REMARK  status: ('A' for Active; 'I' for Inactive)
REMARK    1  A    between atoms: C_13  and  O_14 
REMARK    2  A    between atoms: C_22  and  C_24 
REMARK    3  A    between atoms: C_22  and  O_23 
REMARK    4  A    between atoms: C_24  and  C_25 
REMARK    5  A    between atoms: C_25  and  O_26 
ROOT
HETATM    1  O   LIG     1      22.060  22.589  19.943  1.00  0.00    -0.289 OA
HETATM    2  C   LIG     1      23.034  22.334  20.700  1.00  0.00     0.172 C 
HETATM    3  C   LIG     1      24.391  22.719  20.313  1.00  0.00     0.052 C 
HETATM    4  C   LIG     1      25.435  22.371  21.068  1.00  0.00    -0.006 C 
HETATM    5  C   LIG     1      25.307  21.415  22.254  1.00  0.00     0.036 C 
HETATM    6  C   LIG     1      25.679  20.015  21.712  1.00  0.00     0.028 C 
HETATM    7  C   LIG     1      23.850  21.340  22.770  1.00  0.00    -0.061 C 
HETATM    8  C   LIG     1      23.617  21.035  24.240  1.00  0.00     0.036 C 
HETATM    9  C   LIG     1      24.308  22.089  25.144  1.00  0.00     0.013 C 
HETATM   10  C   LIG     1      25.471  22.807  24.413  1.00  0.00     0.035 C 
HETATM   11  C   LIG     1      26.246  21.816  23.477  1.00  0.00     0.147 C 
HETATM   12  F   LIG     1      26.485  20.640  24.170  1.00  0.00    -0.238 F 
HETATM   13  C   LIG     1      27.664  22.385  23.141  1.00  0.00     0.160 C 
HETATM   14  C   LIG     1      28.535  22.539  24.435  1.00  0.00     0.048 C 
HETATM   15  C   LIG     1      27.749  23.046  25.711  1.00  0.00     0.001 C 
HETATM   16  C   LIG     1      27.515  21.839  26.685  1.00  0.00     0.019 C 
HETATM   17  C   LIG     1      26.419  23.680  25.284  1.00  0.00     0.005 C 
HETATM   18  C   LIG     1      25.895  24.418  26.505  1.00  0.00     0.013 C 
HETATM   19  C   LIG     1      27.173  25.001  27.159  1.00  0.00     0.025 C 
HETATM   20  C   LIG     1      27.082  24.959  28.694  1.00  0.00     0.013 C 
HETATM   21  C   LIG     1      28.409  24.231  26.540  1.00  0.00     0.131 C 
HETATM   22  C   LIG     1      22.810  21.707  22.005  1.00  0.00     0.058 C 
ENDROOT
BRANCH  21  23
HETATM   23  C   LIG     1      29.287  25.187  25.698  1.00  0.00     0.185 C 
HETATM   24  O   LIG     1      30.504  25.102  25.797  1.00  0.00    -0.292 OA
BRANCH  23  25
HETATM   25  C   LIG     1      28.759  26.230  24.733  1.00  0.00     0.245 C 
BRANCH  25  26
HETATM   26  O   LIG     1      29.088  25.879  23.417  1.00  0.00    -0.393 OA
HETATM   27  H   LIG     1      28.284  25.439  23.032  1.00  0.00     0.209 HD
ENDBRANCH  25  26
ENDBRANCH  23  25
ENDBRANCH  21  23
BRANCH  21  28
HETATM   28  O   LIG     1      29.215  23.721  27.585  1.00  0.00    -0.381 OA
HETATM   29  H   LIG     1      28.654  23.115  28.137  1.00  0.00     0.211 HD
ENDBRANCH  21  28
BRANCH  13  30
HETATM   30  O   LIG     1      27.564  23.633  22.501  1.00  0.00    -0.392 OA
HETATM   31  H   LIG     1      27.430  23.452  21.534  1.00  0.00     0.210 HD
ENDBRANCH  13  30
TORSDOF 5
ENDMDL
MODEL 6
REMARK VINA RESULT:      -4.6     15.571     17.503
REMARK  5 active torsions:
REMARK  status: ('A' for Active; 'I' for Inactive)
REMARK    1  A    between atoms: C_13  and  O_14 
REMARK    2  A    between atoms: C_22  and  C_24 
REMARK    3  A    between atoms: C_22  and  O_23 
REMARK    4  A    between atoms: C_24  and  C_25 
REMARK    5  A    between atoms: C_25  and  O_26 
ROOT
HETATM    1  O   LIG     1      18.843  22.423  30.929  1.00  0.00    -0.289 OA
HETATM    2  C   LIG     1      19.449  22.073  31.976  1.00  0.00     0.172 C 
HETATM    3  C   LIG     1      20.234  20.838  31.998  1.00  0.00     0.052 C 
HETATM    4  C   LIG     1      20.803  20.417  33.130  1.00  0.00    -0.006 C 
HETATM    5  C   LIG     1      20.526  21.076  34.481  1.00  0.00     0.036 C 
HETATM    6  C   LIG     1      19.409  20.235  35.142  1.00  0.00     0.028 C 
HETATM    7  C   LIG     1      19.984  22.516  34.312  1.00  0.00    -0.061 C 
HETATM    8  C   LIG     1      20.275  23.531  35.403  1.00  0.00     0.036 C 
HETATM    9  C   LIG     1      21.802  23.700  35.616  1.00  0.00     0.013 C 
HETATM   10  C   LIG     1      22.597  22.465  35.121  1.00  0.00     0.035 C 
HETATM   11  C   LIG     1      21.815  21.137  35.414  1.00  0.00     0.147 C 
HETATM   12  F   LIG     1      21.337  21.177  36.715  1.00  0.00    -0.238 F 
HETATM   13  C   LIG     1      22.790  19.915  35.379  1.00  0.00     0.160 C 
HETATM   14  C   LIG     1      23.889  20.033  36.490  1.00  0.00     0.048 C 
HETATM   15  C   LIG     1      24.445  21.495  36.726  1.00  0.00     0.001 C 
HETATM   16  C   LIG     1      23.835  22.071  38.051  1.00  0.00     0.019 C 
HETATM   17  C   LIG     1      24.096  22.383  35.524  1.00  0.00     0.005 C 
HETATM   18  C   LIG     1      24.931  23.644  35.678  1.00  0.00     0.013 C 
HETATM   19  C   LIG     1      26.277  23.128  36.246  1.00  0.00     0.025 C 
HETATM   20  C   LIG     1      26.864  24.113  37.271  1.00  0.00     0.013 C 
HETATM   21  C   LIG     1      26.024  21.665  36.793  1.00  0.00     0.131 C 
HETATM   22  C   LIG     1      19.427  22.931  33.163  1.00  0.00     0.058 C 
ENDROOT
BRANCH  21  23
HETATM   23  C   LIG     1      26.813  20.623  35.963  1.00  0.00     0.185 C 
HETATM   24  O   LIG     1      27.191  19.600  36.517  1.00  0.00    -0.292 OA
BRANCH  23  25
HETATM   25  C   LIG     1      27.153  20.761  34.492  1.00  0.00     0.245 C 
BRANCH  25  26
HETATM   26  O   LIG     1      26.180  20.122  33.712  1.00  0.00    -0.393 OA
HETATM   27  H   LIG     1      25.683  19.514  34.322  1.00  0.00     0.209 HD
ENDBRANCH  25  26
ENDBRANCH  23  25
ENDBRANCH  21  23
BRANCH  21  28
HETATM   28  O   LIG     1      26.479  21.577  38.129  1.00  0.00    -0.381 OA
HETATM   29  H   LIG     1      27.457  21.754  38.133  1.00  0.00     0.211 HD
ENDBRANCH  21  28
BRANCH  13  30
HETATM   30  O   LIG     1      23.414  19.809  34.123  1.00  0.00    -0.392 OA
HETATM   31  H   LIG     1      22.694  19.843  33.439  1.00  0.00     0.210 HD
ENDBRANCH  13  30
TORSDOF 5
ENDMDL
MODEL 7
REMARK VINA RESULT:      -4.5      4.903      6.756
REMARK  5 active torsions:
REMARK  status: ('A' for Active; 'I' for Inactive)
REMARK    1  A    between atoms: C_13  and  O_14 
REMARK    2  A    between atoms: C_22  and  C_24 
REMARK    3  A    between atoms: C_22  and  O_23 
REMARK    4  A    between atoms: C_24  and  C_25 
REMARK    5  A    between atoms: C_25  and  O_26 
ROOT
HETATM    1  O   LIG     1      24.542  20.298  17.309  1.00  0.00    -0.289 OA
HETATM    2  C   LIG     1      24.377  20.719  18.485  1.00  0.00     0.172 C 
HETATM    3  C   LIG     1      23.659  19.905  19.467  1.00  0.00     0.052 C 
HETATM    4  C   LIG     1      23.403  20.385  20.686  1.00  0.00    -0.006 C 
HETATM    5  C   LIG     1      23.669  21.841  21.067  1.00  0.00     0.036 C 
HETATM    6  C   LIG     1      22.325  22.582  20.876  1.00  0.00     0.028 C 
HETATM    7  C   LIG     1      24.699  22.499  20.118  1.00  0.00    -0.061 C 
HETATM    8  C   LIG     1      25.576  23.613  20.661  1.00  0.00     0.036 C 
HETATM    9  C   LIG     1      26.406  23.127  21.878  1.00  0.00     0.013 C 
HETATM   10  C   LIG     1      25.762  21.896  22.565  1.00  0.00     0.035 C 
HETATM   11  C   LIG     1      24.197  22.004  22.560  1.00  0.00     0.147 C 
HETATM   12  F   LIG     1      23.835  23.283  22.952  1.00  0.00    -0.238 F 
HETATM   13  C   LIG     1      23.586  21.060  23.648  1.00  0.00     0.160 C 
HETATM   14  C   LIG     1      24.052  21.474  25.086  1.00  0.00     0.048 C 
HETATM   15  C   LIG     1      25.558  21.946  25.190  1.00  0.00     0.001 C 
HETATM   16  C   LIG     1      25.599  23.508  25.331  1.00  0.00     0.019 C 
HETATM   17  C   LIG     1      26.334  21.482  23.950  1.00  0.00     0.005 C 
HETATM   18  C   LIG     1      27.804  21.683  24.277  1.00  0.00     0.013 C 
HETATM   19  C   LIG     1      27.903  21.310  25.777  1.00  0.00     0.025 C 
HETATM   20  C   LIG     1      28.900  22.220  26.514  1.00  0.00     0.013 C 
HETATM   21  C   LIG     1      26.432  21.319  26.360  1.00  0.00     0.131 C 
HETATM   22  C   LIG     1      24.958  21.997  18.899  1.00  0.00     0.058 C 
ENDROOT
BRANCH  21  23
HETATM   23  C   LIG     1      25.999  19.896  26.786  1.00  0.00     0.185 C 
HETATM   24  O   LIG     1      25.267  19.775  27.760  1.00  0.00    -0.292 OA
BRANCH  23  25
HETATM   25  C   LIG     1      26.403  18.617  26.081  1.00  0.00     0.245 C 
BRANCH  25  26
HETATM   26  O   LIG     1      25.330  18.124  25.327  1.00  0.00    -0.393 OA
HETATM   27  H   LIG     1      25.298  17.144  25.486  1.00  0.00     0.209 HD
ENDBRANCH  25  26
ENDBRANCH  23  25
ENDBRANCH  21  23
BRANCH  21  28
HETATM   28  O   LIG     1      26.387  22.141  27.511  1.00  0.00    -0.381 OA
HETATM   29  H   LIG     1      25.807  22.922  27.309  1.00  0.00     0.211 HD
ENDBRANCH  21  28
BRANCH  13  30
HETATM   30  O   LIG     1      23.953  19.722  23.413  1.00  0.00    -0.392 OA
HETATM   31  H   LIG     1      24.776  19.551  23.942  1.00  0.00     0.210 HD
ENDBRANCH  13  30
TORSDOF 5
ENDMDL
MODEL 8
REMARK VINA RESULT:      -4.5      4.097      6.149
REMARK  5 active torsions:
REMARK  status: ('A' for Active; 'I' for Inactive)
REMARK    1  A    between atoms: C_13  and  O_14 
REMARK    2  A    between atoms: C_22  and  C_24 
REMARK    3  A    between atoms: C_22  and  O_23 
REMARK    4  A    between atoms: C_24  and  C_25 
REMARK    5  A    between atoms: C_25  and  O_26 
ROOT
HETATM    1  O   LIG     1      22.369  21.574  27.274  1.00  0.00    -0.289 OA
HETATM    2  C   LIG     1      23.161  21.308  26.330  1.00  0.00     0.172 C 
HETATM    3  C   LIG     1      22.810  20.295  25.334  1.00  0.00     0.052 C 
HETATM    4  C   LIG     1      23.682  19.945  24.387  1.00  0.00    -0.006 C 
HETATM    5  C   LIG     1      25.132  20.427  24.390  1.00  0.00     0.036 C 
HETATM    6  C   LIG     1      25.952  19.304  25.067  1.00  0.00     0.028 C 
HETATM    7  C   LIG     1      25.306  21.707  25.244  1.00  0.00    -0.061 C 
HETATM    8  C   LIG     1      26.403  22.686  24.866  1.00  0.00     0.036 C 
HETATM    9  C   LIG     1      26.219  23.196  23.413  1.00  0.00     0.013 C 
HETATM   10  C   LIG     1      25.372  22.221  22.558  1.00  0.00     0.035 C 
HETATM   11  C   LIG     1      25.687  20.729  22.928  1.00  0.00     0.147 C 
HETATM   12  F   LIG     1      27.062  20.567  23.005  1.00  0.00    -0.238 F 
HETATM   13  C   LIG     1      25.232  19.777  21.773  1.00  0.00     0.160 C 
HETATM   14  C   LIG     1      26.013  20.077  20.448  1.00  0.00     0.048 C 
HETATM   15  C   LIG     1      26.282  21.610  20.164  1.00  0.00     0.001 C 
HETATM   16  C   LIG     1      27.786  21.934  20.468  1.00  0.00     0.019 C 
HETATM   17  C   LIG     1      25.345  22.469  21.023  1.00  0.00     0.005 C 
HETATM   18  C   LIG     1      25.434  23.878  20.461  1.00  0.00     0.013 C 
HETATM   19  C   LIG     1      25.549  23.658  18.932  1.00  0.00     0.025 C 
HETATM   20  C   LIG     1      26.499  24.682  18.290  1.00  0.00     0.013 C 
HETATM   21  C   LIG     1      25.946  22.143  18.705  1.00  0.00     0.131 C 
HETATM   22  C   LIG     1      24.412  22.054  26.184  1.00  0.00     0.058 C 
ENDROOT
BRANCH  21  23
HETATM   23  C   LIG     1      24.806  21.375  17.993  1.00  0.00     0.185 C 
HETATM   24  O   LIG     1      25.103  20.531  17.159  1.00  0.00    -0.292 OA
BRANCH  23  25
HETATM   25  C   LIG     1      23.327  21.576  18.255  1.00  0.00     0.245 C 
BRANCH  25  26
HETATM   26  O   LIG     1      22.809  20.480  18.958  1.00  0.00    -0.393 OA
HETATM   27  H   LIG     1      22.497  19.828  18.276  1.00  0.00     0.209 HD
ENDBRANCH  25  26
ENDBRANCH  23  25
ENDBRANCH  21  23
BRANCH  21  28
HETATM   28  O   LIG     1      27.089  22.076  17.874  1.00  0.00    -0.381 OA
HETATM   29  H   LIG     1      27.893  22.086  18.457  1.00  0.00     0.211 HD
ENDBRANCH  21  28
BRANCH  13  30
HETATM   30  O   LIG     1      23.852  19.906  21.533  1.00  0.00    -0.392 OA
HETATM   31  H   LIG     1      23.405  19.925  22.420  1.00  0.00     0.210 HD
ENDBRANCH  13  30
TORSDOF 5
ENDMDL
MODEL 9
REMARK VINA RESULT:      -4.3      3.733      5.607
REMARK  5 active torsions:
REMARK  status: ('A' for Active; 'I' for Inactive)
REMARK    1  A    between atoms: C_13  and  O_14 
REMARK    2  A    between atoms: C_22  and  C_24 
REMARK    3  A    between atoms: C_22  and  O_23 
REMARK    4  A    between atoms: C_24  and  C_25 
REMARK    5  A    between atoms: C_25  and  O_26 
ROOT
HETATM    1  O   LIG     1      23.499  18.129  16.212  1.00  0.00    -0.289 OA
HETATM    2  C   LIG     1      23.714  19.047  17.048  1.00  0.00     0.172 C 
HETATM    3  C   LIG     1      22.677  19.431  18.007  1.00  0.00     0.052 C 
HETATM    4  C   LIG     1      22.866  20.462  18.833  1.00  0.00    -0.006 C 
HETATM    5  C   LIG     1      24.067  21.401  18.711  1.00  0.00     0.036 C 
HETATM    6  C   LIG     1      23.577  22.609  17.879  1.00  0.00     0.028 C 
HETATM    7  C   LIG     1      25.229  20.741  17.929  1.00  0.00    -0.061 C 
HETATM    8  C   LIG     1      26.651  21.163  18.254  1.00  0.00     0.036 C 
HETATM    9  C   LIG     1      26.980  20.911  19.748  1.00  0.00     0.013 C 
HETATM   10  C   LIG     1      25.701  20.846  20.621  1.00  0.00     0.035 C 
HETATM   11  C   LIG     1      24.627  21.876  20.123  1.00  0.00     0.147 C 
HETATM   12  F   LIG     1      25.247  23.094  19.893  1.00  0.00    -0.238 F 
HETATM   13  C   LIG     1      23.584  22.160  21.254  1.00  0.00     0.160 C 
HETATM   14  C   LIG     1      24.267  22.808  22.507  1.00  0.00     0.048 C 
HETATM   15  C   LIG     1      25.696  22.229  22.862  1.00  0.00     0.001 C 
HETATM   16  C   LIG     1      26.793  23.261  22.425  1.00  0.00     0.019 C 
HETATM   17  C   LIG     1      25.897  20.877  22.163  1.00  0.00     0.005 C 
HETATM   18  C   LIG     1      27.125  20.252  22.804  1.00  0.00     0.013 C 
HETATM   19  C   LIG     1      27.007  20.655  24.296  1.00  0.00     0.025 C 
HETATM   20  C   LIG     1      28.388  20.963  24.901  1.00  0.00     0.013 C 
HETATM   21  C   LIG     1      25.960  21.839  24.380  1.00  0.00     0.131 C 
HETATM   22  C   LIG     1      25.026  19.695  17.112  1.00  0.00     0.058 C 
ENDROOT
BRANCH  21  23
HETATM   23  C   LIG     1      24.694  21.400  25.155  1.00  0.00     0.185 C 
HETATM   24  O   LIG     1      24.168  22.202  25.915  1.00  0.00    -0.292 OA
BRANCH  23  25
HETATM   25  C   LIG     1      24.034  20.041  25.042  1.00  0.00     0.245 C 
BRANCH  25  26
HETATM   26  O   LIG     1      22.809  20.156  24.370  1.00  0.00    -0.393 OA
HETATM   27  H   LIG     1      22.781  19.419  23.704  1.00  0.00     0.209 HD
ENDBRANCH  25  26
ENDBRANCH  23  25
ENDBRANCH  21  23
BRANCH  21  28
HETATM   28  O   LIG     1      26.535  22.925  25.082  1.00  0.00    -0.381 OA
HETATM   29  H   LIG     1      27.327  22.587  25.576  1.00  0.00     0.211 HD
ENDBRANCH  21  28
BRANCH  13  30
HETATM   30  O   LIG     1      22.935  20.975  21.645  1.00  0.00    -0.392 OA
HETATM   31  H   LIG     1      23.276  20.743  22.549  1.00  0.00     0.210 HD
ENDBRANCH  13  30
TORSDOF 5
ENDMDL
MODEL 10
REMARK VINA RESULT:      -4.2      8.768     10.662
REMARK  5 active torsions:
REMARK  status: ('A' for Active; 'I' for Inactive)
REMARK    1  A    between atoms: C_13  and  O_14 
REMARK    2  A    between atoms: C_22  and  C_24 
REMARK    3  A    between atoms: C_22  and  O_23 
REMARK    4  A    between atoms: C_24  and  C_25 
REMARK    5  A    between atoms: C_25  and  O_26 
ROOT
HETATM    1  O   LIG     1      18.746  20.846  30.128  1.00  0.00    -0.289 OA
HETATM    2  C   LIG     1      19.792  20.673  29.447  1.00  0.00     0.172 C 
HETATM    3  C   LIG     1      20.149  21.619  28.389  1.00  0.00     0.052 C 
HETATM    4  C   LIG     1      21.206  21.392  27.606  1.00  0.00    -0.006 C 
HETATM    5  C   LIG     1      21.981  20.075  27.637  1.00  0.00     0.036 C 
HETATM    6  C   LIG     1      21.392  19.209  26.498  1.00  0.00     0.028 C 
HETATM    7  C   LIG     1      21.754  19.311  28.964  1.00  0.00    -0.061 C 
HETATM    8  C   LIG     1      22.861  18.408  29.478  1.00  0.00     0.036 C 
HETATM    9  C   LIG     1      24.175  19.204  29.693  1.00  0.00     0.013 C 
HETATM   10  C   LIG     1      24.214  20.500  28.844  1.00  0.00     0.035 C 
HETATM   11  C   LIG     1      23.548  20.274  27.442  1.00  0.00     0.147 C 
HETATM   12  F   LIG     1      24.017  19.083  26.910  1.00  0.00    -0.238 F 
HETATM   13  C   LIG     1      24.016  21.378  26.437  1.00  0.00     0.160 C 
HETATM   14  C   LIG     1      25.564  21.316  26.204  1.00  0.00     0.048 C 
HETATM   15  C   LIG     1      26.420  20.993  27.494  1.00  0.00     0.001 C 
HETATM   16  C   LIG     1      26.912  19.505  27.427  1.00  0.00     0.019 C 
HETATM   17  C   LIG     1      25.578  21.242  28.752  1.00  0.00     0.005 C 
HETATM   18  C   LIG     1      26.551  21.228  29.918  1.00  0.00     0.013 C 
HETATM   19  C   LIG     1      27.817  21.918  29.350  1.00  0.00     0.025 C 
HETATM   20  C   LIG     1      29.100  21.264  29.892  1.00  0.00     0.013 C 
HETATM   21  C   LIG     1      27.681  21.919  27.773  1.00  0.00     0.131 C 
HETATM   22  C   LIG     1      20.694  19.560  29.750  1.00  0.00     0.058 C 
ENDROOT
BRANCH  21  23
HETATM   23  C   LIG     1      27.544  23.363  27.234  1.00  0.00     0.185 C 
HETATM   24  O   LIG     1      28.178  23.677  26.236  1.00  0.00    -0.292 OA
BRANCH  23  25
HETATM   25  C   LIG     1      26.665  24.438  27.842  1.00  0.00     0.245 C 
BRANCH  25  26
HETATM   26  O   LIG     1      25.723  24.877  26.902  1.00  0.00    -0.393 OA
HETATM   27  H   LIG     1      26.059  25.742  26.547  1.00  0.00     0.209 HD
ENDBRANCH  25  26
ENDBRANCH  23  25
ENDBRANCH  21  23
BRANCH  21  28
HETATM   28  O   LIG     1      28.848  21.360  27.201  1.00  0.00    -0.381 OA
HETATM   29  H   LIG     1      28.872  20.395  27.433  1.00  0.00     0.211 HD
ENDBRANCH  21  28
BRANCH  13  30
HETATM   30  O   LIG     1      23.671  22.659  26.905  1.00  0.00    -0.392 OA
HETATM   31  H   LIG     1      22.991  22.532  27.617  1.00  0.00     0.210 HD
ENDBRANCH  13  30
TORSDOF 5
ENDMDL
MODEL 11
REMARK VINA RESULT:      -4.2      4.369      7.795
REMARK  5 active torsions:
REMARK  status: ('A' for Active; 'I' for Inactive)
REMARK    1  A    between atoms: C_13  and  O_14 
REMARK    2  A    between atoms: C_22  and  C_24 
REMARK    3  A    between atoms: C_22  and  O_23 
REMARK    4  A    between atoms: C_24  and  C_25 
REMARK    5  A    between atoms: C_25  and  O_26 
ROOT
HETATM    1  O   LIG     1      26.984  25.575  28.482  1.00  0.00    -0.289 OA
HETATM    2  C   LIG     1      26.994  24.743  27.535  1.00  0.00     0.172 C 
HETATM    3  C   LIG     1      25.827  23.897  27.283  1.00  0.00     0.052 C 
HETATM    4  C   LIG     1      25.866  22.953  26.340  1.00  0.00    -0.006 C 
HETATM    5  C   LIG     1      27.154  22.577  25.609  1.00  0.00     0.036 C 
HETATM    6  C   LIG     1      27.729  21.355  26.362  1.00  0.00     0.028 C 
HETATM    7  C   LIG     1      28.207  23.709  25.692  1.00  0.00    -0.061 C 
HETATM    8  C   LIG     1      29.206  23.853  24.557  1.00  0.00     0.036 C 
HETATM    9  C   LIG     1      28.484  24.076  23.203  1.00  0.00     0.013 C 
HETATM   10  C   LIG     1      27.025  23.553  23.230  1.00  0.00     0.035 C 
HETATM   11  C   LIG     1      26.916  22.234  24.072  1.00  0.00     0.147 C 
HETATM   12  F   LIG     1      27.950  21.385  23.711  1.00  0.00    -0.238 F 
HETATM   13  C   LIG     1      25.608  21.461  23.700  1.00  0.00     0.160 C 
HETATM   14  C   LIG     1      25.615  21.023  22.196  1.00  0.00     0.048 C 
HETATM   15  C   LIG     1      26.232  22.082  21.195  1.00  0.00     0.001 C 
HETATM   16  C   LIG     1      27.663  21.609  20.762  1.00  0.00     0.019 C 
HETATM   17  C   LIG     1      26.284  23.461  21.866  1.00  0.00     0.005 C 
HETATM   18  C   LIG     1      26.571  24.457  20.756  1.00  0.00     0.013 C 
HETATM   19  C   LIG     1      25.768  23.906  19.550  1.00  0.00     0.025 C 
HETATM   20  C   LIG     1      26.532  24.112  18.231  1.00  0.00     0.013 C 
HETATM   21  C   LIG     1      25.398  22.404  19.881  1.00  0.00     0.131 C 
HETATM   22  C   LIG     1      28.147  24.661  26.637  1.00  0.00     0.058 C 
ENDROOT
BRANCH  21  23
HETATM   23  C   LIG     1      23.868  22.237  20.040  1.00  0.00     0.185 C 
HETATM   24  O   LIG     1      23.311  22.808  20.968  1.00  0.00    -0.292 OA
BRANCH  23  25
HETATM   25  C   LIG     1      22.982  21.419  19.121  1.00  0.00     0.245 C 
BRANCH  25  26
HETATM   26  O   LIG     1      22.860  22.058  17.880  1.00  0.00    -0.393 OA
HETATM   27  H   LIG     1      22.428  21.405  17.267  1.00  0.00     0.209 HD
ENDBRANCH  25  26
ENDBRANCH  23  25
ENDBRANCH  21  23
BRANCH  21  28
HETATM   28  O   LIG     1      25.809  21.572  18.813  1.00  0.00    -0.381 OA
HETATM   29  H   LIG     1      25.415  21.932  17.975  1.00  0.00     0.211 HD
ENDBRANCH  21  28
BRANCH  13  30
HETATM   30  O   LIG     1      24.472  22.254  23.944  1.00  0.00    -0.392 OA
HETATM   31  H   LIG     1      24.794  23.181  24.095  1.00  0.00     0.210 HD
ENDBRANCH  13  30
TORSDOF 5
ENDMDL
MODEL 12
REMARK VINA RESULT:      -4.1      4.968      7.941
REMARK  5 active torsions:
REMARK  status: ('A' for Active; 'I' for Inactive)
REMARK    1  A    between atoms: C_13  and  O_14 
REMARK    2  A    between atoms: C_22  and  C_24 
REMARK    3  A    between atoms: C_22  and  O_23 
REMARK    4  A    between atoms: C_24  and  C_25 
REMARK    5  A    between atoms: C_25  and  O_26 
ROOT
HETATM    1  O   LIG     1      26.363  26.182  18.859  1.00  0.00    -0.289 OA
HETATM    2  C   LIG     1      26.685  25.357  19.755  1.00  0.00     0.172 C 
HETATM    3  C   LIG     1      27.684  25.714  20.763  1.00  0.00     0.052 C 
HETATM    4  C   LIG     1      28.095  24.813  21.658  1.00  0.00    -0.006 C 
HETATM    5  C   LIG     1      27.699  23.339  21.578  1.00  0.00     0.036 C 
HETATM    6  C   LIG     1      28.862  22.627  20.850  1.00  0.00     0.028 C 
HETATM    7  C   LIG     1      26.424  23.137  20.724  1.00  0.00    -0.061 C 
HETATM    8  C   LIG     1      25.515  21.964  21.046  1.00  0.00     0.036 C 
HETATM    9  C   LIG     1      25.009  22.037  22.510  1.00  0.00     0.013 C 
HETATM   10  C   LIG     1      25.940  22.893  23.405  1.00  0.00     0.035 C 
HETATM   11  C   LIG     1      27.445  22.688  23.009  1.00  0.00     0.147 C 
HETATM   12  F   LIG     1      27.687  21.332  22.856  1.00  0.00    -0.238 F 
HETATM   13  C   LIG     1      28.378  23.136  24.181  1.00  0.00     0.160 C 
HETATM   14  C   LIG     1      28.138  22.267  25.463  1.00  0.00     0.048 C 
HETATM   15  C   LIG     1      26.627  21.892  25.741  1.00  0.00     0.001 C 
HETATM   16  C   LIG     1      26.390  20.390  25.356  1.00  0.00     0.019 C 
HETATM   17  C   LIG     1      25.706  22.821  24.940  1.00  0.00     0.005 C 
HETATM   18  C   LIG     1      24.310  22.616  25.505  1.00  0.00     0.013 C 
HETATM   19  C   LIG     1      24.551  22.432  27.025  1.00  0.00     0.025 C 
HETATM   20  C   LIG     1      23.590  21.388  27.620  1.00  0.00     0.013 C 
HETATM   21  C   LIG     1      26.089  22.115  27.220  1.00  0.00     0.131 C 
HETATM   22  C   LIG     1      26.015  24.058  19.837  1.00  0.00     0.058 C 
ENDROOT
BRANCH  21  23
HETATM   23  C   LIG     1      26.794  23.258  27.989  1.00  0.00     0.185 C 
HETATM   24  O   LIG     1      27.613  22.965  28.849  1.00  0.00    -0.292 OA
BRANCH  23  25
HETATM   25  C   LIG     1      26.560  24.737  27.755  1.00  0.00     0.245 C 
BRANCH  25  26
HETATM   26  O   LIG     1      27.717  25.330  27.234  1.00  0.00    -0.393 OA
HETATM   27  H   LIG     1      28.482  24.961  27.751  1.00  0.00     0.209 HD
ENDBRANCH  25  26
ENDBRANCH  23  25
ENDBRANCH  21  23
BRANCH  21  28
HETATM   28  O   LIG     1      26.231  20.934  27.987  1.00  0.00    -0.381 OA
HETATM   29  H   LIG     1      25.326  20.643  28.273  1.00  0.00     0.211 HD
ENDBRANCH  21  28
BRANCH  13  30
HETATM   30  O   LIG     1      28.170  24.491  24.498  1.00  0.00    -0.392 OA
HETATM   31  H   LIG     1      27.309  24.542  24.991  1.00  0.00     0.210 HD
ENDBRANCH  13  30
TORSDOF 5
ENDMDL
MODEL 13
REMARK VINA RESULT:      -4.1      5.464      8.282
REMARK  5 active torsions:
REMARK  status: ('A' for Active; 'I' for Inactive)
REMARK    1  A    between atoms: C_13  and  O_14 
REMARK    2  A    between atoms: C_22  and  C_24 
REMARK    3  A    between atoms: C_22  and  O_23 
REMARK    4  A    between atoms: C_24  and  C_25 
REMARK    5  A    between atoms: C_25  and  O_26 
ROOT
HETATM    1  O   LIG     1      25.810  25.633  18.640  1.00  0.00    -0.289 OA
HETATM    2  C   LIG     1      26.507  25.184  19.588  1.00  0.00     0.172 C 
HETATM    3  C   LIG     1      27.727  25.880  20.001  1.00  0.00     0.052 C 
HETATM    4  C   LIG     1      28.517  25.361  20.944  1.00  0.00    -0.006 C 
HETATM    5  C   LIG     1      28.306  23.955  21.507  1.00  0.00     0.036 C 
HETATM    6  C   LIG     1      29.250  23.031  20.702  1.00  0.00     0.028 C 
HETATM    7  C   LIG     1      26.859  23.458  21.272  1.00  0.00    -0.061 C 
HETATM    8  C   LIG     1      26.261  22.477  22.265  1.00  0.00     0.036 C 
HETATM    9  C   LIG     1      26.254  23.069  23.698  1.00  0.00     0.013 C 
HETATM   10  C   LIG     1      27.310  24.190  23.868  1.00  0.00     0.035 C 
HETATM   11  C   LIG     1      28.616  23.860  23.065  1.00  0.00     0.147 C 
HETATM   12  F   LIG     1      28.965  22.540  23.301  1.00  0.00    -0.238 F 
HETATM   13  C   LIG     1      29.816  24.700  23.615  1.00  0.00     0.160 C 
HETATM   14  C   LIG     1      30.119  24.347  25.112  1.00  0.00     0.048 C 
HETATM   15  C   LIG     1      28.840  24.094  26.009  1.00  0.00     0.001 C 
HETATM   16  C   LIG     1      28.683  22.554  26.259  1.00  0.00     0.019 C 
HETATM   17  C   LIG     1      27.599  24.673  25.318  1.00  0.00     0.005 C 
HETATM   18  C   LIG     1      26.500  24.683  26.368  1.00  0.00     0.013 C 
HETATM   19  C   LIG     1      27.244  25.056  27.676  1.00  0.00     0.025 C 
HETATM   20  C   LIG     1      26.670  24.293  28.881  1.00  0.00     0.013 C 
HETATM   21  C   LIG     1      28.789  24.832  27.416  1.00  0.00     0.131 C 
HETATM   22  C   LIG     1      26.071  23.999  20.329  1.00  0.00     0.058 C 
ENDROOT
BRANCH  21  23
HETATM   23  C   LIG     1      29.555  26.176  27.459  1.00  0.00     0.185 C 
HETATM   24  O   LIG     1      29.462  26.933  26.502  1.00  0.00    -0.292 OA
BRANCH  23  25
HETATM   25  C   LIG     1      30.418  26.647  28.613  1.00  0.00     0.245 C 
BRANCH  25  26
HETATM   26  O   LIG     1      29.732  26.486  29.824  1.00  0.00    -0.393 OA
HETATM   27  H   LIG     1      29.744  25.513  30.028  1.00  0.00     0.209 HD
ENDBRANCH  25  26
ENDBRANCH  23  25
ENDBRANCH  21  23
BRANCH  21  28
HETATM   28  O   LIG     1      29.321  24.005  28.433  1.00  0.00    -0.381 OA
HETATM   29  H   LIG     1      30.172  24.412  28.746  1.00  0.00     0.211 HD
ENDBRANCH  21  28
BRANCH  13  30
HETATM   30  O   LIG     1      29.552  26.078  23.511  1.00  0.00    -0.392 OA
HETATM   31  H   LIG     1      30.423  26.546  23.606  1.00  0.00     0.210 HD
ENDBRANCH  13  30
TORSDOF 5
ENDMDL
MODEL 14
REMARK VINA RESULT:      -4.1      4.957      8.019
REMARK  5 active torsions:
REMARK  status: ('A' for Active; 'I' for Inactive)
REMARK    1  A    between atoms: C_13  and  O_14 
REMARK    2  A    between atoms: C_22  and  C_24 
REMARK    3  A    between atoms: C_22  and  O_23 
REMARK    4  A    between atoms: C_24  and  C_25 
REMARK    5  A    between atoms: C_25  and  O_26 
ROOT
HETATM    1  O   LIG     1      27.460  20.990  29.421  1.00  0.00    -0.289 OA
HETATM    2  C   LIG     1      26.993  21.442  28.341  1.00  0.00     0.172 C 
HETATM    3  C   LIG     1      27.893  21.903  27.283  1.00  0.00     0.052 C 
HETATM    4  C   LIG     1      27.404  22.465  26.175  1.00  0.00    -0.006 C 
HETATM    5  C   LIG     1      25.926  22.825  26.023  1.00  0.00     0.036 C 
HETATM    6  C   LIG     1      25.811  24.318  26.410  1.00  0.00     0.028 C 
HETATM    7  C   LIG     1      25.039  22.022  27.005  1.00  0.00    -0.061 C 
HETATM    8  C   LIG     1      23.609  21.710  26.601  1.00  0.00     0.036 C 
HETATM    9  C   LIG     1      23.567  20.908  25.275  1.00  0.00     0.013 C 
HETATM   10  C   LIG     1      24.854  21.106  24.435  1.00  0.00     0.035 C 
HETATM   11  C   LIG     1      25.378  22.580  24.548  1.00  0.00     0.147 C 
HETATM   12  F   LIG     1      24.309  23.449  24.393  1.00  0.00    -0.238 F 
HETATM   13  C   LIG     1      26.340  22.905  23.358  1.00  0.00     0.160 C 
HETATM   14  C   LIG     1      25.596  22.807  21.982  1.00  0.00     0.048 C 
HETATM   15  C   LIG     1      24.555  21.622  21.870  1.00  0.00     0.001 C 
HETATM   16  C   LIG     1      23.101  22.200  21.983  1.00  0.00     0.019 C 
HETATM   17  C   LIG     1      24.827  20.586  22.969  1.00  0.00     0.005 C 
HETATM   18  C   LIG     1      24.018  19.355  22.595  1.00  0.00     0.013 C 
HETATM   19  C   LIG     1      24.127  19.299  21.050  1.00  0.00     0.025 C 
HETATM   20  C   LIG     1      22.810  18.821  20.415  1.00  0.00     0.013 C 
HETATM   21  C   LIG     1      24.628  20.719  20.564  1.00  0.00     0.131 C 
HETATM   22  C   LIG     1      25.548  21.449  28.108  1.00  0.00     0.058 C 
ENDROOT
BRANCH  21  23
HETATM   23  C   LIG     1      26.040  20.619  19.936  1.00  0.00     0.185 C 
HETATM   24  O   LIG     1      26.309  21.341  18.986  1.00  0.00    -0.292 OA
BRANCH  23  25
HETATM   25  C   LIG     1      27.140  19.693  20.415  1.00  0.00     0.245 C 
BRANCH  25  26
HETATM   26  O   LIG     1      28.116  20.424  21.106  1.00  0.00    -0.393 OA
HETATM   27  H   LIG     1      28.994  20.025  20.864  1.00  0.00     0.209 HD
ENDBRANCH  25  26
ENDBRANCH  23  25
ENDBRANCH  21  23
BRANCH  21  28
HETATM   28  O   LIG     1      23.753  21.210  19.567  1.00  0.00    -0.381 OA
HETATM   29  H   LIG     1      23.913  20.691  18.735  1.00  0.00     0.211 HD
ENDBRANCH  21  28
BRANCH  13  30
HETATM   30  O   LIG     1      27.440  22.028  23.350  1.00  0.00    -0.392 OA
HETATM   31  H   LIG     1      27.129  21.178  22.940  1.00  0.00     0.210 HD
ENDBRANCH  13  30
TORSDOF 5
ENDMDL
MODEL 15
REMARK VINA RESULT:      -4.1      4.331      7.160
REMARK  5 active torsions:
REMARK  status: ('A' for Active; 'I' for Inactive)
REMARK    1  A    between atoms: C_13  and  O_14 
REMARK    2  A    between atoms: C_22  and  C_24 
REMARK    3  A    between atoms: C_22  and  O_23 
REMARK    4  A    between atoms: C_24  and  C_25 
REMARK    5  A    between atoms: C_25  and  O_26 
ROOT
HETATM    1  O   LIG     1      27.775  27.432  18.651  1.00  0.00    -0.289 OA
HETATM    2  C   LIG     1      27.786  26.296  19.197  1.00  0.00     0.172 C 
HETATM    3  C   LIG     1      28.878  25.920  20.096  1.00  0.00     0.052 C 
HETATM    4  C   LIG     1      28.942  24.687  20.605  1.00  0.00    -0.006 C 
HETATM    5  C   LIG     1      28.011  23.564  20.150  1.00  0.00     0.036 C 
HETATM    6  C   LIG     1      28.790  22.779  19.069  1.00  0.00     0.028 C 
HETATM    7  C   LIG     1      26.729  24.120  19.485  1.00  0.00    -0.061 C 
HETATM    8  C   LIG     1      25.452  23.304  19.579  1.00  0.00     0.036 C 
HETATM    9  C   LIG     1      25.059  23.052  21.058  1.00  0.00     0.013 C 
HETATM   10  C   LIG     1      26.275  23.174  22.011  1.00  0.00     0.035 C 
HETATM   11  C   LIG     1      27.573  22.602  21.342  1.00  0.00     0.147 C 
HETATM   12  F   LIG     1      27.275  21.383  20.753  1.00  0.00    -0.238 F 
HETATM   13  C   LIG     1      28.645  22.273  22.433  1.00  0.00     0.160 C 
HETATM   14  C   LIG     1      28.132  21.165  23.416  1.00  0.00     0.048 C 
HETATM   15  C   LIG     1      26.602  21.273  23.803  1.00  0.00     0.001 C 
HETATM   16  C   LIG     1      25.797  20.172  23.028  1.00  0.00     0.019 C 
HETATM   17  C   LIG     1      26.080  22.677  23.471  1.00  0.00     0.005 C 
HETATM   18  C   LIG     1      24.731  22.796  24.160  1.00  0.00     0.013 C 
HETATM   19  C   LIG     1      24.932  22.040  25.498  1.00  0.00     0.025 C 
HETATM   20  C   LIG     1      23.665  21.263  25.895  1.00  0.00     0.013 C 
HETATM   21  C   LIG     1      26.238  21.159  25.345  1.00  0.00     0.131 C 
HETATM   22  C   LIG     1      26.674  25.367  18.990  1.00  0.00     0.058 C 
ENDROOT
BRANCH  21  23
HETATM   23  C   LIG     1      27.350  21.653  26.301  1.00  0.00     0.185 C 
HETATM   24  O   LIG     1      28.128  20.831  26.767  1.00  0.00    -0.292 OA
BRANCH  23  25
HETATM   25  C   LIG     1      27.568  23.097  26.708  1.00  0.00     0.245 C 
BRANCH  25  26
HETATM   26  O   LIG     1      28.607  23.657  25.952  1.00  0.00    -0.393 OA
HETATM   27  H   LIG     1      28.813  23.007  25.229  1.00  0.00     0.209 HD
ENDBRANCH  25  26
ENDBRANCH  23  25
ENDBRANCH  21  23
BRANCH  21  28
HETATM   28  O   LIG     1      25.943  19.819  25.691  1.00  0.00    -0.381 OA
HETATM   29  H   LIG     1      25.017  19.791  26.049  1.00  0.00     0.211 HD
ENDBRANCH  21  28
BRANCH  13  30
HETATM   30  O   LIG     1      28.979  23.424  23.169  1.00  0.00    -0.392 OA
HETATM   31  H   LIG     1      28.220  23.604  23.784  1.00  0.00     0.210 HD
ENDBRANCH  13  30
TORSDOF 5
ENDMDL
MODEL 16
REMARK VINA RESULT:      -4.0      3.962      5.652
REMARK  5 active torsions:
REMARK  status: ('A' for Active; 'I' for Inactive)
REMARK    1  A    between atoms: C_13  and  O_14 
REMARK    2  A    between atoms: C_22  and  C_24 
REMARK    3  A    between atoms: C_22  and  O_23 
REMARK    4  A    between atoms: C_24  and  C_25 
REMARK    5  A    between atoms: C_25  and  O_26 
ROOT
HETATM    1  O   LIG     1      27.673  19.132  15.616  1.00  0.00    -0.289 OA
HETATM    2  C   LIG     1      26.775  19.253  16.492  1.00  0.00     0.172 C 
HETATM    3  C   LIG     1      26.394  18.110  17.322  1.00  0.00     0.052 C 
HETATM    4  C   LIG     1      25.383  18.209  18.188  1.00  0.00    -0.006 C 
HETATM    5  C   LIG     1      24.461  19.428  18.236  1.00  0.00     0.036 C 
HETATM    6  C   LIG     1      23.229  19.062  17.376  1.00  0.00     0.028 C 
HETATM    7  C   LIG     1      25.124  20.669  17.590  1.00  0.00    -0.061 C 
HETATM    8  C   LIG     1      24.732  22.045  18.098  1.00  0.00     0.036 C 
HETATM    9  C   LIG     1      25.018  22.182  19.616  1.00  0.00     0.013 C 
HETATM   10  C   LIG     1      25.080  20.804  20.322  1.00  0.00     0.035 C 
HETATM   11  C   LIG     1      24.023  19.814  19.717  1.00  0.00     0.147 C 
HETATM   12  F   LIG     1      22.811  20.474  19.592  1.00  0.00    -0.238 F 
HETATM   13  C   LIG     1      23.745  18.643  20.716  1.00  0.00     0.160 C 
HETATM   14  C   LIG     1      23.133  19.173  22.057  1.00  0.00     0.048 C 
HETATM   15  C   LIG     1      23.742  20.539  22.574  1.00  0.00     0.001 C 
HETATM   16  C   LIG     1      22.719  21.696  22.299  1.00  0.00     0.019 C 
HETATM   17  C   LIG     1      25.082  20.807  21.877  1.00  0.00     0.005 C 
HETATM   18  C   LIG     1      25.739  21.937  22.652  1.00  0.00     0.013 C 
HETATM   19  C   LIG     1      25.364  21.640  24.126  1.00  0.00     0.025 C 
HETATM   20  C   LIG     1      25.090  22.938  24.904  1.00  0.00     0.013 C 
HETATM   21  C   LIG     1      24.166  20.607  24.105  1.00  0.00     0.131 C 
HETATM   22  C   LIG     1      26.150  20.555  16.732  1.00  0.00     0.058 C 
ENDROOT
BRANCH  21  23
HETATM   23  C   LIG     1      24.599  19.249  24.707  1.00  0.00     0.185 C 
HETATM   24  O   LIG     1      23.750  18.550  25.243  1.00  0.00    -0.292 OA
BRANCH  23  25
HETATM   25  C   LIG     1      26.010  18.696  24.678  1.00  0.00     0.245 C 
BRANCH  25  26
HETATM   26  O   LIG     1      26.204  17.933  23.519  1.00  0.00    -0.393 OA
HETATM   27  H   LIG     1      26.588  18.547  22.837  1.00  0.00     0.209 HD
ENDBRANCH  25  26
ENDBRANCH  23  25
ENDBRANCH  21  23
BRANCH  21  28
HETATM   28  O   LIG     1      23.103  21.104  24.895  1.00  0.00    -0.381 OA
HETATM   29  H   LIG     1      22.359  21.355  24.286  1.00  0.00     0.211 HD
ENDBRANCH  21  28
BRANCH  13  30
HETATM   30  O   LIG     1      24.927  17.934  20.997  1.00  0.00    -0.392 OA
HETATM   31  H   LIG     1      25.345  17.713  20.123  1.00  0.00     0.210 HD
ENDBRANCH  13  30
TORSDOF 5
ENDMDL
MODEL 17
REMARK VINA RESULT:      -3.8      4.895      6.778
REMARK  5 active torsions:
REMARK  status: ('A' for Active; 'I' for Inactive)
REMARK    1  A    between atoms: C_13  and  O_14 
REMARK    2  A    between atoms: C_22  and  C_24 
REMARK    3  A    between atoms: C_22  and  O_23 
REMARK    4  A    between atoms: C_24  and  C_25 
REMARK    5  A    between atoms: C_25  and  O_26 
ROOT
HETATM    1  O   LIG     1      26.816  23.967  17.908  1.00  0.00    -0.289 OA
HETATM    2  C   LIG     1      26.283  23.066  18.610  1.00  0.00     0.172 C 
HETATM    3  C   LIG     1      27.084  21.945  19.104  1.00  0.00     0.052 C 
HETATM    4  C   LIG     1      26.507  20.942  19.770  1.00  0.00    -0.006 C 
HETATM    5  C   LIG     1      24.989  20.808  19.896  1.00  0.00     0.036 C 
HETATM    6  C   LIG     1      24.554  19.844  18.768  1.00  0.00     0.028 C 
HETATM    7  C   LIG     1      24.275  22.160  19.651  1.00  0.00    -0.061 C 
HETATM    8  C   LIG     1      22.951  22.416  20.349  1.00  0.00     0.036 C 
HETATM    9  C   LIG     1      23.104  22.316  21.889  1.00  0.00     0.013 C 
HETATM   10  C   LIG     1      24.334  21.467  22.297  1.00  0.00     0.035 C 
HETATM   11  C   LIG     1      24.533  20.257  21.318  1.00  0.00     0.147 C 
HETATM   12  F   LIG     1      23.307  19.644  21.110  1.00  0.00    -0.238 F 
HETATM   13  C   LIG     1      25.425  19.161  21.987  1.00  0.00     0.160 C 
HETATM   14  C   LIG     1      24.744  18.579  23.273  1.00  0.00     0.048 C 
HETATM   15  C   LIG     1      23.980  19.642  24.161  1.00  0.00     0.001 C 
HETATM   16  C   LIG     1      22.435  19.479  23.945  1.00  0.00     0.019 C 
HETATM   17  C   LIG     1      24.445  21.057  23.793  1.00  0.00     0.005 C 
HETATM   18  C   LIG     1      23.922  21.969  24.890  1.00  0.00     0.013 C 
HETATM   19  C   LIG     1      24.068  21.118  26.177  1.00  0.00     0.025 C 
HETATM   20  C   LIG     1      22.893  21.359  27.141  1.00  0.00     0.013 C 
HETATM   21  C   LIG     1      24.266  19.615  25.725  1.00  0.00     0.131 C 
HETATM   22  C   LIG     1      24.874  23.165  18.992  1.00  0.00     0.058 C 
ENDROOT
BRANCH  21  23
HETATM   23  C   LIG     1      25.678  19.107  26.105  1.00  0.00     0.185 C 
HETATM   24  O   LIG     1      25.810  17.933  26.423  1.00  0.00    -0.292 OA
BRANCH  23  25
HETATM   25  C   LIG     1      26.935  19.953  26.107  1.00  0.00     0.245 C 
BRANCH  25  26
HETATM   26  O   LIG     1      27.712  19.663  24.978  1.00  0.00    -0.393 OA
HETATM   27  H   LIG     1      28.378  20.396  24.896  1.00  0.00     0.209 HD
ENDBRANCH  25  26
ENDBRANCH  23  25
ENDBRANCH  21  23
BRANCH  21  28
HETATM   28  O   LIG     1      23.325  18.796  26.391  1.00  0.00    -0.381 OA
HETATM   29  H   LIG     1      23.674  18.604  27.301  1.00  0.00     0.211 HD
ENDBRANCH  21  28
BRANCH  13  30
HETATM   30  O   LIG     1      26.686  19.682  22.330  1.00  0.00    -0.392 OA
HETATM   31  H   LIG     1      27.136  19.931  21.480  1.00  0.00     0.210 HD
ENDBRANCH  13  30
TORSDOF 5
ENDMDL
MODEL 18
REMARK VINA RESULT:      -3.8      6.343      8.410
REMARK  5 active torsions:
REMARK  status: ('A' for Active; 'I' for Inactive)
REMARK    1  A    between atoms: C_13  and  O_14 
REMARK    2  A    between atoms: C_22  and  C_24 
REMARK    3  A    between atoms: C_22  and  O_23 
REMARK    4  A    between atoms: C_24  and  C_25 
REMARK    5  A    between atoms: C_25  and  O_26 
ROOT
HETATM    1  O   LIG     1      21.636  22.967  20.954  1.00  0.00    -0.289 OA
HETATM    2  C   LIG     1      22.613  22.498  21.597  1.00  0.00     0.172 C 
HETATM    3  C   LIG     1      23.800  23.318  21.840  1.00  0.00     0.052 C 
HETATM    4  C   LIG     1      24.872  22.797  22.440  1.00  0.00    -0.006 C 
HETATM    5  C   LIG     1      24.999  21.303  22.739  1.00  0.00     0.036 C 
HETATM    6  C   LIG     1      25.802  20.703  21.561  1.00  0.00     0.028 C 
HETATM    7  C   LIG     1      23.617  20.606  22.760  1.00  0.00    -0.061 C 
HETATM    8  C   LIG     1      23.435  19.387  23.646  1.00  0.00     0.036 C 
HETATM    9  C   LIG     1      23.736  19.724  25.129  1.00  0.00     0.013 C 
HETATM   10  C   LIG     1      24.649  20.969  25.267  1.00  0.00     0.035 C 
HETATM   11  C   LIG     1      25.724  21.009  24.125  1.00  0.00     0.147 C 
HETATM   12  F   LIG     1      26.287  19.749  23.997  1.00  0.00    -0.238 F 
HETATM   13  C   LIG     1      26.911  21.943  24.532  1.00  0.00     0.160 C 
HETATM   14  C   LIG     1      27.644  21.407  25.809  1.00  0.00     0.048 C 
HETATM   15  C   LIG     1      26.695  20.791  26.914  1.00  0.00     0.001 C 
HETATM   16  C   LIG     1      26.806  19.227  26.875  1.00  0.00     0.019 C 
HETATM   17  C   LIG     1      25.251  21.250  26.673  1.00  0.00     0.005 C 
HETATM   18  C   LIG     1      24.481  20.895  27.934  1.00  0.00     0.013 C 
HETATM   19  C   LIG     1      25.494  21.172  29.074  1.00  0.00     0.025 C 
HETATM   20  C   LIG     1      25.364  20.133  30.200  1.00  0.00     0.013 C 
HETATM   21  C   LIG     1      26.929  21.267  28.413  1.00  0.00     0.131 C 
HETATM   22  C   LIG     1      22.544  21.149  22.163  1.00  0.00     0.058 C 
ENDROOT
BRANCH  21  23
HETATM   23  C   LIG     1      27.502  22.698  28.545  1.00  0.00     0.185 C 
HETATM   24  O   LIG     1      28.696  22.830  28.780  1.00  0.00    -0.292 OA
BRANCH  23  25
HETATM   25  C   LIG     1      26.698  23.975  28.394  1.00  0.00     0.245 C 
BRANCH  25  26
HETATM   26  O   LIG     1      26.954  24.833  29.471  1.00  0.00    -0.393 OA
HETATM   27  H   LIG     1      26.125  25.363  29.614  1.00  0.00     0.209 HD
ENDBRANCH  25  26
ENDBRANCH  23  25
ENDBRANCH  21  23
BRANCH  21  28
HETATM   28  O   LIG     1      27.814  20.390  29.083  1.00  0.00    -0.381 OA
HETATM   29  H   LIG     1      27.593  19.461  28.807  1.00  0.00     0.211 HD
ENDBRANCH  21  28
BRANCH  13  30
HETATM   30  O   LIG     1      26.457  23.251  24.776  1.00  0.00    -0.392 OA
HETATM   31  H   LIG     1      26.965  23.851  24.169  1.00  0.00     0.210 HD
ENDBRANCH  13  30
TORSDOF 5
ENDMDL
MODEL 19
REMARK VINA RESULT:      -3.8      4.855      6.912
REMARK  5 active torsions:
REMARK  status: ('A' for Active; 'I' for Inactive)
REMARK    1  A    between atoms: C_13  and  O_14 
REMARK    2  A    between atoms: C_22  and  C_24 
REMARK    3  A    between atoms: C_22  and  O_23 
REMARK    4  A    between atoms: C_24  and  C_25 
REMARK    5  A    between atoms: C_25  and  O_26 
ROOT
HETATM    1  O   LIG     1      23.062  17.988  19.828  1.00  0.00    -0.289 OA
HETATM    2  C   LIG     1      23.371  19.006  20.504  1.00  0.00     0.172 C 
HETATM    3  C   LIG     1      22.787  19.219  21.828  1.00  0.00     0.052 C 
HETATM    4  C   LIG     1      23.042  20.338  22.509  1.00  0.00    -0.006 C 
HETATM    5  C   LIG     1      23.788  21.521  21.892  1.00  0.00     0.036 C 
HETATM    6  C   LIG     1      22.697  22.493  21.386  1.00  0.00     0.028 C 
HETATM    7  C   LIG     1      24.627  21.088  20.665  1.00  0.00    -0.061 C 
HETATM    8  C   LIG     1      25.890  21.866  20.341  1.00  0.00     0.036 C 
HETATM    9  C   LIG     1      26.881  21.843  21.533  1.00  0.00     0.013 C 
HETATM   10  C   LIG     1      26.166  21.557  22.877  1.00  0.00     0.035 C 
HETATM   11  C   LIG     1      24.758  22.248  22.924  1.00  0.00     0.147 C 
HETATM   12  F   LIG     1      24.884  23.551  22.471  1.00  0.00    -0.238 F 
HETATM   13  C   LIG     1      24.269  22.379  24.404  1.00  0.00     0.160 C 
HETATM   14  C   LIG     1      25.232  23.287  25.243  1.00  0.00     0.048 C 
HETATM   15  C   LIG     1      26.770  23.103  24.921  1.00  0.00     0.001 C 
HETATM   16  C   LIG     1      27.267  24.322  24.068  1.00  0.00     0.019 C 
HETATM   17  C   LIG     1      26.990  21.779  24.177  1.00  0.00     0.005 C 
HETATM   18  C   LIG     1      28.489  21.530  24.200  1.00  0.00     0.013 C 
HETATM   19  C   LIG     1      28.925  22.032  25.600  1.00  0.00     0.025 C 
HETATM   20  C   LIG     1      30.301  22.717  25.543  1.00  0.00     0.013 C 
HETATM   21  C   LIG     1      27.751  22.933  26.160  1.00  0.00     0.131 C 
HETATM   22  C   LIG     1      24.369  19.951  19.998  1.00  0.00     0.058 C 
ENDROOT
BRANCH  21  23
HETATM   23  C   LIG     1      27.100  22.279  27.403  1.00  0.00     0.185 C 
HETATM   24  O   LIG     1      26.849  21.082  27.369  1.00  0.00    -0.292 OA
BRANCH  23  25
HETATM   25  C   LIG     1      26.753  23.007  28.686  1.00  0.00     0.245 C 
BRANCH  25  26
HETATM   26  O   LIG     1      26.067  24.194  28.395  1.00  0.00    -0.393 OA
HETATM   27  H   LIG     1      25.720  24.100  27.468  1.00  0.00     0.209 HD
ENDBRANCH  25  26
ENDBRANCH  23  25
ENDBRANCH  21  23
BRANCH  21  28
HETATM   28  O   LIG     1      28.271  24.186  26.561  1.00  0.00    -0.381 OA
HETATM   29  H   LIG     1      28.875  24.034  27.335  1.00  0.00     0.211 HD
ENDBRANCH  21  28
BRANCH  13  30
HETATM   30  O   LIG     1      24.178  21.115  25.015  1.00  0.00    -0.392 OA
HETATM   31  H   LIG     1      23.651  20.536  24.403  1.00  0.00     0.210 HD
ENDBRANCH  13  30
TORSDOF 5
ENDMDL
MODEL 20
REMARK VINA RESULT:      -3.8      8.960     11.356
REMARK  5 active torsions:
REMARK  status: ('A' for Active; 'I' for Inactive)
REMARK    1  A    between atoms: C_13  and  O_14 
REMARK    2  A    between atoms: C_22  and  C_24 
REMARK    3  A    between atoms: C_22  and  O_23 
REMARK    4  A    between atoms: C_24  and  C_25 
REMARK    5  A    between atoms: C_25  and  O_26 
ROOT
HETATM    1  O   LIG     1      22.419  19.974  27.666  1.00  0.00    -0.289 OA
HETATM    2  C   LIG     1      23.508  20.598  27.563  1.00  0.00     0.172 C 
HETATM    3  C   LIG     1      23.545  21.923  26.942  1.00  0.00     0.052 C 
HETATM    4  C   LIG     1      24.708  22.548  26.748  1.00  0.00    -0.006 C 
HETATM    5  C   LIG     1      26.055  21.866  26.985  1.00  0.00     0.036 C 
HETATM    6  C   LIG     1      26.511  21.337  25.604  1.00  0.00     0.028 C 
HETATM    7  C   LIG     1      25.918  20.644  27.926  1.00  0.00    -0.061 C 
HETATM    8  C   LIG     1      27.103  20.263  28.794  1.00  0.00     0.036 C 
HETATM    9  C   LIG     1      27.518  21.436  29.719  1.00  0.00     0.013 C 
HETATM   10  C   LIG     1      27.045  22.805  29.168  1.00  0.00     0.035 C 
HETATM   11  C   LIG     1      27.146  22.847  27.603  1.00  0.00     0.147 C 
HETATM   12  F   LIG     1      28.375  22.334  27.220  1.00  0.00    -0.238 F 
HETATM   13  C   LIG     1      27.151  24.328  27.100  1.00  0.00     0.160 C 
HETATM   14  C   LIG     1      28.397  25.108  27.643  1.00  0.00     0.048 C 
HETATM   15  C   LIG     1      28.800  24.767  29.134  1.00  0.00     0.001 C 
HETATM   16  C   LIG     1      30.075  23.851  29.127  1.00  0.00     0.019 C 
HETATM   17  C   LIG     1      27.628  24.078  29.844  1.00  0.00     0.005 C 
HETATM   18  C   LIG     1      27.972  24.084  31.324  1.00  0.00     0.013 C 
HETATM   19  C   LIG     1      28.669  25.452  31.535  1.00  0.00     0.025 C 
HETATM   20  C   LIG     1      29.824  25.340  32.544  1.00  0.00     0.013 C 
HETATM   21  C   LIG     1      29.078  25.994  30.105  1.00  0.00     0.131 C 
HETATM   22  C   LIG     1      24.738  20.033  28.122  1.00  0.00     0.058 C 
ENDROOT
BRANCH  21  23
HETATM   23  C   LIG     1      28.286  27.276  29.755  1.00  0.00     0.185 C 
HETATM   24  O   LIG     1      27.104  27.336  30.067  1.00  0.00    -0.292 OA
BRANCH  23  25
HETATM   25  C   LIG     1      28.863  28.490  29.055  1.00  0.00     0.245 C 
BRANCH  25  26
HETATM   26  O   LIG     1      29.630  29.244  29.954  1.00  0.00    -0.393 OA
HETATM   27  H   LIG     1      29.107  29.296  30.797  1.00  0.00     0.209 HD
ENDBRANCH  25  26
ENDBRANCH  23  25
ENDBRANCH  21  23
BRANCH  21  28
HETATM   28  O   LIG     1      30.453  26.329  30.106  1.00  0.00    -0.381 OA
HETATM   29  H   LIG     1      30.967  25.513  30.343  1.00  0.00     0.211 HD
ENDBRANCH  21  28
BRANCH  13  30
HETATM   30  O   LIG     1      25.979  24.996  27.500  1.00  0.00    -0.392 OA
HETATM   31  H   LIG     1      26.255  25.700  28.145  1.00  0.00     0.210 HD
ENDBRANCH  13  30
TORSDOF 5
ENDMDL
