MODEL 1
REMARK VINA RESULT:      -5.3      0.000      0.000
REMARK  6 active torsions:
REMARK  status: ('A' for Active; 'I' for Inactive)
REMARK    1  A    between atoms: C_2  and  O_3 
REMARK    2  A    between atoms: O_3  and  C_4 
REMARK    3  A    between atoms: C_4  and  C_5 
REMARK    4  A    between atoms: C_5  and  C_6 
REMARK    5  A    between atoms: C_6  and  O_7 
REMARK    6  A    between atoms: C_22  and  O_23 
ROOT
HETATM    1  C   LIG     1      23.745  21.631  19.898  1.00  0.00     0.128 C 
HETATM    2  C   LIG     1      22.441  22.428  20.052  1.00  0.00     0.047 C 
HETATM    3  C   LIG     1      22.303  22.660  21.542  1.00  0.00     0.009 C 
HETATM    4  C   LIG     1      23.735  22.817  22.087  1.00  0.00     0.002 C 
HETATM    5  C   LIG     1      23.891  22.161  23.483  1.00  0.00    -0.002 C 
HETATM    6  C   LIG     1      24.972  22.867  24.343  1.00  0.00     0.010 C 
HETATM    7  C   LIG     1      25.414  22.050  25.576  1.00  0.00     0.035 C 
HETATM    8  C   LIG     1      24.409  20.980  25.930  1.00  0.00    -0.068 C 
HETATM    9  C   LIG     1      23.884  20.945  27.168  1.00  0.00     0.053 C 
HETATM   10  C   LIG     1      22.786  20.029  27.519  1.00  0.00     0.149 C 
HETATM   11  C   LIG     1      22.146  19.150  26.486  1.00  0.00     0.084 C 
HETATM   12  C   LIG     1      22.466  19.630  25.061  1.00  0.00     0.022 C 
HETATM   13  C   LIG     1      23.973  19.983  24.848  1.00  0.00    -0.014 C 
HETATM   14  C   LIG     1      24.810  18.688  25.019  1.00  0.00     0.020 C 
HETATM   15  C   LIG     1      24.129  20.631  23.400  1.00  0.00     0.031 C 
HETATM   16  C   LIG     1      25.473  20.343  22.660  1.00  0.00     0.124 C 
HETATM   17  C   LIG     1      25.809  21.304  21.481  1.00  0.00     0.045 C 
HETATM   18  C   LIG     1      24.697  22.287  20.967  1.00  0.00     0.001 C 
HETATM   19  C   LIG     1      25.429  23.521  20.358  1.00  0.00     0.019 C 
HETATM   20  O   LIG     1      22.385  19.973  28.712  1.00  0.00    -0.293 OA
ENDROOT
BRANCH   1  21
HETATM   21  C   LIG     1      24.308  21.633  18.468  1.00  0.00     0.185 C 
HETATM   22  O   LIG     1      24.083  22.597  17.751  1.00  0.00    -0.292 OA
BRANCH  21  23
HETATM   23  C   LIG     1      25.193  20.537  17.926  1.00  0.00     0.260 C 
BRANCH  23  24
HETATM   24  O   LIG     1      24.485  19.303  17.853  1.00  0.00    -0.314 OA
BRANCH  24  25
HETATM   25  C   LIG     1      23.516  19.031  16.881  1.00  0.00     0.255 C 
HETATM   26  C   LIG     1      22.071  19.145  17.230  1.00  0.00     0.126 C 
HETATM   27  O   LIG     1      23.848  18.697  15.711  1.00  0.00    -0.266 OA
ENDBRANCH  24  25
ENDBRANCH  23  24
ENDBRANCH  21  23
ENDBRANCH   1  21
BRANCH   1  28
HETATM   28  O   LIG     1      23.485  20.294  20.254  1.00  0.00    -0.381 OA
HETATM   29  H   LIG     1      22.958  20.294  21.098  1.00  0.00     0.211 HD
ENDBRANCH   1  28
BRANCH  16  30
HETATM   30  O   LIG     1      25.559  19.003  22.235  1.00  0.00    -0.395 OA
HETATM   31  H   LIG     1      26.433  18.873  21.791  1.00  0.00     0.210 HD
ENDBRANCH  16  30
TORSDOF 6
ENDMDL
MODEL 2
REMARK VINA RESULT:      -5.3      9.272     12.200
REMARK  6 active torsions:
REMARK  status: ('A' for Active; 'I' for Inactive)
REMARK    1  A    between atoms: C_2  and  O_3 
REMARK    2  A    between atoms: O_3  and  C_4 
REMARK    3  A    between atoms: C_4  and  C_5 
REMARK    4  A    between atoms: C_5  and  C_6 
REMARK    5  A    between atoms: C_6  and  O_7 
REMARK    6  A    between atoms: C_22  and  O_23 
ROOT
HETATM    1  C   LIG     1      28.033  26.467  29.153  1.00  0.00     0.128 C 
HETATM    2  C   LIG     1      29.223  27.240  28.561  1.00  0.00     0.047 C 
HETATM    3  C   LIG     1      29.939  27.827  29.759  1.00  0.00     0.009 C 
HETATM    4  C   LIG     1      29.774  26.806  30.901  1.00  0.00     0.002 C 
HETATM    5  C   LIG     1      29.572  27.507  32.269  1.00  0.00    -0.002 C 
HETATM    6  C   LIG     1      30.112  26.653  33.448  1.00  0.00     0.010 C 
HETATM    7  C   LIG     1      29.620  27.128  34.832  1.00  0.00     0.035 C 
HETATM    8  C   LIG     1      29.109  28.548  34.790  1.00  0.00    -0.068 C 
HETATM    9  C   LIG     1      29.636  29.469  35.616  1.00  0.00     0.053 C 
HETATM   10  C   LIG     1      29.291  30.896  35.507  1.00  0.00     0.149 C 
HETATM   11  C   LIG     1      28.398  31.399  34.412  1.00  0.00     0.084 C 
HETATM   12  C   LIG     1      28.277  30.378  33.270  1.00  0.00     0.022 C 
HETATM   13  C   LIG     1      28.028  28.917  33.765  1.00  0.00    -0.014 C 
HETATM   14  C   LIG     1      26.651  28.870  34.477  1.00  0.00     0.020 C 
HETATM   15  C   LIG     1      28.104  27.948  32.502  1.00  0.00     0.031 C 
HETATM   16  C   LIG     1      27.173  26.695  32.542  1.00  0.00     0.124 C 
HETATM   17  C   LIG     1      27.552  25.547  31.560  1.00  0.00     0.045 C 
HETATM   18  C   LIG     1      28.636  25.822  30.457  1.00  0.00     0.001 C 
HETATM   19  C   LIG     1      29.305  24.454  30.127  1.00  0.00     0.019 C 
HETATM   20  O   LIG     1      29.745  31.708  36.357  1.00  0.00    -0.293 OA
ENDROOT
BRANCH   1  21
HETATM   21  C   LIG     1      27.406  25.456  28.182  1.00  0.00     0.185 C 
HETATM   22  O   LIG     1      26.315  24.978  28.457  1.00  0.00    -0.292 OA
BRANCH  21  23
HETATM   23  C   LIG     1      28.034  25.076  26.863  1.00  0.00     0.260 C 
BRANCH  23  24
HETATM   24  O   LIG     1      27.064  25.082  25.819  1.00  0.00    -0.314 OA
BRANCH  24  25
HETATM   25  C   LIG     1      26.629  23.921  25.169  1.00  0.00     0.255 C 
HETATM   26  C   LIG     1      25.253  23.407  25.423  1.00  0.00     0.126 C 
HETATM   27  O   LIG     1      27.384  23.308  24.367  1.00  0.00    -0.266 OA
ENDBRANCH  24  25
ENDBRANCH  23  24
ENDBRANCH  21  23
ENDBRANCH   1  21
BRANCH   1  28
HETATM   28  O   LIG     1      27.039  27.400  29.504  1.00  0.00    -0.381 OA
HETATM   29  H   LIG     1      27.484  28.191  29.913  1.00  0.00     0.211 HD
ENDBRANCH   1  28
BRANCH  16  30
HETATM   30  O   LIG     1      25.819  27.045  32.381  1.00  0.00    -0.395 OA
HETATM   31  H   LIG     1      25.345  26.278  31.975  1.00  0.00     0.210 HD
ENDBRANCH  16  30
TORSDOF 6
ENDMDL
MODEL 3
REMARK VINA RESULT:      -5.2      2.938      7.245
REMARK  6 active torsions:
REMARK  status: ('A' for Active; 'I' for Inactive)
REMARK    1  A    between atoms: C_2  and  O_3 
REMARK    2  A    between atoms: O_3  and  C_4 
REMARK    3  A    between atoms: C_4  and  C_5 
REMARK    4  A    between atoms: C_5  and  C_6 
REMARK    5  A    between atoms: C_6  and  O_7 
REMARK    6  A    between atoms: C_22  and  O_23 
ROOT
HETATM    1  C   LIG     1      23.793  20.739  19.919  1.00  0.00     0.128 C 
HETATM    2  C   LIG     1      23.027  21.180  18.663  1.00  0.00     0.047 C 
HETATM    3  C   LIG     1      24.016  22.018  17.879  1.00  0.00     0.009 C 
HETATM    4  C   LIG     1      25.403  21.398  18.137  1.00  0.00     0.002 C 
HETATM    5  C   LIG     1      26.501  22.485  18.255  1.00  0.00    -0.002 C 
HETATM    6  C   LIG     1      27.890  21.965  17.794  1.00  0.00     0.010 C 
HETATM    7  C   LIG     1      29.063  22.872  18.222  1.00  0.00     0.035 C 
HETATM    8  C   LIG     1      28.597  24.261  18.586  1.00  0.00    -0.068 C 
HETATM    9  C   LIG     1      29.129  25.326  17.960  1.00  0.00     0.053 C 
HETATM   10  C   LIG     1      28.600  26.685  18.158  1.00  0.00     0.149 C 
HETATM   11  C   LIG     1      27.387  26.932  19.005  1.00  0.00     0.084 C 
HETATM   12  C   LIG     1      26.591  25.639  19.240  1.00  0.00     0.022 C 
HETATM   13  C   LIG     1      27.486  24.420  19.632  1.00  0.00    -0.014 C 
HETATM   14  C   LIG     1      28.151  24.722  21.001  1.00  0.00     0.020 C 
HETATM   15  C   LIG     1      26.564  23.120  19.667  1.00  0.00     0.031 C 
HETATM   16  C   LIG     1      26.948  22.034  20.721  1.00  0.00     0.124 C 
HETATM   17  C   LIG     1      26.353  20.617  20.470  1.00  0.00     0.045 C 
HETATM   18  C   LIG     1      25.242  20.447  19.374  1.00  0.00     0.001 C 
HETATM   19  C   LIG     1      25.340  18.982  18.851  1.00  0.00     0.019 C 
HETATM   20  O   LIG     1      29.185  27.661  17.616  1.00  0.00    -0.293 OA
ENDROOT
BRANCH   1  21
HETATM   21  C   LIG     1      23.147  19.555  20.656  1.00  0.00     0.185 C 
HETATM   22  O   LIG     1      22.435  18.789  20.024  1.00  0.00    -0.292 OA
BRANCH  21  23
HETATM   23  C   LIG     1      23.410  19.243  22.109  1.00  0.00     0.260 C 
BRANCH  23  24
HETATM   24  O   LIG     1      22.817  20.226  22.954  1.00  0.00    -0.314 OA
BRANCH  24  25
HETATM   25  C   LIG     1      23.511  20.873  23.983  1.00  0.00     0.255 C 
HETATM   26  C   LIG     1      23.185  20.558  25.402  1.00  0.00     0.126 C 
HETATM   27  O   LIG     1      24.413  21.715  23.725  1.00  0.00    -0.266 OA
ENDBRANCH  24  25
ENDBRANCH  23  24
ENDBRANCH  21  23
ENDBRANCH   1  21
BRANCH   1  28
HETATM   28  O   LIG     1      23.834  21.828  20.810  1.00  0.00    -0.381 OA
HETATM   29  H   LIG     1      22.960  22.301  20.764  1.00  0.00     0.211 HD
ENDBRANCH   1  28
BRANCH  16  30
HETATM   30  O   LIG     1      26.663  22.456  22.034  1.00  0.00    -0.395 OA
HETATM   31  H   LIG     1      27.344  22.071  22.640  1.00  0.00     0.210 HD
ENDBRANCH  16  30
TORSDOF 6
ENDMDL
MODEL 4
REMARK VINA RESULT:      -5.2      4.055      6.428
REMARK  6 active torsions:
REMARK  status: ('A' for Active; 'I' for Inactive)
REMARK    1  A    between atoms: C_2  and  O_3 
REMARK    2  A    between atoms: O_3  and  C_4 
REMARK    3  A    between atoms: C_4  and  C_5 
REMARK    4  A    between atoms: C_5  and  C_6 
REMARK    5  A    between atoms: C_6  and  O_7 
REMARK    6  A    between atoms: C_22  and  O_23 
ROOT
HETATM    1  C   LIG     1      28.461  25.726  19.928  1.00  0.00     0.128 C 
HETATM    2  C   LIG     1      28.777  25.842  21.427  1.00  0.00     0.047 C 
HETATM    3  C   LIG     1      28.202  24.584  22.044  1.00  0.00     0.009 C 
HETATM    4  C   LIG     1      28.367  23.474  20.988  1.00  0.00     0.002 C 
HETATM    5  C   LIG     1      27.154  22.509  20.978  1.00  0.00    -0.002 C 
HETATM    6  C   LIG     1      27.550  21.077  20.529  1.00  0.00     0.010 C 
HETATM    7  C   LIG     1      26.343  20.188  20.161  1.00  0.00     0.035 C 
HETATM    8  C   LIG     1      25.053  20.725  20.733  1.00  0.00    -0.068 C 
HETATM    9  C   LIG     1      24.297  19.940  21.519  1.00  0.00     0.053 C 
HETATM   10  C   LIG     1      23.119  20.461  22.232  1.00  0.00     0.149 C 
HETATM   11  C   LIG     1      22.757  21.915  22.178  1.00  0.00     0.084 C 
HETATM   12  C   LIG     1      23.937  22.771  21.692  1.00  0.00     0.022 C 
HETATM   13  C   LIG     1      24.661  22.180  20.440  1.00  0.00    -0.014 C 
HETATM   14  C   LIG     1      23.664  22.182  19.252  1.00  0.00     0.020 C 
HETATM   15  C   LIG     1      25.960  23.061  20.158  1.00  0.00     0.031 C 
HETATM   16  C   LIG     1      26.371  23.216  18.660  1.00  0.00     0.124 C 
HETATM   17  C   LIG     1      27.837  23.680  18.412  1.00  0.00     0.045 C 
HETATM   18  C   LIG     1      28.683  24.195  19.631  1.00  0.00     0.001 C 
HETATM   19  C   LIG     1      30.179  23.919  19.294  1.00  0.00     0.019 C 
HETATM   20  O   LIG     1      22.393  19.667  22.888  1.00  0.00    -0.293 OA
ENDROOT
BRANCH   1  21
HETATM   21  C   LIG     1      29.294  26.666  19.044  1.00  0.00     0.185 C 
HETATM   22  O   LIG     1      30.361  27.080  19.471  1.00  0.00    -0.292 OA
BRANCH  21  23
HETATM   23  C   LIG     1      28.897  27.047  17.638  1.00  0.00     0.260 C 
BRANCH  23  24
HETATM   24  O   LIG     1      29.817  26.516  16.689  1.00  0.00    -0.314 OA
BRANCH  24  25
HETATM   25  C   LIG     1      29.451  26.140  15.392  1.00  0.00     0.255 C 
HETATM   26  C   LIG     1      29.030  24.736  15.123  1.00  0.00     0.126 C 
HETATM   27  O   LIG     1      29.466  26.976  14.448  1.00  0.00    -0.266 OA
ENDBRANCH  24  25
ENDBRANCH  23  24
ENDBRANCH  21  23
ENDBRANCH   1  21
BRANCH   1  28
HETATM   28  O   LIG     1      27.104  26.051  19.742  1.00  0.00    -0.381 OA
HETATM   29  H   LIG     1      26.772  26.491  20.571  1.00  0.00     0.211 HD
ENDBRANCH   1  28
BRANCH  16  30
HETATM   30  O   LIG     1      25.474  24.041  17.955  1.00  0.00    -0.395 OA
HETATM   31  H   LIG     1      25.518  24.951  18.340  1.00  0.00     0.210 HD
ENDBRANCH  16  30
TORSDOF 6
ENDMDL
MODEL 5
REMARK VINA RESULT:      -5.1      9.352     12.353
REMARK  6 active torsions:
REMARK  status: ('A' for Active; 'I' for Inactive)
REMARK    1  A    between atoms: C_2  and  O_3 
REMARK    2  A    between atoms: O_3  and  C_4 
REMARK    3  A    between atoms: C_4  and  C_5 
REMARK    4  A    between atoms: C_5  and  C_6 
REMARK    5  A    between atoms: C_6  and  O_7 
REMARK    6  A    between atoms: C_22  and  O_23 
ROOT
HETATM    1  C   LIG     1      29.423  25.241  29.046  1.00  0.00     0.128 C 
HETATM    2  C   LIG     1      29.848  24.046  29.914  1.00  0.00     0.047 C 
HETATM    3  C   LIG     1      29.378  24.396  31.310  1.00  0.00     0.009 C 
HETATM    4  C   LIG     1      28.072  25.195  31.137  1.00  0.00     0.002 C 
HETATM    5  C   LIG     1      27.959  26.338  32.177  1.00  0.00    -0.002 C 
HETATM    6  C   LIG     1      26.482  26.666  32.527  1.00  0.00     0.010 C 
HETATM    7  C   LIG     1      26.305  28.009  33.266  1.00  0.00     0.035 C 
HETATM    8  C   LIG     1      27.598  28.487  33.882  1.00  0.00    -0.068 C 
HETATM    9  C   LIG     1      27.650  28.753  35.199  1.00  0.00     0.053 C 
HETATM   10  C   LIG     1      28.917  29.064  35.879  1.00  0.00     0.149 C 
HETATM   11  C   LIG     1      30.225  29.017  35.145  1.00  0.00     0.084 C 
HETATM   12  C   LIG     1      30.105  28.232  33.830  1.00  0.00     0.022 C 
HETATM   13  C   LIG     1      28.842  28.611  32.991  1.00  0.00    -0.014 C 
HETATM   14  C   LIG     1      28.974  30.093  32.550  1.00  0.00     0.020 C 
HETATM   15  C   LIG     1      28.747  27.606  31.758  1.00  0.00     0.031 C 
HETATM   16  C   LIG     1      28.149  28.191  30.440  1.00  0.00     0.124 C 
HETATM   17  C   LIG     1      27.651  27.139  29.405  1.00  0.00     0.045 C 
HETATM   18  C   LIG     1      28.013  25.628  29.630  1.00  0.00     0.001 C 
HETATM   19  C   LIG     1      26.893  24.787  28.947  1.00  0.00     0.019 C 
HETATM   20  O   LIG     1      28.903  29.389  37.096  1.00  0.00    -0.293 OA
ENDROOT
BRANCH   1  21
HETATM   21  C   LIG     1      29.419  24.942  27.538  1.00  0.00     0.185 C 
HETATM   22  O   LIG     1      29.582  23.788  27.169  1.00  0.00    -0.292 OA
BRANCH  21  23
HETATM   23  C   LIG     1      29.149  25.991  26.488  1.00  0.00     0.260 C 
BRANCH  23  24
HETATM   24  O   LIG     1      30.290  26.822  26.294  1.00  0.00    -0.314 OA
BRANCH  24  25
HETATM   25  C   LIG     1      30.236  28.220  26.326  1.00  0.00     0.255 C 
HETATM   26  C   LIG     1      30.067  28.979  25.054  1.00  0.00     0.126 C 
HETATM   27  O   LIG     1      30.323  28.846  27.417  1.00  0.00    -0.266 OA
ENDBRANCH  24  25
ENDBRANCH  23  24
ENDBRANCH  21  23
ENDBRANCH   1  21
BRANCH   1  28
HETATM   28  O   LIG     1      30.333  26.291  29.273  1.00  0.00    -0.381 OA
HETATM   29  H   LIG     1      31.251  25.952  29.094  1.00  0.00     0.211 HD
ENDBRANCH   1  28
BRANCH  16  30
HETATM   30  O   LIG     1      29.031  29.100  29.825  1.00  0.00    -0.395 OA
HETATM   31  H   LIG     1      29.073  29.918  30.381  1.00  0.00     0.210 HD
ENDBRANCH  16  30
TORSDOF 6
ENDMDL
MODEL 6
REMARK VINA RESULT:      -5.1      2.490      3.177
REMARK  6 active torsions:
REMARK  status: ('A' for Active; 'I' for Inactive)
REMARK    1  A    between atoms: C_2  and  O_3 
REMARK    2  A    between atoms: O_3  and  C_4 
REMARK    3  A    between atoms: C_4  and  C_5 
REMARK    4  A    between atoms: C_5  and  C_6 
REMARK    5  A    between atoms: C_6  and  O_7 
REMARK    6  A    between atoms: C_22  and  O_23 
ROOT
HETATM    1  C   LIG     1      23.668  20.736  20.037  1.00  0.00     0.128 C 
HETATM    2  C   LIG     1      22.614  21.855  20.049  1.00  0.00     0.047 C 
HETATM    3  C   LIG     1      23.213  22.943  20.915  1.00  0.00     0.009 C 
HETATM    4  C   LIG     1      24.735  22.894  20.677  1.00  0.00     0.002 C 
HETATM    5  C   LIG     1      25.527  23.171  21.979  1.00  0.00    -0.002 C 
HETATM    6  C   LIG     1      26.904  23.831  21.697  1.00  0.00     0.010 C 
HETATM    7  C   LIG     1      27.866  23.797  22.903  1.00  0.00     0.035 C 
HETATM    8  C   LIG     1      27.133  23.552  24.200  1.00  0.00    -0.068 C 
HETATM    9  C   LIG     1      27.265  24.425  25.215  1.00  0.00     0.053 C 
HETATM   10  C   LIG     1      26.452  24.323  26.437  1.00  0.00     0.149 C 
HETATM   11  C   LIG     1      25.376  23.286  26.572  1.00  0.00     0.084 C 
HETATM   12  C   LIG     1      24.983  22.701  25.205  1.00  0.00     0.022 C 
HETATM   13  C   LIG     1      26.210  22.330  24.311  1.00  0.00    -0.014 C 
HETATM   14  C   LIG     1      26.999  21.191  25.010  1.00  0.00     0.020 C 
HETATM   15  C   LIG     1      25.665  21.912  22.873  1.00  0.00     0.031 C 
HETATM   16  C   LIG     1      26.483  20.815  22.122  1.00  0.00     0.124 C 
HETATM   17  C   LIG     1      26.231  20.724  20.587  1.00  0.00     0.045 C 
HETATM   18  C   LIG     1      25.030  21.524  19.970  1.00  0.00     0.001 C 
HETATM   19  C   LIG     1      25.405  21.835  18.489  1.00  0.00     0.019 C 
HETATM   20  O   LIG     1      26.672  25.113  27.393  1.00  0.00    -0.293 OA
ENDROOT
BRANCH   1  21
HETATM   21  C   LIG     1      23.475  19.715  18.906  1.00  0.00     0.185 C 
HETATM   22  O   LIG     1      24.128  18.682  18.932  1.00  0.00    -0.292 OA
BRANCH  21  23
HETATM   23  C   LIG     1      22.463  19.887  17.800  1.00  0.00     0.260 C 
BRANCH  23  24
HETATM   24  O   LIG     1      22.760  19.029  16.702  1.00  0.00    -0.314 OA
BRANCH  24  25
HETATM   25  C   LIG     1      21.808  18.640  15.752  1.00  0.00     0.255 C 
HETATM   26  C   LIG     1      20.431  18.282  16.195  1.00  0.00     0.126 C 
HETATM   27  O   LIG     1      22.099  18.593  14.527  1.00  0.00    -0.266 OA
ENDBRANCH  24  25
ENDBRANCH  23  24
ENDBRANCH  21  23
ENDBRANCH   1  21
BRANCH   1  28
HETATM   28  O   LIG     1      23.583  20.045  21.260  1.00  0.00    -0.381 OA
HETATM   29  H   LIG     1      23.578  20.713  21.997  1.00  0.00     0.211 HD
ENDBRANCH   1  28
BRANCH  16  30
HETATM   30  O   LIG     1      26.326  19.548  22.716  1.00  0.00    -0.395 OA
HETATM   31  H   LIG     1      25.890  18.948  22.062  1.00  0.00     0.210 HD
ENDBRANCH  16  30
TORSDOF 6
ENDMDL
MODEL 7
REMARK VINA RESULT:      -5.1      3.550      4.971
REMARK  6 active torsions:
REMARK  status: ('A' for Active; 'I' for Inactive)
REMARK    1  A    between atoms: C_2  and  O_3 
REMARK    2  A    between atoms: O_3  and  C_4 
REMARK    3  A    between atoms: C_4  and  C_5 
REMARK    4  A    between atoms: C_5  and  C_6 
REMARK    5  A    between atoms: C_6  and  O_7 
REMARK    6  A    between atoms: C_22  and  O_23 
ROOT
HETATM    1  C   LIG     1      24.372  20.587  19.841  1.00  0.00     0.128 C 
HETATM    2  C   LIG     1      23.232  21.071  20.751  1.00  0.00     0.047 C 
HETATM    3  C   LIG     1      23.739  22.365  21.351  1.00  0.00     0.009 C 
HETATM    4  C   LIG     1      24.613  23.028  20.269  1.00  0.00     0.002 C 
HETATM    5  C   LIG     1      25.850  23.731  20.884  1.00  0.00    -0.002 C 
HETATM    6  C   LIG     1      26.314  24.944  20.035  1.00  0.00     0.010 C 
HETATM    7  C   LIG     1      27.728  25.448  20.397  1.00  0.00     0.035 C 
HETATM    8  C   LIG     1      28.164  24.968  21.761  1.00  0.00    -0.068 C 
HETATM    9  C   LIG     1      28.542  25.863  22.691  1.00  0.00     0.053 C 
HETATM   10  C   LIG     1      28.820  25.466  24.081  1.00  0.00     0.149 C 
HETATM   11  C   LIG     1      28.612  24.054  24.543  1.00  0.00     0.084 C 
HETATM   12  C   LIG     1      27.722  23.267  23.568  1.00  0.00     0.022 C 
HETATM   13  C   LIG     1      28.116  23.465  22.069  1.00  0.00    -0.014 C 
HETATM   14  C   LIG     1      29.538  22.883  21.855  1.00  0.00     0.020 C 
HETATM   15  C   LIG     1      27.013  22.747  21.169  1.00  0.00     0.031 C 
HETATM   16  C   LIG     1      27.521  22.123  19.831  1.00  0.00     0.124 C 
HETATM   17  C   LIG     1      26.419  21.826  18.770  1.00  0.00     0.045 C 
HETATM   18  C   LIG     1      24.912  21.920  19.199  1.00  0.00     0.001 C 
HETATM   19  C   LIG     1      24.097  22.276  17.919  1.00  0.00     0.019 C 
HETATM   20  O   LIG     1      29.253  26.325  24.894  1.00  0.00    -0.293 OA
ENDROOT
BRANCH   1  21
HETATM   21  C   LIG     1      23.940  19.526  18.817  1.00  0.00     0.185 C 
HETATM   22  O   LIG     1      24.804  18.906  18.215  1.00  0.00    -0.292 OA
BRANCH  21  23
HETATM   23  C   LIG     1      22.498  19.154  18.570  1.00  0.00     0.260 C 
BRANCH  23  24
HETATM   24  O   LIG     1      22.049  19.665  17.317  1.00  0.00    -0.314 OA
BRANCH  24  25
HETATM   25  C   LIG     1      21.455  18.868  16.332  1.00  0.00     0.255 C 
HETATM   26  C   LIG     1      22.245  18.468  15.133  1.00  0.00     0.126 C 
HETATM   27  O   LIG     1      20.262  18.479  16.448  1.00  0.00    -0.266 OA
ENDBRANCH  24  25
ENDBRANCH  23  24
ENDBRANCH  21  23
ENDBRANCH   1  21
BRANCH   1  28
HETATM   28  O   LIG     1      25.368  20.017  20.655  1.00  0.00    -0.381 OA
HETATM   29  H   LIG     1      26.255  20.323  20.323  1.00  0.00     0.211 HD
ENDBRANCH   1  28
BRANCH  16  30
HETATM   30  O   LIG     1      28.304  20.974  20.054  1.00  0.00    -0.395 OA
HETATM   31  H   LIG     1      29.256  21.221  19.951  1.00  0.00     0.210 HD
ENDBRANCH  16  30
TORSDOF 6
ENDMDL
MODEL 8
REMARK VINA RESULT:      -5.1      4.418      6.800
REMARK  6 active torsions:
REMARK  status: ('A' for Active; 'I' for Inactive)
REMARK    1  A    between atoms: C_2  and  O_3 
REMARK    2  A    between atoms: O_3  and  C_4 
REMARK    3  A    between atoms: C_4  and  C_5 
REMARK    4  A    between atoms: C_5  and  C_6 
REMARK    5  A    between atoms: C_6  and  O_7 
REMARK    6  A    between atoms: C_22  and  O_23 
ROOT
HETATM    1  C   LIG     1      27.855  24.947  18.618  1.00  0.00     0.128 C 
HETATM    2  C   LIG     1      26.787  25.701  19.426  1.00  0.00     0.047 C 
HETATM    3  C   LIG     1      25.900  24.618  20.003  1.00  0.00     0.009 C 
HETATM    4  C   LIG     1      26.821  23.415  20.286  1.00  0.00     0.002 C 
HETATM    5  C   LIG     1      26.115  22.070  19.978  1.00  0.00    -0.002 C 
HETATM    6  C   LIG     1      26.644  20.915  20.870  1.00  0.00     0.010 C 
HETATM    7  C   LIG     1      26.244  19.511  20.366  1.00  0.00     0.035 C 
HETATM    8  C   LIG     1      25.079  19.569  19.408  1.00  0.00    -0.068 C 
HETATM    9  C   LIG     1      23.971  18.851  19.664  1.00  0.00     0.053 C 
HETATM   10  C   LIG     1      22.750  18.993  18.854  1.00  0.00     0.149 C 
HETATM   11  C   LIG     1      22.660  20.010  17.755  1.00  0.00     0.084 C 
HETATM   12  C   LIG     1      23.754  21.080  17.887  1.00  0.00     0.022 C 
HETATM   13  C   LIG     1      25.170  20.489  18.183  1.00  0.00    -0.014 C 
HETATM   14  C   LIG     1      25.608  19.632  16.967  1.00  0.00     0.020 C 
HETATM   15  C   LIG     1      26.162  21.703  18.473  1.00  0.00     0.031 C 
HETATM   16  C   LIG     1      27.643  21.502  18.021  1.00  0.00     0.124 C 
HETATM   17  C   LIG     1      28.680  22.460  18.678  1.00  0.00     0.045 C 
HETATM   18  C   LIG     1      28.157  23.685  19.510  1.00  0.00     0.001 C 
HETATM   19  C   LIG     1      29.252  24.017  20.567  1.00  0.00     0.019 C 
HETATM   20  O   LIG     1      21.767  18.238  19.080  1.00  0.00    -0.293 OA
ENDROOT
BRANCH   1  21
HETATM   21  C   LIG     1      29.093  25.794  18.285  1.00  0.00     0.185 C 
HETATM   22  O   LIG     1      29.425  26.677  19.061  1.00  0.00    -0.292 OA
BRANCH  21  23
HETATM   23  C   LIG     1      29.969  25.540  17.082  1.00  0.00     0.260 C 
BRANCH  23  24
HETATM   24  O   LIG     1      29.430  26.164  15.921  1.00  0.00    -0.314 OA
BRANCH  24  25
HETATM   25  C   LIG     1      29.233  25.492  14.709  1.00  0.00     0.255 C 
HETATM   26  C   LIG     1      29.542  26.184  13.425  1.00  0.00     0.126 C 
HETATM   27  O   LIG     1      28.805  24.307  14.690  1.00  0.00    -0.266 OA
ENDBRANCH  24  25
ENDBRANCH  23  24
ENDBRANCH  21  23
ENDBRANCH   1  21
BRANCH   1  28
HETATM   28  O   LIG     1      27.274  24.539  17.403  1.00  0.00    -0.381 OA
HETATM   29  H   LIG     1      27.492  25.219  16.709  1.00  0.00     0.211 HD
ENDBRANCH   1  28
BRANCH  16  30
HETATM   30  O   LIG     1      27.771  21.534  16.619  1.00  0.00    -0.395 OA
HETATM   31  H   LIG     1      27.265  22.312  16.278  1.00  0.00     0.210 HD
ENDBRANCH  16  30
TORSDOF 6
ENDMDL
MODEL 9
REMARK VINA RESULT:      -5.1      2.479      3.749
REMARK  6 active torsions:
REMARK  status: ('A' for Active; 'I' for Inactive)
REMARK    1  A    between atoms: C_2  and  O_3 
REMARK    2  A    between atoms: O_3  and  C_4 
REMARK    3  A    between atoms: C_4  and  C_5 
REMARK    4  A    between atoms: C_5  and  C_6 
REMARK    5  A    between atoms: C_6  and  O_7 
REMARK    6  A    between atoms: C_22  and  O_23 
ROOT
HETATM    1  C   LIG     1      24.001  20.854  20.555  1.00  0.00     0.128 C 
HETATM    2  C   LIG     1      23.240  19.689  21.206  1.00  0.00     0.047 C 
HETATM    3  C   LIG     1      23.528  19.818  22.687  1.00  0.00     0.009 C 
HETATM    4  C   LIG     1      23.643  21.327  22.973  1.00  0.00     0.002 C 
HETATM    5  C   LIG     1      24.747  21.629  24.019  1.00  0.00    -0.002 C 
HETATM    6  C   LIG     1      24.437  22.906  24.844  1.00  0.00     0.010 C 
HETATM    7  C   LIG     1      25.651  23.444  25.632  1.00  0.00     0.035 C 
HETATM    8  C   LIG     1      26.724  22.395  25.796  1.00  0.00    -0.068 C 
HETATM    9  C   LIG     1      27.156  22.073  27.029  1.00  0.00     0.053 C 
HETATM   10  C   LIG     1      28.078  20.949  27.258  1.00  0.00     0.149 C 
HETATM   11  C   LIG     1      28.513  20.057  26.133  1.00  0.00     0.084 C 
HETATM   12  C   LIG     1      27.589  20.198  24.913  1.00  0.00     0.022 C 
HETATM   13  C   LIG     1      27.262  21.682  24.548  1.00  0.00    -0.014 C 
HETATM   14  C   LIG     1      28.579  22.383  24.122  1.00  0.00     0.020 C 
HETATM   15  C   LIG     1      26.164  21.677  23.393  1.00  0.00     0.031 C 
HETATM   16  C   LIG     1      26.249  22.844  22.360  1.00  0.00     0.124 C 
HETATM   17  C   LIG     1      24.960  23.094  21.523  1.00  0.00     0.045 C 
HETATM   18  C   LIG     1      23.804  22.032  21.581  1.00  0.00     0.001 C 
HETATM   19  C   LIG     1      22.475  22.792  21.287  1.00  0.00     0.019 C 
HETATM   20  O   LIG     1      28.521  20.740  28.419  1.00  0.00    -0.293 OA
ENDROOT
BRANCH   1  21
HETATM   21  C   LIG     1      23.535  21.178  19.127  1.00  0.00     0.185 C 
HETATM   22  O   LIG     1      22.576  20.573  18.672  1.00  0.00    -0.292 OA
BRANCH  21  23
HETATM   23  C   LIG     1      24.156  22.263  18.281  1.00  0.00     0.260 C 
BRANCH  23  24
HETATM   24  O   LIG     1      25.554  22.040  18.116  1.00  0.00    -0.314 OA
BRANCH  24  25
HETATM   25  C   LIG     1      26.517  23.041  18.294  1.00  0.00     0.255 C 
HETATM   26  C   LIG     1      26.117  24.473  18.189  1.00  0.00     0.126 C 
HETATM   27  O   LIG     1      27.716  22.746  18.547  1.00  0.00    -0.266 OA
ENDBRANCH  24  25
ENDBRANCH  23  24
ENDBRANCH  21  23
ENDBRANCH   1  21
BRANCH   1  28
HETATM   28  O   LIG     1      25.363  20.504  20.493  1.00  0.00    -0.381 OA
HETATM   29  H   LIG     1      25.895  21.258  20.866  1.00  0.00     0.211 HD
ENDBRANCH   1  28
BRANCH  16  30
HETATM   30  O   LIG     1      27.363  22.710  21.510  1.00  0.00    -0.395 OA
HETATM   31  H   LIG     1      27.770  21.822  21.668  1.00  0.00     0.210 HD
ENDBRANCH  16  30
TORSDOF 6
ENDMDL
MODEL 10
REMARK VINA RESULT:      -5.0      9.843     14.909
REMARK  6 active torsions:
REMARK  status: ('A' for Active; 'I' for Inactive)
REMARK    1  A    between atoms: C_2  and  O_3 
REMARK    2  A    between atoms: O_3  and  C_4 
REMARK    3  A    between atoms: C_4  and  C_5 
REMARK    4  A    between atoms: C_5  and  C_6 
REMARK    5  A    between atoms: C_6  and  O_7 
REMARK    6  A    between atoms: C_22  and  O_23 
ROOT
HETATM    1  C   LIG     1      27.464  26.318  35.556  1.00  0.00     0.128 C 
HETATM    2  C   LIG     1      27.066  24.836  35.649  1.00  0.00     0.047 C 
HETATM    3  C   LIG     1      27.572  24.217  34.363  1.00  0.00     0.009 C 
HETATM    4  C   LIG     1      28.870  24.967  34.007  1.00  0.00     0.002 C 
HETATM    5  C   LIG     1      29.007  25.179  32.477  1.00  0.00    -0.002 C 
HETATM    6  C   LIG     1      30.491  25.235  32.026  1.00  0.00     0.010 C 
HETATM    7  C   LIG     1      30.684  25.793  30.601  1.00  0.00     0.035 C 
HETATM    8  C   LIG     1      29.406  25.740  29.798  1.00  0.00    -0.068 C 
HETATM    9  C   LIG     1      29.389  25.098  28.617  1.00  0.00     0.053 C 
HETATM   10  C   LIG     1      28.139  24.876  27.873  1.00  0.00     0.149 C 
HETATM   11  C   LIG     1      26.812  25.285  28.441  1.00  0.00     0.084 C 
HETATM   12  C   LIG     1      26.900  25.529  29.956  1.00  0.00     0.022 C 
HETATM   13  C   LIG     1      28.139  26.382  30.378  1.00  0.00    -0.014 C 
HETATM   14  C   LIG     1      27.991  27.799  29.764  1.00  0.00     0.020 C 
HETATM   15  C   LIG     1      28.205  26.404  31.971  1.00  0.00     0.031 C 
HETATM   16  C   LIG     1      28.765  27.710  32.616  1.00  0.00     0.124 C 
HETATM   17  C   LIG     1      29.238  27.577  34.095  1.00  0.00     0.045 C 
HETATM   18  C   LIG     1      28.888  26.267  34.886  1.00  0.00     0.001 C 
HETATM   19  C   LIG     1      29.992  26.082  35.970  1.00  0.00     0.019 C 
HETATM   20  O   LIG     1      28.185  24.345  26.731  1.00  0.00    -0.293 OA
ENDROOT
BRANCH   1  21
HETATM   21  C   LIG     1      27.428  27.055  36.903  1.00  0.00     0.185 C 
HETATM   22  O   LIG     1      27.286  26.401  37.926  1.00  0.00    -0.292 OA
BRANCH  21  23
HETATM   23  C   LIG     1      27.637  28.544  37.037  1.00  0.00     0.260 C 
BRANCH  23  24
HETATM   24  O   LIG     1      26.418  29.249  36.819  1.00  0.00    -0.314 OA
BRANCH  24  25
HETATM   25  C   LIG     1      26.255  30.208  35.813  1.00  0.00     0.255 C 
HETATM   26  C   LIG     1      25.832  31.590  36.176  1.00  0.00     0.126 C 
HETATM   27  O   LIG     1      26.467  29.920  34.604  1.00  0.00    -0.266 OA
ENDBRANCH  24  25
ENDBRANCH  23  24
ENDBRANCH  21  23
ENDBRANCH   1  21
BRANCH   1  28
HETATM   28  O   LIG     1      26.557  26.959  34.691  1.00  0.00    -0.381 OA
HETATM   29  H   LIG     1      26.356  26.342  33.937  1.00  0.00     0.211 HD
ENDBRANCH   1  28
BRANCH  16  30
HETATM   30  O   LIG     1      27.865  28.785  32.489  1.00  0.00    -0.395 OA
HETATM   31  H   LIG     1      28.126  29.318  31.698  1.00  0.00     0.210 HD
ENDBRANCH  16  30
TORSDOF 6
ENDMDL
MODEL 11
REMARK VINA RESULT:      -4.9      3.282      5.606
REMARK  6 active torsions:
REMARK  status: ('A' for Active; 'I' for Inactive)
REMARK    1  A    between atoms: C_2  and  O_3 
REMARK    2  A    between atoms: O_3  and  C_4 
REMARK    3  A    between atoms: C_4  and  C_5 
REMARK    4  A    between atoms: C_5  and  C_6 
REMARK    5  A    between atoms: C_6  and  O_7 
REMARK    6  A    between atoms: C_22  and  O_23 
ROOT
HETATM    1  C   LIG     1      28.453  22.189  18.703  1.00  0.00     0.128 C 
HETATM    2  C   LIG     1      29.285  21.079  19.364  1.00  0.00     0.047 C 
HETATM    3  C   LIG     1      28.288  20.280  20.179  1.00  0.00     0.009 C 
HETATM    4  C   LIG     1      26.964  20.315  19.392  1.00  0.00     0.002 C 
HETATM    5  C   LIG     1      25.740  20.420  20.337  1.00  0.00    -0.002 C 
HETATM    6  C   LIG     1      24.475  19.756  19.730  1.00  0.00     0.010 C 
HETATM    7  C   LIG     1      23.167  20.141  20.453  1.00  0.00     0.035 C 
HETATM    8  C   LIG     1      23.429  20.697  21.832  1.00  0.00    -0.068 C 
HETATM    9  C   LIG     1      22.842  20.129  22.901  1.00  0.00     0.053 C 
HETATM   10  C   LIG     1      23.186  20.524  24.276  1.00  0.00     0.149 C 
HETATM   11  C   LIG     1      24.271  21.522  24.550  1.00  0.00     0.084 C 
HETATM   12  C   LIG     1      25.185  21.710  23.329  1.00  0.00     0.022 C 
HETATM   13  C   LIG     1      24.404  21.872  21.985  1.00  0.00    -0.014 C 
HETATM   14  C   LIG     1      23.575  23.181  22.056  1.00  0.00     0.020 C 
HETATM   15  C   LIG     1      25.463  21.875  20.794  1.00  0.00     0.031 C 
HETATM   16  C   LIG     1      25.105  22.761  19.560  1.00  0.00     0.124 C 
HETATM   17  C   LIG     1      25.883  22.433  18.251  1.00  0.00     0.045 C 
HETATM   18  C   LIG     1      27.111  21.457  18.326  1.00  0.00     0.001 C 
HETATM   19  C   LIG     1      27.237  20.778  16.929  1.00  0.00     0.019 C 
HETATM   20  O   LIG     1      22.549  20.024  25.240  1.00  0.00    -0.293 OA
ENDROOT
BRANCH   1  21
HETATM   21  C   LIG     1      29.156  22.867  17.517  1.00  0.00     0.185 C 
HETATM   22  O   LIG     1      30.055  22.267  16.947  1.00  0.00    -0.292 OA
BRANCH  21  23
HETATM   23  C   LIG     1      28.740  24.210  16.968  1.00  0.00     0.260 C 
BRANCH  23  24
HETATM   24  O   LIG     1      29.240  25.268  17.782  1.00  0.00    -0.314 OA
BRANCH  24  25
HETATM   25  C   LIG     1      28.421  26.247  18.355  1.00  0.00     0.255 C 
HETATM   26  C   LIG     1      28.809  27.683  18.252  1.00  0.00     0.126 C 
HETATM   27  O   LIG     1      27.356  25.932  18.952  1.00  0.00    -0.266 OA
ENDBRANCH  24  25
ENDBRANCH  23  24
ENDBRANCH  21  23
ENDBRANCH   1  21
BRANCH   1  28
HETATM   28  O   LIG     1      28.197  23.177  19.672  1.00  0.00    -0.381 OA
HETATM   29  H   LIG     1      27.332  23.615  19.449  1.00  0.00     0.211 HD
ENDBRANCH   1  28
BRANCH  16  30
HETATM   30  O   LIG     1      25.206  24.134  19.855  1.00  0.00    -0.395 OA
HETATM   31  H   LIG     1      24.980  24.265  20.809  1.00  0.00     0.210 HD
ENDBRANCH  16  30
TORSDOF 6
ENDMDL
MODEL 12
REMARK VINA RESULT:      -4.9     10.061     14.661
REMARK  6 active torsions:
REMARK  status: ('A' for Active; 'I' for Inactive)
REMARK    1  A    between atoms: C_2  and  O_3 
REMARK    2  A    between atoms: O_3  and  C_4 
REMARK    3  A    between atoms: C_4  and  C_5 
REMARK    4  A    between atoms: C_5  and  C_6 
REMARK    5  A    between atoms: C_6  and  O_7 
REMARK    6  A    between atoms: C_22  and  O_23 
ROOT
HETATM    1  C   LIG     1      28.345  28.711  33.915  1.00  0.00     0.128 C 
HETATM    2  C   LIG     1      26.837  28.654  34.207  1.00  0.00     0.047 C 
HETATM    3  C   LIG     1      26.353  27.402  33.506  1.00  0.00     0.009 C 
HETATM    4  C   LIG     1      27.509  26.387  33.593  1.00  0.00     0.002 C 
HETATM    5  C   LIG     1      27.629  25.544  32.298  1.00  0.00    -0.002 C 
HETATM    6  C   LIG     1      28.209  24.131  32.572  1.00  0.00     0.010 C 
HETATM    7  C   LIG     1      28.678  23.396  31.298  1.00  0.00     0.035 C 
HETATM    8  C   LIG     1      28.075  23.994  30.050  1.00  0.00    -0.068 C 
HETATM    9  C   LIG     1      27.378  23.211  29.208  1.00  0.00     0.053 C 
HETATM   10  C   LIG     1      26.635  23.768  28.066  1.00  0.00     0.149 C 
HETATM   11  C   LIG     1      26.553  25.248  27.839  1.00  0.00     0.084 C 
HETATM   12  C   LIG     1      26.937  26.034  29.103  1.00  0.00     0.022 C 
HETATM   13  C   LIG     1      28.230  25.500  29.799  1.00  0.00    -0.014 C 
HETATM   14  C   LIG     1      29.427  25.707  28.833  1.00  0.00     0.020 C 
HETATM   15  C   LIG     1      28.408  26.279  31.178  1.00  0.00     0.031 C 
HETATM   16  C   LIG     1      29.878  26.537  31.635  1.00  0.00     0.124 C 
HETATM   17  C   LIG     1      30.060  26.885  33.143  1.00  0.00     0.045 C 
HETATM   18  C   LIG     1      28.786  27.201  34.004  1.00  0.00     0.001 C 
HETATM   19  C   LIG     1      29.127  26.821  35.476  1.00  0.00     0.019 C 
HETATM   20  O   LIG     1      26.068  22.987  27.257  1.00  0.00    -0.293 OA
ENDROOT
BRANCH   1  21
HETATM   21  C   LIG     1      29.122  29.650  34.850  1.00  0.00     0.185 C 
HETATM   22  O   LIG     1      30.161  30.151  34.446  1.00  0.00    -0.292 OA
BRANCH  21  23
HETATM   23  C   LIG     1      28.629  30.047  36.220  1.00  0.00     0.260 C 
BRANCH  23  24
HETATM   24  O   LIG     1      27.993  31.322  36.180  1.00  0.00    -0.314 OA
BRANCH  24  25
HETATM   25  C   LIG     1      26.689  31.544  36.639  1.00  0.00     0.255 C 
HETATM   26  C   LIG     1      26.459  31.860  38.077  1.00  0.00     0.126 C 
HETATM   27  O   LIG     1      25.707  31.485  35.850  1.00  0.00    -0.266 OA
ENDBRANCH  24  25
ENDBRANCH  23  24
ENDBRANCH  21  23
ENDBRANCH   1  21
BRANCH   1  28
HETATM   28  O   LIG     1      28.517  29.176  32.598  1.00  0.00    -0.381 OA
HETATM   29  H   LIG     1      27.631  29.165  32.145  1.00  0.00     0.211 HD
ENDBRANCH   1  28
BRANCH  16  30
HETATM   30  O   LIG     1      30.513  27.505  30.833  1.00  0.00    -0.395 OA
HETATM   31  H   LIG     1      31.487  27.332  30.848  1.00  0.00     0.210 HD
ENDBRANCH  16  30
TORSDOF 6
ENDMDL
MODEL 13
REMARK VINA RESULT:      -4.8      2.913      7.389
REMARK  6 active torsions:
REMARK  status: ('A' for Active; 'I' for Inactive)
REMARK    1  A    between atoms: C_2  and  O_3 
REMARK    2  A    between atoms: O_3  and  C_4 
REMARK    3  A    between atoms: C_4  and  C_5 
REMARK    4  A    between atoms: C_5  and  C_6 
REMARK    5  A    between atoms: C_6  and  O_7 
REMARK    6  A    between atoms: C_22  and  O_23 
ROOT
HETATM    1  C   LIG     1      23.499  21.571  22.381  1.00  0.00     0.128 C 
HETATM    2  C   LIG     1      22.381  22.311  21.630  1.00  0.00     0.047 C 
HETATM    3  C   LIG     1      23.044  22.849  20.379  1.00  0.00     0.009 C 
HETATM    4  C   LIG     1      24.113  21.813  19.980  1.00  0.00     0.002 C 
HETATM    5  C   LIG     1      25.391  22.493  19.427  1.00  0.00    -0.002 C 
HETATM    6  C   LIG     1      26.130  21.598  18.397  1.00  0.00     0.010 C 
HETATM    7  C   LIG     1      27.570  22.063  18.094  1.00  0.00     0.035 C 
HETATM    8  C   LIG     1      27.793  23.501  18.496  1.00  0.00    -0.068 C 
HETATM    9  C   LIG     1      28.233  24.386  17.585  1.00  0.00     0.053 C 
HETATM   10  C   LIG     1      28.313  25.827  17.878  1.00  0.00     0.149 C 
HETATM   11  C   LIG     1      27.826  26.383  19.183  1.00  0.00     0.084 C 
HETATM   12  C   LIG     1      26.907  25.389  19.911  1.00  0.00     0.022 C 
HETATM   13  C   LIG     1      27.463  23.929  19.933  1.00  0.00    -0.014 C 
HETATM   14  C   LIG     1      28.778  23.917  20.755  1.00  0.00     0.020 C 
HETATM   15  C   LIG     1      26.339  22.982  20.551  1.00  0.00     0.031 C 
HETATM   16  C   LIG     1      26.851  21.763  21.382  1.00  0.00     0.124 C 
HETATM   17  C   LIG     1      25.815  20.621  21.604  1.00  0.00     0.045 C 
HETATM   18  C   LIG     1      24.313  20.879  21.224  1.00  0.00     0.001 C 
HETATM   19  C   LIG     1      23.690  19.494  20.874  1.00  0.00     0.019 C 
HETATM   20  O   LIG     1      28.811  26.605  17.021  1.00  0.00    -0.293 OA
ENDROOT
BRANCH   1  21
HETATM   21  C   LIG     1      22.986  20.601  23.457  1.00  0.00     0.185 C 
HETATM   22  O   LIG     1      22.123  19.792  23.153  1.00  0.00    -0.292 OA
BRANCH  21  23
HETATM   23  C   LIG     1      23.549  20.546  24.856  1.00  0.00     0.260 C 
BRANCH  23  24
HETATM   24  O   LIG     1      24.923  20.168  24.835  1.00  0.00    -0.314 OA
BRANCH  24  25
HETATM   25  C   LIG     1      25.920  20.859  25.533  1.00  0.00     0.255 C 
HETATM   26  C   LIG     1      26.643  20.182  26.647  1.00  0.00     0.126 C 
HETATM   27  O   LIG     1      26.219  22.045  25.228  1.00  0.00    -0.266 OA
ENDBRANCH  24  25
ENDBRANCH  23  24
ENDBRANCH  21  23
ENDBRANCH   1  21
BRANCH   1  28
HETATM   28  O   LIG     1      24.306  22.532  23.018  1.00  0.00    -0.381 OA
HETATM   29  H   LIG     1      25.228  22.455  22.653  1.00  0.00     0.211 HD
ENDBRANCH   1  28
BRANCH  16  30
HETATM   30  O   LIG     1      27.404  22.165  22.613  1.00  0.00    -0.395 OA
HETATM   31  H   LIG     1      27.296  23.145  22.698  1.00  0.00     0.210 HD
ENDBRANCH  16  30
TORSDOF 6
ENDMDL
MODEL 14
REMARK VINA RESULT:      -4.7      9.295     12.434
REMARK  6 active torsions:
REMARK  status: ('A' for Active; 'I' for Inactive)
REMARK    1  A    between atoms: C_2  and  O_3 
REMARK    2  A    between atoms: O_3  and  C_4 
REMARK    3  A    between atoms: C_4  and  C_5 
REMARK    4  A    between atoms: C_5  and  C_6 
REMARK    5  A    between atoms: C_6  and  O_7 
REMARK    6  A    between atoms: C_22  and  O_23 
ROOT
HETATM    1  C   LIG     1      28.869  25.493  29.626  1.00  0.00     0.128 C 
HETATM    2  C   LIG     1      27.624  25.985  28.873  1.00  0.00     0.047 C 
HETATM    3  C   LIG     1      27.306  27.332  29.487  1.00  0.00     0.009 C 
HETATM    4  C   LIG     1      28.661  27.963  29.864  1.00  0.00     0.002 C 
HETATM    5  C   LIG     1      28.575  28.749  31.198  1.00  0.00    -0.002 C 
HETATM    6  C   LIG     1      29.584  29.927  31.248  1.00  0.00     0.010 C 
HETATM    7  C   LIG     1      29.789  30.506  32.663  1.00  0.00     0.035 C 
HETATM    8  C   LIG     1      28.664  30.126  33.595  1.00  0.00    -0.068 C 
HETATM    9  C   LIG     1      27.976  31.089  34.235  1.00  0.00     0.053 C 
HETATM   10  C   LIG     1      26.771  30.787  35.025  1.00  0.00     0.149 C 
HETATM   11  C   LIG     1      26.207  29.398  35.083  1.00  0.00     0.084 C 
HETATM   12  C   LIG     1      26.753  28.520  33.946  1.00  0.00     0.022 C 
HETATM   13  C   LIG     1      28.299  28.644  33.751  1.00  0.00    -0.014 C 
HETATM   14  C   LIG     1      28.998  28.106  35.028  1.00  0.00     0.020 C 
HETATM   15  C   LIG     1      28.699  27.831  32.440  1.00  0.00     0.031 C 
HETATM   16  C   LIG     1      30.102  27.148  32.458  1.00  0.00     0.124 C 
HETATM   17  C   LIG     1      30.669  26.745  31.064  1.00  0.00     0.045 C 
HETATM   18  C   LIG     1      29.719  26.806  29.815  1.00  0.00     0.001 C 
HETATM   19  C   LIG     1      30.622  27.052  28.569  1.00  0.00     0.019 C 
HETATM   20  O   LIG     1      26.211  31.709  35.674  1.00  0.00    -0.293 OA
ENDROOT
BRANCH   1  21
HETATM   21  C   LIG     1      29.617  24.357  28.912  1.00  0.00     0.185 C 
HETATM   22  O   LIG     1      30.631  23.908  29.427  1.00  0.00    -0.292 OA
BRANCH  21  23
HETATM   23  C   LIG     1      29.121  23.711  27.641  1.00  0.00     0.260 C 
BRANCH  23  24
HETATM   24  O   LIG     1      28.429  22.498  27.925  1.00  0.00    -0.314 OA
BRANCH  24  25
HETATM   25  C   LIG     1      27.251  22.444  28.678  1.00  0.00     0.255 C 
HETATM   26  C   LIG     1      25.937  22.637  28.002  1.00  0.00     0.126 C 
HETATM   27  O   LIG     1      27.286  22.230  29.920  1.00  0.00    -0.266 OA
ENDBRANCH  24  25
ENDBRANCH  23  24
ENDBRANCH  21  23
ENDBRANCH   1  21
BRANCH   1  28
HETATM   28  O   LIG     1      28.457  25.012  30.883  1.00  0.00    -0.381 OA
HETATM   29  H   LIG     1      27.477  25.163  30.968  1.00  0.00     0.211 HD
ENDBRANCH   1  28
BRANCH  16  30
HETATM   30  O   LIG     1      30.137  26.046  33.334  1.00  0.00    -0.395 OA
HETATM   31  H   LIG     1      29.962  26.372  34.251  1.00  0.00     0.210 HD
ENDBRANCH  16  30
TORSDOF 6
ENDMDL
MODEL 15
REMARK VINA RESULT:      -4.7      2.944      7.775
REMARK  6 active torsions:
REMARK  status: ('A' for Active; 'I' for Inactive)
REMARK    1  A    between atoms: C_2  and  O_3 
REMARK    2  A    between atoms: O_3  and  C_4 
REMARK    3  A    between atoms: C_4  and  C_5 
REMARK    4  A    between atoms: C_5  and  C_6 
REMARK    5  A    between atoms: C_6  and  O_7 
REMARK    6  A    between atoms: C_22  and  O_23 
ROOT
HETATM    1  C   LIG     1      26.781  21.638  25.462  1.00  0.00     0.128 C 
HETATM    2  C   LIG     1      27.981  22.125  24.634  1.00  0.00     0.047 C 
HETATM    3  C   LIG     1      27.429  22.342  23.241  1.00  0.00     0.009 C 
HETATM    4  C   LIG     1      25.976  22.823  23.425  1.00  0.00     0.002 C 
HETATM    5  C   LIG     1      25.038  22.240  22.338  1.00  0.00    -0.002 C 
HETATM    6  C   LIG     1      23.845  23.183  22.028  1.00  0.00     0.010 C 
HETATM    7  C   LIG     1      22.709  22.503  21.234  1.00  0.00     0.035 C 
HETATM    8  C   LIG     1      23.177  21.241  20.551  1.00  0.00    -0.068 C 
HETATM    9  C   LIG     1      23.022  21.107  19.222  1.00  0.00     0.053 C 
HETATM   10  C   LIG     1      23.603  19.974  18.484  1.00  0.00     0.149 C 
HETATM   11  C   LIG     1      24.467  18.959  19.170  1.00  0.00     0.084 C 
HETATM   12  C   LIG     1      24.978  19.477  20.524  1.00  0.00     0.022 C 
HETATM   13  C   LIG     1      23.868  20.156  21.389  1.00  0.00    -0.014 C 
HETATM   14  C   LIG     1      22.810  19.084  21.758  1.00  0.00     0.020 C 
HETATM   15  C   LIG     1      24.565  20.801  22.670  1.00  0.00     0.031 C 
HETATM   16  C   LIG     1      23.716  20.811  23.981  1.00  0.00     0.124 C 
HETATM   17  C   LIG     1      24.193  21.805  25.080  1.00  0.00     0.045 C 
HETATM   18  C   LIG     1      25.588  22.506  24.912  1.00  0.00     0.001 C 
HETATM   19  C   LIG     1      25.509  23.864  25.673  1.00  0.00     0.019 C 
HETATM   20  O   LIG     1      23.359  19.848  17.254  1.00  0.00    -0.293 OA
ENDROOT
BRANCH   1  21
HETATM   21  C   LIG     1      26.991  21.746  26.980  1.00  0.00     0.185 C 
HETATM   22  O   LIG     1      26.095  21.375  27.723  1.00  0.00    -0.292 OA
BRANCH  21  23
HETATM   23  C   LIG     1      28.282  22.217  27.605  1.00  0.00     0.260 C 
BRANCH  23  24
HETATM   24  O   LIG     1      28.274  23.631  27.780  1.00  0.00    -0.314 OA
BRANCH  24  25
HETATM   25  C   LIG     1      27.751  24.262  28.915  1.00  0.00     0.255 C 
HETATM   26  C   LIG     1      26.929  25.495  28.758  1.00  0.00     0.126 C 
HETATM   27  O   LIG     1      27.961  23.796  30.067  1.00  0.00    -0.266 OA
ENDBRANCH  24  25
ENDBRANCH  23  24
ENDBRANCH  21  23
ENDBRANCH   1  21
BRANCH   1  28
HETATM   28  O   LIG     1      26.561  20.283  25.154  1.00  0.00    -0.381 OA
HETATM   29  H   LIG     1      25.819  19.949  25.728  1.00  0.00     0.211 HD
ENDBRANCH   1  28
BRANCH  16  30
HETATM   30  O   LIG     1      23.576  19.518  24.521  1.00  0.00    -0.395 OA
HETATM   31  H   LIG     1      23.149  19.597  25.410  1.00  0.00     0.210 HD
ENDBRANCH  16  30
TORSDOF 6
ENDMDL
MODEL 16
REMARK VINA RESULT:      -4.7      2.964      4.431
REMARK  6 active torsions:
REMARK  status: ('A' for Active; 'I' for Inactive)
REMARK    1  A    between atoms: C_2  and  O_3 
REMARK    2  A    between atoms: O_3  and  C_4 
REMARK    3  A    between atoms: C_4  and  C_5 
REMARK    4  A    between atoms: C_5  and  C_6 
REMARK    5  A    between atoms: C_6  and  O_7 
REMARK    6  A    between atoms: C_22  and  O_23 
ROOT
HETATM    1  C   LIG     1      26.752  24.164  20.087  1.00  0.00     0.128 C 
HETATM    2  C   LIG     1      27.467  25.519  20.201  1.00  0.00     0.047 C 
HETATM    3  C   LIG     1      28.144  25.488  21.555  1.00  0.00     0.009 C 
HETATM    4  C   LIG     1      28.560  24.023  21.794  1.00  0.00     0.002 C 
HETATM    5  C   LIG     1      28.385  23.614  23.279  1.00  0.00    -0.002 C 
HETATM    6  C   LIG     1      29.397  22.517  23.705  1.00  0.00     0.010 C 
HETATM    7  C   LIG     1      29.038  21.829  25.039  1.00  0.00     0.035 C 
HETATM    8  C   LIG     1      28.067  22.651  25.852  1.00  0.00    -0.068 C 
HETATM    9  C   LIG     1      28.385  23.004  27.111  1.00  0.00     0.053 C 
HETATM   10  C   LIG     1      27.553  23.935  27.889  1.00  0.00     0.149 C 
HETATM   11  C   LIG     1      26.354  24.601  27.282  1.00  0.00     0.084 C 
HETATM   12  C   LIG     1      26.385  24.525  25.747  1.00  0.00     0.022 C 
HETATM   13  C   LIG     1      26.755  23.109  25.201  1.00  0.00    -0.014 C 
HETATM   14  C   LIG     1      25.637  22.116  25.617  1.00  0.00     0.020 C 
HETATM   15  C   LIG     1      26.926  23.217  23.620  1.00  0.00     0.031 C 
HETATM   16  C   LIG     1      26.513  21.957  22.797  1.00  0.00     0.124 C 
HETATM   17  C   LIG     1      27.077  21.888  21.347  1.00  0.00     0.045 C 
HETATM   18  C   LIG     1      27.772  23.161  20.745  1.00  0.00     0.001 C 
HETATM   19  C   LIG     1      28.801  22.660  19.687  1.00  0.00     0.019 C 
HETATM   20  O   LIG     1      27.846  24.169  29.092  1.00  0.00    -0.293 OA
ENDROOT
BRANCH   1  21
HETATM   21  C   LIG     1      26.346  23.796  18.651  1.00  0.00     0.185 C 
HETATM   22  O   LIG     1      26.783  24.467  17.728  1.00  0.00    -0.292 OA
BRANCH  21  23
HETATM   23  C   LIG     1      25.492  22.598  18.315  1.00  0.00     0.260 C 
BRANCH  23  24
HETATM   24  O   LIG     1      24.333  22.552  19.144  1.00  0.00    -0.314 OA
BRANCH  24  25
HETATM   25  C   LIG     1      23.583  21.389  19.351  1.00  0.00     0.255 C 
HETATM   26  C   LIG     1      22.892  20.744  18.198  1.00  0.00     0.126 C 
HETATM   27  O   LIG     1      23.488  20.876  20.498  1.00  0.00    -0.266 OA
ENDBRANCH  24  25
ENDBRANCH  23  24
ENDBRANCH  21  23
ENDBRANCH   1  21
BRANCH   1  28
HETATM   28  O   LIG     1      25.580  24.223  20.863  1.00  0.00    -0.381 OA
HETATM   29  H   LIG     1      24.799  24.251  20.247  1.00  0.00     0.211 HD
ENDBRANCH   1  28
BRANCH  16  30
HETATM   30  O   LIG     1      25.116  21.776  22.784  1.00  0.00    -0.395 OA
HETATM   31  H   LIG     1      24.706  22.478  23.347  1.00  0.00     0.210 HD
ENDBRANCH  16  30
TORSDOF 6
ENDMDL
MODEL 17
REMARK VINA RESULT:      -4.4      8.760     12.843
REMARK  6 active torsions:
REMARK  status: ('A' for Active; 'I' for Inactive)
REMARK    1  A    between atoms: C_2  and  O_3 
REMARK    2  A    between atoms: O_3  and  C_4 
REMARK    3  A    between atoms: C_4  and  C_5 
REMARK    4  A    between atoms: C_5  and  C_6 
REMARK    5  A    between atoms: C_6  and  O_7 
REMARK    6  A    between atoms: C_22  and  O_23 
ROOT
HETATM    1  C   LIG     1      28.223  28.204  32.518  1.00  0.00     0.128 C 
HETATM    2  C   LIG     1      26.803  27.922  33.032  1.00  0.00     0.047 C 
HETATM    3  C   LIG     1      26.431  26.585  32.428  1.00  0.00     0.009 C 
HETATM    4  C   LIG     1      27.735  25.768  32.355  1.00  0.00     0.002 C 
HETATM    5  C   LIG     1      27.799  24.907  31.068  1.00  0.00    -0.002 C 
HETATM    6  C   LIG     1      28.633  23.614  31.271  1.00  0.00     0.010 C 
HETATM    7  C   LIG     1      29.024  22.916  29.951  1.00  0.00     0.035 C 
HETATM    8  C   LIG     1      28.158  23.365  28.799  1.00  0.00    -0.068 C 
HETATM    9  C   LIG     1      27.481  22.451  28.080  1.00  0.00     0.053 C 
HETATM   10  C   LIG     1      26.500  22.842  27.055  1.00  0.00     0.149 C 
HETATM   11  C   LIG     1      26.148  24.282  26.824  1.00  0.00     0.084 C 
HETATM   12  C   LIG     1      26.581  25.164  28.006  1.00  0.00     0.022 C 
HETATM   13  C   LIG     1      28.030  24.866  28.507  1.00  0.00    -0.014 C 
HETATM   14  C   LIG     1      29.025  25.223  27.371  1.00  0.00     0.020 C 
HETATM   15  C   LIG     1      28.279  25.714  29.834  1.00  0.00     0.031 C 
HETATM   16  C   LIG     1      29.739  26.217  30.064  1.00  0.00     0.124 C 
HETATM   17  C   LIG     1      30.079  26.644  31.522  1.00  0.00     0.045 C 
HETATM   18  C   LIG     1      28.910  26.788  32.560  1.00  0.00     0.001 C 
HETATM   19  C   LIG     1      29.518  26.520  33.970  1.00  0.00     0.019 C 
HETATM   20  O   LIG     1      25.955  21.952  26.350  1.00  0.00    -0.293 OA
ENDROOT
BRANCH   1  21
HETATM   21  C   LIG     1      28.967  29.288  33.314  1.00  0.00     0.185 C 
HETATM   22  O   LIG     1      28.618  29.516  34.463  1.00  0.00    -0.292 OA
BRANCH  21  23
HETATM   23  C   LIG     1      30.162  30.036  32.775  1.00  0.00     0.260 C 
BRANCH  23  24
HETATM   24  O   LIG     1      29.752  31.092  31.910  1.00  0.00    -0.314 OA
BRANCH  24  25
HETATM   25  C   LIG     1      30.136  31.177  30.567  1.00  0.00     0.255 C 
HETATM   26  C   LIG     1      30.473  32.505  29.981  1.00  0.00     0.126 C 
HETATM   27  O   LIG     1      30.208  30.144  29.848  1.00  0.00    -0.266 OA
ENDBRANCH  24  25
ENDBRANCH  23  24
ENDBRANCH  21  23
ENDBRANCH   1  21
BRANCH   1  28
HETATM   28  O   LIG     1      28.125  28.642  31.184  1.00  0.00    -0.381 OA
HETATM   29  H   LIG     1      27.275  29.149  31.085  1.00  0.00     0.211 HD
ENDBRANCH   1  28
BRANCH  16  30
HETATM   30  O   LIG     1      30.086  27.242  29.163  1.00  0.00    -0.395 OA
HETATM   31  H   LIG     1      30.867  26.942  28.635  1.00  0.00     0.210 HD
ENDBRANCH  16  30
TORSDOF 6
ENDMDL
MODEL 18
REMARK VINA RESULT:      -4.3      3.310      7.042
REMARK  6 active torsions:
REMARK  status: ('A' for Active; 'I' for Inactive)
REMARK    1  A    between atoms: C_2  and  O_3 
REMARK    2  A    between atoms: O_3  and  C_4 
REMARK    3  A    between atoms: C_4  and  C_5 
REMARK    4  A    between atoms: C_5  and  C_6 
REMARK    5  A    between atoms: C_6  and  O_7 
REMARK    6  A    between atoms: C_22  and  O_23 
ROOT
HETATM    1  C   LIG     1      28.381  22.723  22.100  1.00  0.00     0.128 C 
HETATM    2  C   LIG     1      29.246  21.608  21.493  1.00  0.00     0.047 C 
HETATM    3  C   LIG     1      28.372  20.973  20.432  1.00  0.00     0.009 C 
HETATM    4  C   LIG     1      27.509  22.109  19.850  1.00  0.00     0.002 C 
HETATM    5  C   LIG     1      26.071  21.627  19.527  1.00  0.00    -0.002 C 
HETATM    6  C   LIG     1      25.440  22.420  18.351  1.00  0.00     0.010 C 
HETATM    7  C   LIG     1      23.913  22.232  18.228  1.00  0.00     0.035 C 
HETATM    8  C   LIG     1      23.436  21.002  18.962  1.00  0.00    -0.068 C 
HETATM    9  C   LIG     1      22.739  20.061  18.301  1.00  0.00     0.053 C 
HETATM   10  C   LIG     1      22.391  18.773  18.924  1.00  0.00     0.149 C 
HETATM   11  C   LIG     1      22.872  18.419  20.300  1.00  0.00     0.084 C 
HETATM   12  C   LIG     1      24.041  19.317  20.737  1.00  0.00     0.022 C 
HETATM   13  C   LIG     1      23.804  20.833  20.443  1.00  0.00    -0.014 C 
HETATM   14  C   LIG     1      22.602  21.316  21.297  1.00  0.00     0.020 C 
HETATM   15  C   LIG     1      25.151  21.617  20.775  1.00  0.00     0.031 C 
HETATM   16  C   LIG     1      24.983  23.070  21.322  1.00  0.00     0.124 C 
HETATM   17  C   LIG     1      26.249  23.973  21.227  1.00  0.00     0.045 C 
HETATM   18  C   LIG     1      27.623  23.311  20.852  1.00  0.00     0.001 C 
HETATM   19  C   LIG     1      28.484  24.412  20.163  1.00  0.00     0.019 C 
HETATM   20  O   LIG     1      21.665  17.959  18.294  1.00  0.00    -0.293 OA
ENDROOT
BRANCH   1  21
HETATM   21  C   LIG     1      29.182  23.764  22.898  1.00  0.00     0.185 C 
HETATM   22  O   LIG     1      30.376  23.885  22.671  1.00  0.00    -0.292 OA
BRANCH  21  23
HETATM   23  C   LIG     1      28.551  24.701  23.899  1.00  0.00     0.260 C 
BRANCH  23  24
HETATM   24  O   LIG     1      28.698  24.201  25.225  1.00  0.00    -0.314 OA
BRANCH  24  25
HETATM   25  C   LIG     1      27.620  23.773  26.007  1.00  0.00     0.255 C 
HETATM   26  C   LIG     1      26.259  24.324  25.750  1.00  0.00     0.126 C 
HETATM   27  O   LIG     1      27.783  22.921  26.923  1.00  0.00    -0.266 OA
ENDBRANCH  24  25
ENDBRANCH  23  24
ENDBRANCH  21  23
ENDBRANCH   1  21
BRANCH   1  28
HETATM   28  O   LIG     1      27.456  22.127  22.978  1.00  0.00    -0.381 OA
HETATM   29  H   LIG     1      27.850  22.125  23.891  1.00  0.00     0.211 HD
ENDBRANCH   1  28
BRANCH  16  30
HETATM   30  O   LIG     1      24.477  23.078  22.636  1.00  0.00    -0.395 OA
HETATM   31  H   LIG     1      24.216  22.154  22.875  1.00  0.00     0.210 HD
ENDBRANCH  16  30
TORSDOF 6
ENDMDL
MODEL 19
REMARK VINA RESULT:      -4.3      2.075      3.940
REMARK  6 active torsions:
REMARK  status: ('A' for Active; 'I' for Inactive)
REMARK    1  A    between atoms: C_2  and  O_3 
REMARK    2  A    between atoms: O_3  and  C_4 
REMARK    3  A    between atoms: C_4  and  C_5 
REMARK    4  A    between atoms: C_5  and  C_6 
REMARK    5  A    between atoms: C_6  and  O_7 
REMARK    6  A    between atoms: C_22  and  O_23 
ROOT
HETATM    1  C   LIG     1      25.267  20.416  19.801  1.00  0.00     0.128 C 
HETATM    2  C   LIG     1      25.998  19.067  19.721  1.00  0.00     0.047 C 
HETATM    3  C   LIG     1      25.558  18.314  20.959  1.00  0.00     0.009 C 
HETATM    4  C   LIG     1      24.101  18.740  21.226  1.00  0.00     0.002 C 
HETATM    5  C   LIG     1      23.813  18.873  22.743  1.00  0.00    -0.002 C 
HETATM    6  C   LIG     1      22.327  18.579  23.084  1.00  0.00     0.010 C 
HETATM    7  C   LIG     1      21.913  19.040  24.497  1.00  0.00     0.035 C 
HETATM    8  C   LIG     1      23.110  19.256  25.392  1.00  0.00    -0.068 C 
HETATM    9  C   LIG     1      23.191  18.601  26.564  1.00  0.00     0.053 C 
HETATM   10  C   LIG     1      24.404  18.649  27.397  1.00  0.00     0.149 C 
HETATM   11  C   LIG     1      25.638  19.363  26.933  1.00  0.00     0.084 C 
HETATM   12  C   LIG     1      25.604  19.623  25.418  1.00  0.00     0.022 C 
HETATM   13  C   LIG     1      24.235  20.184  24.914  1.00  0.00    -0.014 C 
HETATM   14  C   LIG     1      24.013  21.580  25.553  1.00  0.00     0.020 C 
HETATM   15  C   LIG     1      24.278  20.234  23.322  1.00  0.00     0.031 C 
HETATM   16  C   LIG     1      23.480  21.396  22.650  1.00  0.00     0.124 C 
HETATM   17  C   LIG     1      23.155  21.200  21.140  1.00  0.00     0.045 C 
HETATM   18  C   LIG     1      23.849  20.026  20.363  1.00  0.00     0.001 C 
HETATM   19  C   LIG     1      22.895  19.625  19.198  1.00  0.00     0.019 C 
HETATM   20  O   LIG     1      24.400  18.090  28.525  1.00  0.00    -0.293 OA
ENDROOT
BRANCH   1  21
HETATM   21  C   LIG     1      25.228  21.179  18.468  1.00  0.00     0.185 C 
HETATM   22  O   LIG     1      25.568  20.597  17.448  1.00  0.00    -0.292 OA
BRANCH  21  23
HETATM   23  C   LIG     1      24.716  22.594  18.339  1.00  0.00     0.260 C 
BRANCH  23  24
HETATM   24  O   LIG     1      25.298  23.435  19.331  1.00  0.00    -0.314 OA
BRANCH  24  25
HETATM   25  C   LIG     1      26.174  24.485  19.030  1.00  0.00     0.255 C 
HETATM   26  C   LIG     1      27.059  24.384  17.835  1.00  0.00     0.126 C 
HETATM   27  O   LIG     1      26.220  25.517  19.752  1.00  0.00    -0.266 OA
ENDBRANCH  24  25
ENDBRANCH  23  24
ENDBRANCH  21  23
ENDBRANCH   1  21
BRANCH   1  28
HETATM   28  O   LIG     1      25.941  21.223  20.737  1.00  0.00    -0.381 OA
HETATM   29  H   LIG     1      25.927  22.161  20.408  1.00  0.00     0.211 HD
ENDBRANCH   1  28
BRANCH  16  30
HETATM   30  O   LIG     1      24.101  22.643  22.856  1.00  0.00    -0.395 OA
HETATM   31  H   LIG     1      24.987  22.486  23.268  1.00  0.00     0.210 HD
ENDBRANCH  16  30
TORSDOF 6
ENDMDL
MODEL 20
REMARK VINA RESULT:      -4.1      4.232      6.047
REMARK  6 active torsions:
REMARK  status: ('A' for Active; 'I' for Inactive)
REMARK    1  A    between atoms: C_2  and  O_3 
REMARK    2  A    between atoms: O_3  and  C_4 
REMARK    3  A    between atoms: C_4  and  C_5 
REMARK    4  A    between atoms: C_5  and  C_6 
REMARK    5  A    between atoms: C_6  and  O_7 
REMARK    6  A    between atoms: C_22  and  O_23 
ROOT
HETATM    1  C   LIG     1      28.689  25.429  18.145  1.00  0.00     0.128 C 
HETATM    2  C   LIG     1      27.833  26.637  18.555  1.00  0.00     0.047 C 
HETATM    3  C   LIG     1      27.009  26.147  19.727  1.00  0.00     0.009 C 
HETATM    4  C   LIG     1      27.897  25.143  20.488  1.00  0.00     0.002 C 
HETATM    5  C   LIG     1      27.073  23.950  21.035  1.00  0.00    -0.002 C 
HETATM    6  C   LIG     1      27.693  23.357  22.329  1.00  0.00     0.010 C 
HETATM    7  C   LIG     1      27.129  21.971  22.706  1.00  0.00     0.035 C 
HETATM    8  C   LIG     1      25.812  21.694  22.021  1.00  0.00    -0.068 C 
HETATM    9  C   LIG     1      24.732  21.380  22.759  1.00  0.00     0.053 C 
HETATM   10  C   LIG     1      23.393  21.259  22.161  1.00  0.00     0.149 C 
HETATM   11  C   LIG     1      23.158  21.565  20.711  1.00  0.00     0.084 C 
HETATM   12  C   LIG     1      24.316  22.378  20.112  1.00  0.00     0.022 C 
HETATM   13  C   LIG     1      25.727  21.827  20.495  1.00  0.00    -0.014 C 
HETATM   14  C   LIG     1      25.885  20.413  19.877  1.00  0.00     0.020 C 
HETATM   15  C   LIG     1      26.821  22.858  19.965  1.00  0.00     0.031 C 
HETATM   16  C   LIG     1      28.180  22.241  19.506  1.00  0.00     0.124 C 
HETATM   17  C   LIG     1      29.372  23.239  19.413  1.00  0.00     0.045 C 
HETATM   18  C   LIG     1      29.080  24.778  19.524  1.00  0.00     0.001 C 
HETATM   19  C   LIG     1      30.368  25.445  20.094  1.00  0.00     0.019 C 
HETATM   20  O   LIG     1      22.428  20.880  22.877  1.00  0.00    -0.293 OA
ENDROOT
BRANCH   1  21
HETATM   21  C   LIG     1      29.890  25.793  17.258  1.00  0.00     0.185 C 
HETATM   22  O   LIG     1      30.263  26.957  17.225  1.00  0.00    -0.292 OA
BRANCH  21  23
HETATM   23  C   LIG     1      30.684  24.772  16.481  1.00  0.00     0.260 C 
BRANCH  23  24
HETATM   24  O   LIG     1      30.155  24.608  15.168  1.00  0.00    -0.314 OA
BRANCH  24  25
HETATM   25  C   LIG     1      30.132  23.380  14.497  1.00  0.00     0.255 C 
HETATM   26  C   LIG     1      29.441  22.215  15.119  1.00  0.00     0.126 C 
HETATM   27  O   LIG     1      30.683  23.248  13.371  1.00  0.00    -0.266 OA
ENDBRANCH  24  25
ENDBRANCH  23  24
ENDBRANCH  21  23
ENDBRANCH   1  21
BRANCH   1  28
HETATM   28  O   LIG     1      27.873  24.542  17.418  1.00  0.00    -0.381 OA
HETATM   29  H   LIG     1      28.284  23.637  17.456  1.00  0.00     0.211 HD
ENDBRANCH   1  28
BRANCH  16  30
HETATM   30  O   LIG     1      28.049  21.527  18.299  1.00  0.00    -0.395 OA
HETATM   31  H   LIG     1      28.639  21.945  17.624  1.00  0.00     0.210 HD
ENDBRANCH  16  30
TORSDOF 6
ENDMDL
