REMARK  6 active torsions:
REMARK  status: ('A' for Active; 'I' for Inactive)
REMARK    1  A    between atoms: C_2  and  O_3 
REMARK    2  A    between atoms: O_3  and  C_4 
REMARK    3  A    between atoms: C_4  and  C_5 
REMARK    4  A    between atoms: C_5  and  C_6 
REMARK    5  A    between atoms: C_6  and  O_7 
REMARK    6  A    between atoms: C_22  and  O_23 
ROOT
HETATM    1  C   LIG     1       1.907  -1.218  -0.497  1.00  0.00     0.128 C 
HETATM    2  C   LIG     1       2.027  -0.651  -1.920  1.00  0.00     0.047 C 
HETATM    3  C   LIG     1       0.824   0.255  -2.079  1.00  0.00     0.009 C 
HETATM    4  C   LIG     1       0.561   0.868  -0.690  1.00  0.00     0.002 C 
HETATM    5  C   LIG     1      -0.956   1.007  -0.404  1.00  0.00    -0.002 C 
HETATM    6  C   LIG     1      -1.265   2.195   0.546  1.00  0.00     0.010 C 
HETATM    7  C   LIG     1      -2.689   2.158   1.140  1.00  0.00     0.035 C 
HETATM    8  C   LIG     1      -3.607   1.261   0.345  1.00  0.00    -0.068 C 
HETATM    9  C   LIG     1      -4.755   1.756  -0.151  1.00  0.00     0.053 C 
HETATM   10  C   LIG     1      -5.605   0.976  -1.065  1.00  0.00     0.149 C 
HETATM   11  C   LIG     1      -5.185  -0.379  -1.552  1.00  0.00     0.084 C 
HETATM   12  C   LIG     1      -3.681  -0.613  -1.339  1.00  0.00     0.022 C 
HETATM   13  C   LIG     1      -3.180  -0.189   0.079  1.00  0.00    -0.014 C 
HETATM   14  C   LIG     1      -3.868  -1.096   1.133  1.00  0.00     0.020 C 
HETATM   15  C   LIG     1      -1.591  -0.314   0.100  1.00  0.00     0.031 C 
HETATM   16  C   LIG     1      -0.953  -0.723   1.465  1.00  0.00     0.124 C 
HETATM   17  C   LIG     1       0.568  -0.421   1.611  1.00  0.00     0.045 C 
HETATM   18  C   LIG     1       1.379   0.009   0.337  1.00  0.00     0.001 C 
HETATM   19  C   LIG     1       2.571   0.883   0.831  1.00  0.00     0.019 C 
HETATM   20  O   LIG     1      -6.712   1.450  -1.435  1.00  0.00    -0.293 OA
ENDROOT
BRANCH   1  21
HETATM   21  C   LIG     1       3.211  -1.829   0.039  1.00  0.00     0.185 C 
HETATM   22  O   LIG     1       3.221  -2.289   1.171  1.00  0.00    -0.292 OA
BRANCH  21  23
HETATM   23  C   LIG     1       4.465  -1.960  -0.791  1.00  0.00     0.260 C 
BRANCH  23  24
HETATM   24  O   LIG     1       5.130  -0.705  -0.907  1.00  0.00    -0.314 OA
BRANCH  24  25
HETATM   25  C   LIG     1       5.842  -0.114   0.143  1.00  0.00     0.255 C 
HETATM   26  C   LIG     1       6.445   1.236  -0.045  1.00  0.00     0.126 C 
HETATM   27  O   LIG     1       5.975  -0.706   1.248  1.00  0.00    -0.266 OA
ENDBRANCH  24  25
ENDBRANCH  23  24
ENDBRANCH  21  23
ENDBRANCH   1  21
BRANCH   1  28
HETATM   28  O   LIG     1       0.932  -2.233  -0.513  1.00  0.00    -0.381 OA
HETATM   29  H   LIG     1       1.268  -2.979  -1.079  1.00  0.00     0.211 HD
ENDBRANCH   1  28
BRANCH  16  30
HETATM   30  O   LIG     1      -1.214  -2.070   1.781  1.00  0.00    -0.395 OA
HETATM   31  H   LIG     1      -0.871  -2.635   1.045  1.00  0.00     0.210 HD
ENDBRANCH  16  30
TORSDOF 6
