REMARK  5 active torsions:
REMARK  status: ('A' for Active; 'I' for Inactive)
REMARK    1  A    between atoms: C_14  and  C_16 
REMARK    2  A    between atoms: C_14  and  O_15 
REMARK    3  A    between atoms: C_16  and  C_17 
REMARK    4  A    between atoms: C_17  and  O_18 
REMARK    5  A    between atoms: O_18  and  C_19 
ROOT
HETATM    1  O   LIG     1      -7.143   1.166   0.874  1.00  0.00    -0.293 OA
HETATM    2  C   LIG     1      -6.012   0.821   0.441  1.00  0.00     0.149 C 
HETATM    3  C   LIG     1      -5.440   1.512  -0.762  1.00  0.00     0.084 C 
HETATM    4  C   LIG     1      -3.923   1.300  -0.869  1.00  0.00     0.022 C 
HETATM    5  C   LIG     1      -3.507  -0.193  -0.673  1.00  0.00    -0.009 C 
HETATM    6  C   LIG     1      -4.069  -1.053  -1.833  1.00  0.00     0.021 C 
HETATM    7  C   LIG     1      -4.109  -0.724   0.642  1.00  0.00    -0.067 C 
HETATM    8  C   LIG     1      -3.304  -1.715   1.471  1.00  0.00     0.035 C 
HETATM    9  C   LIG     1      -1.888  -1.177   1.810  1.00  0.00     0.010 C 
HETATM   10  C   LIG     1      -1.451  -0.039   0.859  1.00  0.00     0.003 C 
HETATM   11  C   LIG     1       0.037   0.406   0.936  1.00  0.00     0.002 C 
HETATM   12  C   LIG     1       0.810   0.236   2.241  1.00  0.00     0.009 C 
HETATM   13  C   LIG     1       2.290   0.340   1.834  1.00  0.00     0.047 C 
HETATM   14  C   LIG     1       2.331   0.515   0.284  1.00  0.00     0.128 C 
HETATM   15  C   LIG     1       0.966  -0.120  -0.167  1.00  0.00     0.005 C 
HETATM   16  C   LIG     1       1.076  -1.683  -0.158  1.00  0.00     0.019 C 
HETATM   17  C   LIG     1       0.431   0.383  -1.543  1.00  0.00     0.091 C 
HETATM   18  C   LIG     1      -1.082   0.297  -1.673  1.00  0.00     0.133 C 
HETATM   19  C   LIG     1      -1.939  -0.360  -0.591  1.00  0.00     0.072 C 
HETATM   20  O   LIG     1      -1.586   0.663  -2.722  1.00  0.00    -0.297 OA
HETATM   21  C   LIG     1      -5.283  -0.267   1.111  1.00  0.00     0.053 C 
ENDROOT
BRANCH  14  22
HETATM   22  C   LIG     1       3.559  -0.111  -0.385  1.00  0.00     0.185 C 
HETATM   23  O   LIG     1       3.505  -0.410  -1.569  1.00  0.00    -0.292 OA
BRANCH  22  24
HETATM   24  C   LIG     1       4.881  -0.261   0.322  1.00  0.00     0.260 C 
BRANCH  24  25
HETATM   25  O   LIG     1       5.904   0.354  -0.454  1.00  0.00    -0.314 OA
BRANCH  25  26
HETATM   26  C   LIG     1       7.246   0.365  -0.062  1.00  0.00     0.255 C 
HETATM   27  C   LIG     1       8.252   1.062  -0.915  1.00  0.00     0.126 C 
HETATM   28  O   LIG     1       7.615  -0.227   0.989  1.00  0.00    -0.266 OA
ENDBRANCH  25  26
ENDBRANCH  24  25
ENDBRANCH  22  24
ENDBRANCH  14  22
BRANCH  14  29
HETATM   29  O   LIG     1       2.333   1.895  -0.013  1.00  0.00    -0.381 OA
HETATM   30  H   LIG     1       3.182   2.283   0.330  1.00  0.00     0.211 HD
ENDBRANCH  14  29
TORSDOF 5
