REMARK  2 active torsions:
REMARK  status: ('A' for Active; 'I' for Inactive)
REMARK    1  A    between atoms: C_7  and  C_8 
REMARK    2  A    between atoms: C_7  and  C_10 
ROOT
HETATM    1  O   LIG     1       3.317   0.439   1.645  1.00  0.00    -0.246 OA
HETATM    2  C   LIG     1       2.174   0.232   1.153  1.00  0.00     0.331 C 
HETATM    3  N   LIG     1       2.034  -0.283  -0.178  1.00  0.00    -0.273 N 
HETATM    4  C   LIG     1       3.225  -0.671  -0.941  1.00  0.00     0.164 C 
HETATM    5  N   LIG     1       1.018   0.495   1.940  1.00  0.00    -0.278 N 
HETATM    6  C   LIG     1      -0.292   0.287   1.414  1.00  0.00     0.243 C 
HETATM    7  C   LIG     1      -0.531   0.149  -0.085  1.00  0.00     0.122 C 
HETATM    8  C   LIG     1       0.742  -0.272  -0.818  1.00  0.00     0.245 C 
HETATM    9  O   LIG     1       0.658  -0.575  -2.042  1.00  0.00    -0.271 OA
HETATM   10  O   LIG     1      -1.268   0.274   2.213  1.00  0.00    -0.272 OA
HETATM   11  H   LIG     1       1.131   0.770   2.942  1.00  0.00     0.173 HD
ENDROOT
BRANCH   7  12
HETATM   12  C   LIG     1      -0.941   1.533  -0.675  1.00  0.00     0.024 C 
HETATM   13  C   LIG     1      -2.208   2.163  -0.083  1.00  0.00     0.007 C 
ENDBRANCH   7  12
BRANCH   7  14
HETATM   14  C   LIG     1      -1.644  -0.914  -0.350  1.00  0.00     0.024 C 
HETATM   15  C   LIG     1      -1.260  -2.334   0.087  1.00  0.00     0.007 C 
ENDBRANCH   7  14
TORSDOF 2
