MODEL 1
REMARK VINA RESULT:      -6.7      0.000      0.000
REMARK  2 active torsions:
REMARK  status: ('A' for Active; 'I' for Inactive)
REMARK    1  A    between atoms: C_7  and  C_8 
REMARK    2  A    between atoms: C_7  and  C_10 
ROOT
HETATM    1  O   LIG     1      18.656  40.002  21.201  1.00  0.00    -0.246 OA
HETATM    2  C   LIG     1      18.128  38.934  21.615  1.00  0.00     0.331 C 
HETATM    3  N   LIG     1      18.319  37.702  20.906  1.00  0.00    -0.273 N 
HETATM    4  C   LIG     1      19.217  37.657  19.747  1.00  0.00     0.164 C 
HETATM    5  N   LIG     1      17.355  38.955  22.810  1.00  0.00    -0.278 N 
HETATM    6  C   LIG     1      16.731  37.770  23.302  1.00  0.00     0.243 C 
HETATM    7  C   LIG     1      16.538  36.548  22.413  1.00  0.00     0.122 C 
HETATM    8  C   LIG     1      17.512  36.553  21.236  1.00  0.00     0.245 C 
HETATM    9  O   LIG     1      17.573  35.527  20.501  1.00  0.00    -0.271 OA
HETATM   10  O   LIG     1      16.287  37.769  24.483  1.00  0.00    -0.272 OA
HETATM   11  H   LIG     1      17.308  39.833  23.375  1.00  0.00     0.173 HD
ENDROOT
BRANCH   7  12
HETATM   12  C   LIG     1      15.105  36.575  21.798  1.00  0.00     0.024 C 
HETATM   13  C   LIG     1      14.573  35.231  21.284  1.00  0.00     0.007 C 
ENDBRANCH   7  12
BRANCH   7  14
HETATM   14  C   LIG     1      16.755  35.245  23.245  1.00  0.00     0.024 C 
HETATM   15  C   LIG     1      17.435  35.483  24.600  1.00  0.00     0.007 C 
ENDBRANCH   7  14
TORSDOF 2
ENDMDL
MODEL 2
REMARK VINA RESULT:      -6.2      1.658      3.256
REMARK  2 active torsions:
REMARK  status: ('A' for Active; 'I' for Inactive)
REMARK    1  A    between atoms: C_7  and  C_8 
REMARK    2  A    between atoms: C_7  and  C_10 
ROOT
HETATM    1  O   LIG     1      18.927  36.477  18.897  1.00  0.00    -0.246 OA
HETATM    2  C   LIG     1      18.220  36.700  19.917  1.00  0.00     0.331 C 
HETATM    3  N   LIG     1      18.514  37.807  20.781  1.00  0.00    -0.273 N 
HETATM    4  C   LIG     1      19.580  38.749  20.425  1.00  0.00     0.164 C 
HETATM    5  N   LIG     1      17.109  35.855  20.195  1.00  0.00    -0.278 N 
HETATM    6  C   LIG     1      16.295  36.068  21.347  1.00  0.00     0.243 C 
HETATM    7  C   LIG     1      16.774  36.932  22.508  1.00  0.00     0.122 C 
HETATM    8  C   LIG     1      17.871  37.901  22.068  1.00  0.00     0.245 C 
HETATM    9  O   LIG     1      18.255  38.785  22.885  1.00  0.00    -0.271 OA
HETATM   10  O   LIG     1      15.182  35.478  21.417  1.00  0.00    -0.272 OA
HETATM   11  H   LIG     1      16.841  35.118  19.506  1.00  0.00     0.173 HD
ENDROOT
BRANCH   7  12
HETATM   12  C   LIG     1      17.404  36.024  23.607  1.00  0.00     0.024 C 
HETATM   13  C   LIG     1      17.277  36.532  25.048  1.00  0.00     0.007 C 
ENDBRANCH   7  12
BRANCH   7  14
HETATM   14  C   LIG     1      15.578  37.751  23.090  1.00  0.00     0.024 C 
HETATM   15  C   LIG     1      15.362  39.106  22.402  1.00  0.00     0.007 C 
ENDBRANCH   7  14
TORSDOF 2
ENDMDL
MODEL 3
REMARK VINA RESULT:      -6.2      0.915      3.205
REMARK  2 active torsions:
REMARK  status: ('A' for Active; 'I' for Inactive)
REMARK    1  A    between atoms: C_7  and  C_8 
REMARK    2  A    between atoms: C_7  and  C_10 
ROOT
HETATM    1  O   LIG     1      19.177  39.342  21.256  1.00  0.00    -0.246 OA
HETATM    2  C   LIG     1      18.271  38.472  21.372  1.00  0.00     0.331 C 
HETATM    3  N   LIG     1      17.285  38.578  22.407  1.00  0.00    -0.273 N 
HETATM    4  C   LIG     1      17.261  39.758  23.277  1.00  0.00     0.164 C 
HETATM    5  N   LIG     1      18.223  37.389  20.450  1.00  0.00    -0.278 N 
HETATM    6  C   LIG     1      17.222  36.377  20.557  1.00  0.00     0.243 C 
HETATM    7  C   LIG     1      16.419  36.190  21.838  1.00  0.00     0.122 C 
HETATM    8  C   LIG     1      16.421  37.459  22.690  1.00  0.00     0.245 C 
HETATM    9  O   LIG     1      15.669  37.502  23.705  1.00  0.00    -0.271 OA
HETATM   10  O   LIG     1      17.049  35.595  19.583  1.00  0.00    -0.272 OA
HETATM   11  H   LIG     1      18.881  37.376  19.638  1.00  0.00     0.173 HD
ENDROOT
BRANCH   7  12
HETATM   12  C   LIG     1      17.079  35.076  22.707  1.00  0.00     0.024 C 
HETATM   13  C   LIG     1      17.125  35.345  24.216  1.00  0.00     0.007 C 
ENDBRANCH   7  12
BRANCH   7  14
HETATM   14  C   LIG     1      14.943  35.815  21.490  1.00  0.00     0.024 C 
HETATM   15  C   LIG     1      14.689  34.303  21.421  1.00  0.00     0.007 C 
ENDBRANCH   7  14
TORSDOF 2
ENDMDL
MODEL 4
REMARK VINA RESULT:      -5.1      6.889      8.748
REMARK  2 active torsions:
REMARK  status: ('A' for Active; 'I' for Inactive)
REMARK    1  A    between atoms: C_7  and  C_8 
REMARK    2  A    between atoms: C_7  and  C_10 
ROOT
HETATM    1  O   LIG     1      14.844  29.884  13.549  1.00  0.00    -0.246 OA
HETATM    2  C   LIG     1      14.772  30.771  14.444  1.00  0.00     0.331 C 
HETATM    3  N   LIG     1      15.689  31.873  14.454  1.00  0.00    -0.273 N 
HETATM    4  C   LIG     1      16.655  32.032  13.362  1.00  0.00     0.164 C 
HETATM    5  N   LIG     1      13.756  30.680  15.436  1.00  0.00    -0.278 N 
HETATM    6  C   LIG     1      13.651  31.656  16.472  1.00  0.00     0.243 C 
HETATM    7  C   LIG     1      14.807  32.596  16.794  1.00  0.00     0.122 C 
HETATM    8  C   LIG     1      15.765  32.731  15.611  1.00  0.00     0.245 C 
HETATM    9  O   LIG     1      16.684  33.596  15.678  1.00  0.00    -0.271 OA
HETATM   10  O   LIG     1      12.596  31.692  17.162  1.00  0.00    -0.272 OA
HETATM   11  H   LIG     1      13.030  29.933  15.359  1.00  0.00     0.173 HD
ENDROOT
BRANCH   7  12
HETATM   12  C   LIG     1      15.642  32.008  17.972  1.00  0.00     0.024 C 
HETATM   13  C   LIG     1      14.853  31.655  19.239  1.00  0.00     0.007 C 
ENDBRANCH   7  12
BRANCH   7  14
HETATM   14  C   LIG     1      14.254  34.010  17.162  1.00  0.00     0.024 C 
HETATM   15  C   LIG     1      15.092  34.746  18.216  1.00  0.00     0.007 C 
ENDBRANCH   7  14
TORSDOF 2
ENDMDL
MODEL 5
REMARK VINA RESULT:      -4.7      1.842      4.796
REMARK  2 active torsions:
REMARK  status: ('A' for Active; 'I' for Inactive)
REMARK    1  A    between atoms: C_7  and  C_8 
REMARK    2  A    between atoms: C_7  and  C_10 
ROOT
HETATM    1  O   LIG     1      15.781  35.800  21.893  1.00  0.00    -0.246 OA
HETATM    2  C   LIG     1      16.758  36.493  21.496  1.00  0.00     0.331 C 
HETATM    3  N   LIG     1      17.152  37.675  22.207  1.00  0.00    -0.273 N 
HETATM    4  C   LIG     1      16.483  38.029  23.464  1.00  0.00     0.164 C 
HETATM    5  N   LIG     1      17.483  36.081  20.343  1.00  0.00    -0.278 N 
HETATM    6  C   LIG     1      18.585  36.846  19.856  1.00  0.00     0.243 C 
HETATM    7  C   LIG     1      18.798  38.291  20.288  1.00  0.00     0.122 C 
HETATM    8  C   LIG     1      18.091  38.590  21.609  1.00  0.00     0.245 C 
HETATM    9  O   LIG     1      18.308  39.703  22.168  1.00  0.00    -0.271 OA
HETATM   10  O   LIG     1      19.357  36.319  19.009  1.00  0.00    -0.272 OA
HETATM   11  H   LIG     1      17.255  35.165  19.894  1.00  0.00     0.173 HD
ENDROOT
BRANCH   7  12
HETATM   12  C   LIG     1      18.172  39.248  19.228  1.00  0.00     0.024 C 
HETATM   13  C   LIG     1      18.688  39.085  17.793  1.00  0.00     0.007 C 
ENDBRANCH   7  12
BRANCH   7  14
HETATM   14  C   LIG     1      20.325  38.576  20.454  1.00  0.00     0.024 C 
HETATM   15  C   LIG     1      21.043  38.889  19.134  1.00  0.00     0.007 C 
ENDBRANCH   7  14
TORSDOF 2
ENDMDL
MODEL 6
REMARK VINA RESULT:      -4.6     16.024     17.472
REMARK  2 active torsions:
REMARK  status: ('A' for Active; 'I' for Inactive)
REMARK    1  A    between atoms: C_7  and  C_8 
REMARK    2  A    between atoms: C_7  and  C_10 
ROOT
HETATM    1  O   LIG     1      22.520  20.325  17.641  1.00  0.00    -0.246 OA
HETATM    2  C   LIG     1      23.200  20.764  18.608  1.00  0.00     0.331 C 
HETATM    3  N   LIG     1      23.319  20.008  19.821  1.00  0.00    -0.273 N 
HETATM    4  C   LIG     1      22.733  18.666  19.906  1.00  0.00     0.164 C 
HETATM    5  N   LIG     1      23.869  22.013  18.479  1.00  0.00    -0.278 N 
HETATM    6  C   LIG     1      24.636  22.551  19.556  1.00  0.00     0.243 C 
HETATM    7  C   LIG     1      24.474  22.032  20.980  1.00  0.00     0.122 C 
HETATM    8  C   LIG     1      23.875  20.626  20.999  1.00  0.00     0.245 C 
HETATM    9  O   LIG     1      23.827  20.009  22.100  1.00  0.00    -0.271 OA
HETATM   10  O   LIG     1      25.420  23.510  19.318  1.00  0.00    -0.272 OA
HETATM   11  H   LIG     1      23.863  22.506  17.558  1.00  0.00     0.173 HD
ENDROOT
BRANCH   7  12
HETATM   12  C   LIG     1      23.476  22.946  21.755  1.00  0.00     0.024 C 
HETATM   13  C   LIG     1      22.016  22.887  21.288  1.00  0.00     0.007 C 
ENDBRANCH   7  12
BRANCH   7  14
HETATM   14  C   LIG     1      25.862  22.002  21.695  1.00  0.00     0.024 C 
HETATM   15  C   LIG     1      25.897  22.789  23.012  1.00  0.00     0.007 C 
ENDBRANCH   7  14
TORSDOF 2
ENDMDL
MODEL 7
REMARK VINA RESULT:      -4.5     15.631     16.925
REMARK  2 active torsions:
REMARK  status: ('A' for Active; 'I' for Inactive)
REMARK    1  A    between atoms: C_7  and  C_8 
REMARK    2  A    between atoms: C_7  and  C_10 
ROOT
HETATM    1  O   LIG     1      26.485  24.241  17.925  1.00  0.00    -0.246 OA
HETATM    2  C   LIG     1      25.736  23.567  18.683  1.00  0.00     0.331 C 
HETATM    3  N   LIG     1      25.918  23.597  20.105  1.00  0.00    -0.273 N 
HETATM    4  C   LIG     1      26.916  24.495  20.696  1.00  0.00     0.164 C 
HETATM    5  N   LIG     1      24.688  22.789  18.116  1.00  0.00    -0.278 N 
HETATM    6  C   LIG     1      23.829  22.002  18.940  1.00  0.00     0.243 C 
HETATM    7  C   LIG     1      24.206  21.655  20.375  1.00  0.00     0.122 C 
HETATM    8  C   LIG     1      25.235  22.636  20.935  1.00  0.00     0.245 C 
HETATM    9  O   LIG     1      25.526  22.565  22.163  1.00  0.00    -0.271 OA
HETATM   10  O   LIG     1      22.764  21.546  18.439  1.00  0.00    -0.272 OA
HETATM   11  H   LIG     1      24.497  22.855  17.091  1.00  0.00     0.173 HD
ENDROOT
BRANCH   7  12
HETATM   12  C   LIG     1      24.877  20.248  20.409  1.00  0.00     0.024 C 
HETATM   13  C   LIG     1      23.949  19.073  20.745  1.00  0.00     0.007 C 
ENDBRANCH   7  12
BRANCH   7  14
HETATM   14  C   LIG     1      22.934  21.681  21.280  1.00  0.00     0.024 C 
HETATM   15  C   LIG     1      22.243  23.050  21.337  1.00  0.00     0.007 C 
ENDBRANCH   7  14
TORSDOF 2
ENDMDL
MODEL 8
REMARK VINA RESULT:      -4.5     18.624     20.263
REMARK  2 active torsions:
REMARK  status: ('A' for Active; 'I' for Inactive)
REMARK    1  A    between atoms: C_7  and  C_8 
REMARK    2  A    between atoms: C_7  and  C_10 
ROOT
HETATM    1  O   LIG     1      20.525  19.250  31.262  1.00  0.00    -0.246 OA
HETATM    2  C   LIG     1      20.706  20.165  32.112  1.00  0.00     0.331 C 
HETATM    3  N   LIG     1      21.781  20.081  33.057  1.00  0.00    -0.273 N 
HETATM    4  C   LIG     1      22.744  18.978  32.974  1.00  0.00     0.164 C 
HETATM    5  N   LIG     1      19.843  21.296  32.114  1.00  0.00    -0.278 N 
HETATM    6  C   LIG     1      20.007  22.344  33.069  1.00  0.00     0.243 C 
HETATM    7  C   LIG     1      20.831  22.141  34.334  1.00  0.00     0.122 C 
HETATM    8  C   LIG     1      21.824  20.989  34.176  1.00  0.00     0.245 C 
HETATM    9  O   LIG     1      22.680  20.805  35.087  1.00  0.00    -0.271 OA
HETATM   10  O   LIG     1      19.406  23.436  32.875  1.00  0.00    -0.272 OA
HETATM   11  H   LIG     1      19.129  21.398  31.357  1.00  0.00     0.173 HD
ENDROOT
BRANCH   7  12
HETATM   12  C   LIG     1      19.887  21.749  35.512  1.00  0.00     0.024 C 
HETATM   13  C   LIG     1      19.298  20.334  35.454  1.00  0.00     0.007 C 
ENDBRANCH   7  12
BRANCH   7  14
HETATM   14  C   LIG     1      21.619  23.447  34.671  1.00  0.00     0.024 C 
HETATM   15  C   LIG     1      21.427  23.930  36.114  1.00  0.00     0.007 C 
ENDBRANCH   7  14
TORSDOF 2
ENDMDL
MODEL 9
REMARK VINA RESULT:      -4.4     15.907     17.507
REMARK  2 active torsions:
REMARK  status: ('A' for Active; 'I' for Inactive)
REMARK    1  A    between atoms: C_7  and  C_8 
REMARK    2  A    between atoms: C_7  and  C_10 
ROOT
HETATM    1  O   LIG     1      22.110  19.153  24.056  1.00  0.00    -0.246 OA
HETATM    2  C   LIG     1      22.874  19.973  23.476  1.00  0.00     0.331 C 
HETATM    3  N   LIG     1      23.597  20.956  24.229  1.00  0.00    -0.273 N 
HETATM    4  C   LIG     1      23.532  20.948  25.694  1.00  0.00     0.164 C 
HETATM    5  N   LIG     1      23.030  19.901  22.063  1.00  0.00    -0.278 N 
HETATM    6  C   LIG     1      23.874  20.818  21.370  1.00  0.00     0.243 C 
HETATM    7  C   LIG     1      24.334  22.118  22.020  1.00  0.00     0.122 C 
HETATM    8  C   LIG     1      24.257  22.039  23.544  1.00  0.00     0.245 C 
HETATM    9  O   LIG     1      24.752  22.986  24.220  1.00  0.00    -0.271 OA
HETATM   10  O   LIG     1      24.193  20.562  20.177  1.00  0.00    -0.272 OA
HETATM   11  H   LIG     1      22.582  19.117  21.537  1.00  0.00     0.173 HD
ENDROOT
BRANCH   7  12
HETATM   12  C   LIG     1      23.384  23.278  21.591  1.00  0.00     0.024 C 
HETATM   13  C   LIG     1      21.924  22.884  21.334  1.00  0.00     0.007 C 
ENDBRANCH   7  12
BRANCH   7  14
HETATM   14  C   LIG     1      25.806  22.430  21.601  1.00  0.00     0.024 C 
HETATM   15  C   LIG     1      25.936  23.602  20.619  1.00  0.00     0.007 C 
ENDBRANCH   7  14
TORSDOF 2
ENDMDL
MODEL 10
REMARK VINA RESULT:      -4.4     15.957     17.178
REMARK  2 active torsions:
REMARK  status: ('A' for Active; 'I' for Inactive)
REMARK    1  A    between atoms: C_7  and  C_8 
REMARK    2  A    between atoms: C_7  and  C_10 
ROOT
HETATM    1  O   LIG     1      26.775  23.429  22.405  1.00  0.00    -0.246 OA
HETATM    2  C   LIG     1      26.073  22.784  21.579  1.00  0.00     0.331 C 
HETATM    3  N   LIG     1      25.997  23.196  20.207  1.00  0.00    -0.273 N 
HETATM    4  C   LIG     1      26.820  24.313  19.732  1.00  0.00     0.164 C 
HETATM    5  N   LIG     1      25.370  21.627  22.015  1.00  0.00    -0.278 N 
HETATM    6  C   LIG     1      24.555  20.879  21.114  1.00  0.00     0.243 C 
HETATM    7  C   LIG     1      24.096  21.469  19.786  1.00  0.00     0.122 C 
HETATM    8  C   LIG     1      25.002  22.615  19.340  1.00  0.00     0.245 C 
HETATM    9  O   LIG     1      24.836  23.097  18.184  1.00  0.00    -0.271 OA
HETATM   10  O   LIG     1      24.169  19.729  21.462  1.00  0.00    -0.272 OA
HETATM   11  H   LIG     1      25.514  21.275  22.989  1.00  0.00     0.173 HD
ENDROOT
BRANCH   7  12
HETATM   12  C   LIG     1      22.669  22.075  19.952  1.00  0.00     0.024 C 
HETATM   13  C   LIG     1      22.408  22.817  21.269  1.00  0.00     0.007 C 
ENDBRANCH   7  12
BRANCH   7  14
HETATM   14  C   LIG     1      24.098  20.362  18.684  1.00  0.00     0.024 C 
HETATM   15  C   LIG     1      22.750  20.198  17.969  1.00  0.00     0.007 C 
ENDBRANCH   7  14
TORSDOF 2
ENDMDL
MODEL 11
REMARK VINA RESULT:      -4.3     16.392     17.911
REMARK  2 active torsions:
REMARK  status: ('A' for Active; 'I' for Inactive)
REMARK    1  A    between atoms: C_7  and  C_8 
REMARK    2  A    between atoms: C_7  and  C_10 
ROOT
HETATM    1  O   LIG     1      22.592  18.352  20.217  1.00  0.00    -0.246 OA
HETATM    2  C   LIG     1      23.265  19.419  20.188  1.00  0.00     0.331 C 
HETATM    3  N   LIG     1      24.325  19.639  21.129  1.00  0.00    -0.273 N 
HETATM    4  C   LIG     1      24.701  18.577  22.068  1.00  0.00     0.164 C 
HETATM    5  N   LIG     1      22.977  20.398  19.197  1.00  0.00    -0.278 N 
HETATM    6  C   LIG     1      23.707  21.623  19.141  1.00  0.00     0.243 C 
HETATM    7  C   LIG     1      24.537  22.105  20.325  1.00  0.00     0.122 C 
HETATM    8  C   LIG     1      24.910  20.951  21.254  1.00  0.00     0.245 C 
HETATM    9  O   LIG     1      25.725  21.175  22.193  1.00  0.00    -0.271 OA
HETATM   10  O   LIG     1      23.609  22.337  18.106  1.00  0.00    -0.272 OA
HETATM   11  H   LIG     1      22.275  20.185  18.453  1.00  0.00     0.173 HD
ENDROOT
BRANCH   7  12
HETATM   12  C   LIG     1      23.695  23.103  21.178  1.00  0.00     0.024 C 
HETATM   13  C   LIG     1      22.211  22.753  21.344  1.00  0.00     0.007 C 
ENDBRANCH   7  12
BRANCH   7  14
HETATM   14  C   LIG     1      25.846  22.787  19.813  1.00  0.00     0.024 C 
HETATM   15  C   LIG     1      25.866  24.309  20.006  1.00  0.00     0.007 C 
ENDBRANCH   7  14
TORSDOF 2
ENDMDL
MODEL 12
REMARK VINA RESULT:      -4.2     16.075     17.405
REMARK  2 active torsions:
REMARK  status: ('A' for Active; 'I' for Inactive)
REMARK    1  A    between atoms: C_7  and  C_8 
REMARK    2  A    between atoms: C_7  and  C_10 
ROOT
HETATM    1  O   LIG     1      23.469  20.855  17.760  1.00  0.00    -0.246 OA
HETATM    2  C   LIG     1      23.645  21.205  18.959  1.00  0.00     0.331 C 
HETATM    3  N   LIG     1      24.861  20.876  19.645  1.00  0.00    -0.273 N 
HETATM    4  C   LIG     1      25.954  20.219  18.922  1.00  0.00     0.164 C 
HETATM    5  N   LIG     1      22.631  21.949  19.624  1.00  0.00    -0.278 N 
HETATM    6  C   LIG     1      22.786  22.350  20.985  1.00  0.00     0.243 C 
HETATM    7  C   LIG     1      23.828  21.701  21.888  1.00  0.00     0.122 C 
HETATM    8  C   LIG     1      24.946  21.050  21.074  1.00  0.00     0.245 C 
HETATM    9  O   LIG     1      25.957  20.608  21.689  1.00  0.00    -0.271 OA
HETATM   10  O   LIG     1      22.002  23.222  21.450  1.00  0.00    -0.272 OA
HETATM   11  H   LIG     1      21.796  22.273  19.086  1.00  0.00     0.173 HD
ENDROOT
BRANCH   7  12
HETATM   12  C   LIG     1      23.161  20.558  22.712  1.00  0.00     0.024 C 
HETATM   13  C   LIG     1      22.891  19.254  21.950  1.00  0.00     0.007 C 
ENDBRANCH   7  12
BRANCH   7  14
HETATM   14  C   LIG     1      24.451  22.773  22.837  1.00  0.00     0.024 C 
HETATM   15  C   LIG     1      24.545  22.323  24.301  1.00  0.00     0.007 C 
ENDBRANCH   7  14
TORSDOF 2
ENDMDL
MODEL 13
REMARK VINA RESULT:      -4.1     16.988     18.472
REMARK  2 active torsions:
REMARK  status: ('A' for Active; 'I' for Inactive)
REMARK    1  A    between atoms: C_7  and  C_8 
REMARK    2  A    between atoms: C_7  and  C_10 
ROOT
HETATM    1  O   LIG     1      24.241  18.500  22.148  1.00  0.00    -0.246 OA
HETATM    2  C   LIG     1      24.198  19.336  21.205  1.00  0.00     0.331 C 
HETATM    3  N   LIG     1      23.452  20.553  21.341  1.00  0.00    -0.273 N 
HETATM    4  C   LIG     1      22.816  20.882  22.621  1.00  0.00     0.164 C 
HETATM    5  N   LIG     1      24.916  19.072  20.005  1.00  0.00    -0.278 N 
HETATM    6  C   LIG     1      24.881  19.986  18.911  1.00  0.00     0.243 C 
HETATM    7  C   LIG     1      23.808  21.064  18.814  1.00  0.00     0.122 C 
HETATM    8  C   LIG     1      23.198  21.371  20.181  1.00  0.00     0.245 C 
HETATM    9  O   LIG     1      22.407  22.352  20.279  1.00  0.00    -0.271 OA
HETATM   10  O   LIG     1      25.727  19.852  17.985  1.00  0.00    -0.272 OA
HETATM   11  H   LIG     1      25.540  18.234  19.955  1.00  0.00     0.173 HD
ENDROOT
BRANCH   7  12
HETATM   12  C   LIG     1      22.640  20.555  17.915  1.00  0.00     0.024 C 
HETATM   13  C   LIG     1      22.234  19.089  18.113  1.00  0.00     0.007 C 
ENDBRANCH   7  12
BRANCH   7  14
HETATM   14  C   LIG     1      24.423  22.375  18.227  1.00  0.00     0.024 C 
HETATM   15  C   LIG     1      25.474  23.026  19.136  1.00  0.00     0.007 C 
ENDBRANCH   7  14
TORSDOF 2
ENDMDL
MODEL 14
REMARK VINA RESULT:      -4.1     15.797     16.863
REMARK  2 active torsions:
REMARK  status: ('A' for Active; 'I' for Inactive)
REMARK    1  A    between atoms: C_7  and  C_8 
REMARK    2  A    between atoms: C_7  and  C_10 
ROOT
HETATM    1  O   LIG     1      27.304  23.669  24.489  1.00  0.00    -0.246 OA
HETATM    2  C   LIG     1      26.465  23.129  23.718  1.00  0.00     0.331 C 
HETATM    3  N   LIG     1      26.669  23.132  22.299  1.00  0.00    -0.273 N 
HETATM    4  C   LIG     1      27.912  23.675  21.740  1.00  0.00     0.164 C 
HETATM    5  N   LIG     1      25.317  22.494  24.271  1.00  0.00    -0.278 N 
HETATM    6  C   LIG     1      24.338  21.885  23.431  1.00  0.00     0.243 C 
HETATM    7  C   LIG     1      24.265  22.201  21.941  1.00  0.00     0.122 C 
HETATM    8  C   LIG     1      25.593  22.746  21.419  1.00  0.00     0.245 C 
HETATM    9  O   LIG     1      25.729  22.907  20.173  1.00  0.00    -0.271 OA
HETATM   10  O   LIG     1      23.489  21.113  23.955  1.00  0.00    -0.272 OA
HETATM   11  H   LIG     1      25.230  22.406  25.309  1.00  0.00     0.173 HD
ENDROOT
BRANCH   7  12
HETATM   12  C   LIG     1      23.205  23.318  21.700  1.00  0.00     0.024 C 
HETATM   13  C   LIG     1      21.804  22.836  21.303  1.00  0.00     0.007 C 
ENDBRANCH   7  12
BRANCH   7  14
HETATM   14  C   LIG     1      23.897  20.911  21.142  1.00  0.00     0.024 C 
HETATM   15  C   LIG     1      24.957  19.804  21.231  1.00  0.00     0.007 C 
ENDBRANCH   7  14
TORSDOF 2
ENDMDL
MODEL 15
REMARK VINA RESULT:      -4.0     16.140     17.551
REMARK  2 active torsions:
REMARK  status: ('A' for Active; 'I' for Inactive)
REMARK    1  A    between atoms: C_7  and  C_8 
REMARK    2  A    between atoms: C_7  and  C_10 
ROOT
HETATM    1  O   LIG     1      26.211  19.562  18.974  1.00  0.00    -0.246 OA
HETATM    2  C   LIG     1      25.630  20.360  19.760  1.00  0.00     0.331 C 
HETATM    3  N   LIG     1      25.641  21.771  19.508  1.00  0.00    -0.273 N 
HETATM    4  C   LIG     1      26.243  22.289  18.275  1.00  0.00     0.164 C 
HETATM    5  N   LIG     1      24.941  19.845  20.894  1.00  0.00    -0.278 N 
HETATM    6  C   LIG     1      24.285  20.716  21.813  1.00  0.00     0.243 C 
HETATM    7  C   LIG     1      24.596  22.208  21.851  1.00  0.00     0.122 C 
HETATM    8  C   LIG     1      25.204  22.686  20.534  1.00  0.00     0.245 C 
HETATM    9  O   LIG     1      25.370  23.927  20.364  1.00  0.00    -0.271 OA
HETATM   10  O   LIG     1      23.474  20.219  22.642  1.00  0.00    -0.272 OA
HETATM   11  H   LIG     1      24.850  18.810  21.013  1.00  0.00     0.173 HD
ENDROOT
BRANCH   7  12
HETATM   12  C   LIG     1      25.661  22.488  22.955  1.00  0.00     0.024 C 
HETATM   13  C   LIG     1      25.110  22.900  24.326  1.00  0.00     0.007 C 
ENDBRANCH   7  12
BRANCH   7  14
HETATM   14  C   LIG     1      23.289  23.016  22.129  1.00  0.00     0.024 C 
HETATM   15  C   LIG     1      22.189  22.794  21.082  1.00  0.00     0.007 C 
ENDBRANCH   7  14
TORSDOF 2
ENDMDL
MODEL 16
REMARK VINA RESULT:      -4.0     18.856     20.788
REMARK  2 active torsions:
REMARK  status: ('A' for Active; 'I' for Inactive)
REMARK    1  A    between atoms: C_7  and  C_8 
REMARK    2  A    between atoms: C_7  and  C_10 
ROOT
HETATM    1  O   LIG     1      24.373  20.349  34.454  1.00  0.00    -0.246 OA
HETATM    2  C   LIG     1      23.216  20.852  34.465  1.00  0.00     0.331 C 
HETATM    3  N   LIG     1      22.980  22.129  35.074  1.00  0.00    -0.273 N 
HETATM    4  C   LIG     1      24.106  22.908  35.599  1.00  0.00     0.164 C 
HETATM    5  N   LIG     1      22.145  20.149  33.847  1.00  0.00    -0.278 N 
HETATM    6  C   LIG     1      20.819  20.678  33.850  1.00  0.00     0.243 C 
HETATM    7  C   LIG     1      20.413  21.789  34.810  1.00  0.00     0.122 C 
HETATM    8  C   LIG     1      21.628  22.571  35.307  1.00  0.00     0.245 C 
HETATM    9  O   LIG     1      21.431  23.618  35.987  1.00  0.00    -0.271 OA
HETATM   10  O   LIG     1      19.964  20.168  33.075  1.00  0.00    -0.272 OA
HETATM   11  H   LIG     1      22.345  19.271  33.316  1.00  0.00     0.173 HD
ENDROOT
BRANCH   7  12
HETATM   12  C   LIG     1      19.745  21.165  36.074  1.00  0.00     0.024 C 
HETATM   13  C   LIG     1      20.614  20.189  36.877  1.00  0.00     0.007 C 
ENDBRANCH   7  12
BRANCH   7  14
HETATM   14  C   LIG     1      19.432  22.774  34.099  1.00  0.00     0.024 C 
HETATM   15  C   LIG     1      19.947  23.293  32.750  1.00  0.00     0.007 C 
ENDBRANCH   7  14
TORSDOF 2
ENDMDL
MODEL 17
REMARK VINA RESULT:      -4.0     15.667     16.876
REMARK  2 active torsions:
REMARK  status: ('A' for Active; 'I' for Inactive)
REMARK    1  A    between atoms: C_7  and  C_8 
REMARK    2  A    between atoms: C_7  and  C_10 
ROOT
HETATM    1  O   LIG     1      25.954  22.178  22.073  1.00  0.00    -0.246 OA
HETATM    2  C   LIG     1      26.388  23.130  21.368  1.00  0.00     0.331 C 
HETATM    3  N   LIG     1      25.843  23.382  20.065  1.00  0.00    -0.273 N 
HETATM    4  C   LIG     1      24.702  22.595  19.586  1.00  0.00     0.164 C 
HETATM    5  N   LIG     1      27.414  23.970  21.884  1.00  0.00    -0.278 N 
HETATM    6  C   LIG     1      27.940  25.048  21.112  1.00  0.00     0.243 C 
HETATM    7  C   LIG     1      27.722  25.123  19.605  1.00  0.00     0.122 C 
HETATM    8  C   LIG     1      26.511  24.296  19.173  1.00  0.00     0.245 C 
HETATM    9  O   LIG     1      26.117  24.388  17.976  1.00  0.00    -0.271 OA
HETATM   10  O   LIG     1      28.644  25.919  21.692  1.00  0.00    -0.272 OA
HETATM   11  H   LIG     1      27.731  23.844  22.872  1.00  0.00     0.173 HD
ENDROOT
BRANCH   7  12
HETATM   12  C   LIG     1      28.955  24.513  18.871  1.00  0.00     0.024 C 
HETATM   13  C   LIG     1      29.314  23.071  19.251  1.00  0.00     0.007 C 
ENDBRANCH   7  12
BRANCH   7  14
HETATM   14  C   LIG     1      27.502  26.607  19.173  1.00  0.00     0.024 C 
HETATM   15  C   LIG     1      28.641  27.177  18.316  1.00  0.00     0.007 C 
ENDBRANCH   7  14
TORSDOF 2
ENDMDL
MODEL 18
REMARK VINA RESULT:      -3.9     16.040     17.319
REMARK  2 active torsions:
REMARK  status: ('A' for Active; 'I' for Inactive)
REMARK    1  A    between atoms: C_7  and  C_8 
REMARK    2  A    between atoms: C_7  and  C_10 
ROOT
HETATM    1  O   LIG     1      29.308  24.632  14.903  1.00  0.00    -0.246 OA
HETATM    2  C   LIG     1      29.175  24.869  16.135  1.00  0.00     0.331 C 
HETATM    3  N   LIG     1      29.200  23.801  17.091  1.00  0.00    -0.273 N 
HETATM    4  C   LIG     1      29.486  22.431  16.651  1.00  0.00     0.164 C 
HETATM    5  N   LIG     1      29.019  26.214  16.574  1.00  0.00    -0.278 N 
HETATM    6  C   LIG     1      28.852  26.521  17.957  1.00  0.00     0.243 C 
HETATM    7  C   LIG     1      28.456  25.448  18.965  1.00  0.00     0.122 C 
HETATM    8  C   LIG     1      28.794  24.048  18.453  1.00  0.00     0.245 C 
HETATM    9  O   LIG     1      28.665  23.071  19.244  1.00  0.00    -0.271 OA
HETATM   10  O   LIG     1      28.984  27.719  18.330  1.00  0.00    -0.272 OA
HETATM   11  H   LIG     1      29.106  26.992  15.882  1.00  0.00     0.173 HD
ENDROOT
BRANCH   7  12
HETATM   12  C   LIG     1      26.912  25.478  19.176  1.00  0.00     0.024 C 
HETATM   13  C   LIG     1      26.079  24.722  18.132  1.00  0.00     0.007 C 
ENDBRANCH   7  12
BRANCH   7  14
HETATM   14  C   LIG     1      29.201  25.687  20.316  1.00  0.00     0.024 C 
HETATM   15  C   LIG     1      28.274  25.705  21.539  1.00  0.00     0.007 C 
ENDBRANCH   7  14
TORSDOF 2
ENDMDL
MODEL 19
REMARK VINA RESULT:      -3.9     16.042     17.427
REMARK  2 active torsions:
REMARK  status: ('A' for Active; 'I' for Inactive)
REMARK    1  A    between atoms: C_7  and  C_8 
REMARK    2  A    between atoms: C_7  and  C_10 
ROOT
HETATM    1  O   LIG     1      24.540  21.599  22.494  1.00  0.00    -0.246 OA
HETATM    2  C   LIG     1      25.079  22.114  21.476  1.00  0.00     0.331 C 
HETATM    3  N   LIG     1      24.318  22.345  20.284  1.00  0.00    -0.273 N 
HETATM    4  C   LIG     1      22.876  22.076  20.274  1.00  0.00     0.164 C 
HETATM    5  N   LIG     1      26.452  22.487  21.528  1.00  0.00    -0.278 N 
HETATM    6  C   LIG     1      27.101  23.059  20.393  1.00  0.00     0.243 C 
HETATM    7  C   LIG     1      26.498  22.951  18.998  1.00  0.00     0.122 C 
HETATM    8  C   LIG     1      24.994  22.688  19.057  1.00  0.00     0.245 C 
HETATM    9  O   LIG     1      24.334  22.730  17.980  1.00  0.00    -0.271 OA
HETATM   10  O   LIG     1      28.222  23.613  20.556  1.00  0.00    -0.272 OA
HETATM   11  H   LIG     1      26.970  22.412  22.432  1.00  0.00     0.173 HD
ENDROOT
BRANCH   7  12
HETATM   12  C   LIG     1      27.128  21.736  18.252  1.00  0.00     0.024 C 
HETATM   13  C   LIG     1      28.157  22.077  17.167  1.00  0.00     0.007 C 
ENDBRANCH   7  12
BRANCH   7  14
HETATM   14  C   LIG     1      26.751  24.274  18.207  1.00  0.00     0.024 C 
HETATM   15  C   LIG     1      26.218  25.528  18.912  1.00  0.00     0.007 C 
ENDBRANCH   7  14
TORSDOF 2
ENDMDL
MODEL 20
REMARK VINA RESULT:      -3.9     16.357     17.034
REMARK  2 active torsions:
REMARK  status: ('A' for Active; 'I' for Inactive)
REMARK    1  A    between atoms: C_7  and  C_8 
REMARK    2  A    between atoms: C_7  and  C_10 
ROOT
HETATM    1  O   LIG     1      23.914  22.444  18.033  1.00  0.00    -0.246 OA
HETATM    2  C   LIG     1      24.131  22.436  19.275  1.00  0.00     0.331 C 
HETATM    3  N   LIG     1      25.274  23.110  19.821  1.00  0.00    -0.273 N 
HETATM    4  C   LIG     1      26.143  23.903  18.946  1.00  0.00     0.164 C 
HETATM    5  N   LIG     1      23.219  21.767  20.139  1.00  0.00    -0.278 N 
HETATM    6  C   LIG     1      23.439  21.723  21.548  1.00  0.00     0.243 C 
HETATM    7  C   LIG     1      24.804  22.040  22.147  1.00  0.00     0.122 C 
HETATM    8  C   LIG     1      25.652  22.880  21.194  1.00  0.00     0.245 C 
HETATM    9  O   LIG     1      26.747  23.348  21.617  1.00  0.00    -0.271 OA
HETATM   10  O   LIG     1      22.490  21.361  22.296  1.00  0.00    -0.272 OA
HETATM   11  H   LIG     1      22.337  21.370  19.744  1.00  0.00     0.173 HD
ENDROOT
BRANCH   7  12
HETATM   12  C   LIG     1      25.589  20.713  22.381  1.00  0.00     0.024 C 
HETATM   13  C   LIG     1      25.945  19.916  21.120  1.00  0.00     0.007 C 
ENDBRANCH   7  12
BRANCH   7  14
HETATM   14  C   LIG     1      24.628  22.819  23.489  1.00  0.00     0.024 C 
HETATM   15  C   LIG     1      25.024  22.009  24.731  1.00  0.00     0.007 C 
ENDBRANCH   7  14
TORSDOF 2
ENDMDL
