REMARK  5 active torsions:
REMARK  status: ('A' for Active; 'I' for Inactive)
REMARK    1  A    between atoms: C_12  and  O_13 
REMARK    2  A    between atoms: C_20  and  C_22 
REMARK    3  A    between atoms: C_20  and  O_21 
REMARK    4  A    between atoms: C_22  and  C_23 
REMARK    5  A    between atoms: C_23  and  O_24 
ROOT
HETATM    1  O   LIG     1      -5.676   2.466  -0.644  1.00  0.00    -0.293 OA
HETATM    2  C   LIG     1      -4.719   1.668  -0.469  1.00  0.00     0.149 C 
HETATM    3  C   LIG     1      -4.394   0.659  -1.529  1.00  0.00     0.084 C 
HETATM    4  C   LIG     1      -2.956   0.142  -1.390  1.00  0.00     0.022 C 
HETATM    5  C   LIG     1      -2.596  -0.270   0.070  1.00  0.00    -0.014 C 
HETATM    6  C   LIG     1      -3.429  -1.510   0.480  1.00  0.00     0.020 C 
HETATM    7  C   LIG     1      -2.945   0.875   1.036  1.00  0.00    -0.068 C 
HETATM    8  C   LIG     1      -2.071   1.086   2.260  1.00  0.00     0.035 C 
HETATM    9  C   LIG     1      -0.582   1.284   1.880  1.00  0.00     0.010 C 
HETATM   10  C   LIG     1      -0.241   0.709   0.483  1.00  0.00    -0.002 C 
HETATM   11  C   LIG     1      -1.058  -0.596   0.227  1.00  0.00     0.031 C 
HETATM   12  C   LIG     1      -0.398  -1.494  -0.859  1.00  0.00     0.124 C 
HETATM   13  C   LIG     1       1.031  -1.955  -0.419  1.00  0.00     0.045 C 
HETATM   14  C   LIG     1       1.844  -0.889   0.414  1.00  0.00     0.001 C 
HETATM   15  C   LIG     1       1.766  -1.281   1.931  1.00  0.00     0.019 C 
HETATM   16  C   LIG     1       1.268   0.515   0.166  1.00  0.00     0.002 C 
HETATM   17  C   LIG     1       2.289   1.502   0.725  1.00  0.00     0.009 C 
HETATM   18  C   LIG     1       3.637   0.764   0.640  1.00  0.00     0.047 C 
HETATM   19  C   LIG     1       3.365  -0.650   0.035  1.00  0.00     0.128 C 
HETATM   20  C   LIG     1      -3.948   1.730   0.782  1.00  0.00     0.053 C 
ENDROOT
BRANCH  19  21
HETATM   21  C   LIG     1       3.680  -0.709  -1.481  1.00  0.00     0.184 C 
HETATM   22  O   LIG     1       3.705  -1.803  -2.029  1.00  0.00    -0.292 OA
BRANCH  21  23
HETATM   23  C   LIG     1       4.133   0.469  -2.318  1.00  0.00     0.245 C 
BRANCH  23  24
HETATM   24  O   LIG     1       3.183   1.496  -2.298  1.00  0.00    -0.393 OA
HETATM   25  H   LIG     1       3.565   2.237  -2.834  1.00  0.00     0.209 HD
ENDBRANCH  23  24
ENDBRANCH  21  23
ENDBRANCH  19  21
BRANCH  19  26
HETATM   26  O   LIG     1       4.210  -1.572   0.684  1.00  0.00    -0.381 OA
HETATM   27  H   LIG     1       3.935  -2.483   0.398  1.00  0.00     0.211 HD
ENDBRANCH  19  26
BRANCH  12  28
HETATM   28  O   LIG     1      -0.313  -0.804  -2.081  1.00  0.00    -0.395 OA
HETATM   29  H   LIG     1      -0.207  -1.487  -2.792  1.00  0.00     0.210 HD
ENDBRANCH  12  28
TORSDOF 5
