REMARK  5 active torsions:
REMARK  status: ('A' for Active; 'I' for Inactive)
REMARK    1  A    between atoms: C_12  and  O_13 
REMARK    2  A    between atoms: C_20  and  C_22 
REMARK    3  A    between atoms: C_20  and  O_21 
REMARK    4  A    between atoms: C_22  and  C_23 
REMARK    5  A    between atoms: C_23  and  O_24 
ROOT
HETATM    1  O   LIG     1      -5.875   2.060   1.348  1.00  0.00    -0.289 OA
HETATM    2  C   LIG     1      -4.886   1.468   0.842  1.00  0.00     0.171 C 
HETATM    3  C   LIG     1      -4.225   2.017  -0.343  1.00  0.00     0.052 C 
HETATM    4  C   LIG     1      -3.224   1.356  -0.928  1.00  0.00    -0.009 C 
HETATM    5  C   LIG     1      -2.820  -0.058  -0.518  1.00  0.00     0.004 C 
HETATM    6  C   LIG     1      -3.476  -1.016  -1.537  1.00  0.00     0.025 C 
HETATM    7  C   LIG     1      -3.358  -0.430   0.881  1.00  0.00    -0.064 C 
HETATM    8  C   LIG     1      -2.602  -1.474   1.676  1.00  0.00     0.036 C 
HETATM    9  C   LIG     1      -1.145  -1.020   1.937  1.00  0.00     0.010 C 
HETATM   10  C   LIG     1      -0.652   0.029   0.904  1.00  0.00    -0.002 C 
HETATM   11  C   LIG     1      -1.252  -0.268  -0.508  1.00  0.00     0.035 C 
HETATM   12  C   LIG     1      -0.408   0.356  -1.674  1.00  0.00     0.124 C 
HETATM   13  C   LIG     1       1.075  -0.142  -1.665  1.00  0.00     0.045 C 
HETATM   14  C   LIG     1       1.645  -0.515  -0.247  1.00  0.00     0.001 C 
HETATM   15  C   LIG     1       1.539  -2.066  -0.035  1.00  0.00     0.019 C 
HETATM   16  C   LIG     1       0.885   0.256   0.846  1.00  0.00     0.002 C 
HETATM   17  C   LIG     1       1.728   0.123   2.108  1.00  0.00     0.009 C 
HETATM   18  C   LIG     1       3.180   0.045   1.596  1.00  0.00     0.047 C 
HETATM   19  C   LIG     1       3.135  -0.076   0.043  1.00  0.00     0.128 C 
HETATM   20  C   LIG     1      -4.350   0.258   1.467  1.00  0.00     0.058 C 
ENDROOT
BRANCH  19  21
HETATM   21  C   LIG     1       3.539   1.275  -0.578  1.00  0.00     0.184 C 
HETATM   22  O   LIG     1       2.944   2.295  -0.263  1.00  0.00    -0.292 OA
BRANCH  21  23
HETATM   23  C   LIG     1       4.708   1.411  -1.522  1.00  0.00     0.245 C 
BRANCH  23  24
HETATM   24  O   LIG     1       5.912   1.372  -0.805  1.00  0.00    -0.393 OA
HETATM   25  H   LIG     1       6.172   0.417  -0.728  1.00  0.00     0.209 HD
ENDBRANCH  23  24
ENDBRANCH  21  23
ENDBRANCH  19  21
BRANCH  19  26
HETATM   26  O   LIG     1       4.054  -1.070  -0.354  1.00  0.00    -0.381 OA
HETATM   27  H   LIG     1       3.897  -1.256  -1.316  1.00  0.00     0.211 HD
ENDBRANCH  19  26
BRANCH  12  28
HETATM   28  O   LIG     1      -0.431   1.765  -1.712  1.00  0.00    -0.395 OA
HETATM   29  H   LIG     1      -0.530   2.122  -0.795  1.00  0.00     0.210 HD
ENDBRANCH  12  28
TORSDOF 5
