MODEL 1
REMARK VINA RESULT:      -5.1      0.000      0.000
REMARK  5 active torsions:
REMARK  status: ('A' for Active; 'I' for Inactive)
REMARK    1  A    between atoms: C_12  and  O_13 
REMARK    2  A    between atoms: C_20  and  C_22 
REMARK    3  A    between atoms: C_20  and  O_21 
REMARK    4  A    between atoms: C_22  and  C_23 
REMARK    5  A    between atoms: C_23  and  O_24 
ROOT
HETATM    1  O   LIG     1      22.638  17.935  22.023  1.00  0.00    -0.289 OA
HETATM    2  C   LIG     1      22.995  19.089  21.668  1.00  0.00     0.171 C 
HETATM    3  C   LIG     1      23.650  19.985  22.622  1.00  0.00     0.052 C 
HETATM    4  C   LIG     1      23.963  21.234  22.273  1.00  0.00    -0.009 C 
HETATM    5  C   LIG     1      23.522  21.855  20.950  1.00  0.00     0.004 C 
HETATM    6  C   LIG     1      22.275  22.713  21.261  1.00  0.00     0.025 C 
HETATM    7  C   LIG     1      23.103  20.784  19.920  1.00  0.00    -0.064 C 
HETATM    8  C   LIG     1      23.220  21.130  18.451  1.00  0.00     0.036 C 
HETATM    9  C   LIG     1      24.685  21.464  18.078  1.00  0.00     0.010 C 
HETATM   10  C   LIG     1      25.524  21.919  19.303  1.00  0.00    -0.002 C 
HETATM   11  C   LIG     1      24.646  22.752  20.290  1.00  0.00     0.035 C 
HETATM   12  C   LIG     1      25.493  23.691  21.219  1.00  0.00     0.124 C 
HETATM   13  C   LIG     1      26.380  24.688  20.403  1.00  0.00     0.045 C 
HETATM   14  C   LIG     1      26.844  24.168  18.992  1.00  0.00     0.001 C 
HETATM   15  C   LIG     1      25.885  24.736  17.888  1.00  0.00     0.019 C 
HETATM   16  C   LIG     1      26.868  22.630  18.979  1.00  0.00     0.002 C 
HETATM   17  C   LIG     1      27.664  22.240  17.740  1.00  0.00     0.009 C 
HETATM   18  C   LIG     1      28.689  23.378  17.565  1.00  0.00     0.047 C 
HETATM   19  C   LIG     1      28.331  24.506  18.579  1.00  0.00     0.128 C 
HETATM   20  C   LIG     1      22.813  19.525  20.282  1.00  0.00     0.058 C 
ENDROOT
BRANCH  19  21
HETATM   21  C   LIG     1      29.343  24.476  19.741  1.00  0.00     0.184 C 
HETATM   22  O   LIG     1      29.875  23.423  20.061  1.00  0.00    -0.292 OA
BRANCH  21  23
HETATM   23  C   LIG     1      29.771  25.726  20.469  1.00  0.00     0.245 C 
BRANCH  23  24
HETATM   24  O   LIG     1      30.480  26.569  19.602  1.00  0.00    -0.393 OA
HETATM   25  H   LIG     1      29.816  27.180  19.187  1.00  0.00     0.209 HD
ENDBRANCH  23  24
ENDBRANCH  21  23
ENDBRANCH  19  21
BRANCH  19  26
HETATM   26  O   LIG     1      28.414  25.747  17.914  1.00  0.00    -0.381 OA
HETATM   27  H   LIG     1      27.739  26.350  18.320  1.00  0.00     0.211 HD
ENDBRANCH  19  26
BRANCH  12  28
HETATM   28  O   LIG     1      26.294  23.005  22.155  1.00  0.00    -0.395 OA
HETATM   29  H   LIG     1      26.947  23.630  22.556  1.00  0.00     0.210 HD
ENDBRANCH  12  28
TORSDOF 5
ENDMDL
MODEL 2
REMARK VINA RESULT:      -5.0      2.575      4.071
REMARK  5 active torsions:
REMARK  status: ('A' for Active; 'I' for Inactive)
REMARK    1  A    between atoms: C_12  and  O_13 
REMARK    2  A    between atoms: C_20  and  C_22 
REMARK    3  A    between atoms: C_20  and  O_21 
REMARK    4  A    between atoms: C_22  and  C_23 
REMARK    5  A    between atoms: C_23  and  O_24 
ROOT
HETATM    1  O   LIG     1      22.311  18.276  14.679  1.00  0.00    -0.289 OA
HETATM    2  C   LIG     1      23.072  18.683  15.595  1.00  0.00     0.171 C 
HETATM    3  C   LIG     1      24.521  18.516  15.479  1.00  0.00     0.052 C 
HETATM    4  C   LIG     1      25.327  18.877  16.479  1.00  0.00    -0.009 C 
HETATM    5  C   LIG     1      24.801  19.319  17.843  1.00  0.00     0.004 C 
HETATM    6  C   LIG     1      24.906  18.090  18.774  1.00  0.00     0.025 C 
HETATM    7  C   LIG     1      23.314  19.729  17.783  1.00  0.00    -0.064 C 
HETATM    8  C   LIG     1      22.810  20.717  18.814  1.00  0.00     0.036 C 
HETATM    9  C   LIG     1      23.579  22.057  18.716  1.00  0.00     0.010 C 
HETATM   10  C   LIG     1      24.974  21.899  18.053  1.00  0.00    -0.002 C 
HETATM   11  C   LIG     1      25.617  20.531  18.450  1.00  0.00     0.035 C 
HETATM   12  C   LIG     1      27.179  20.526  18.307  1.00  0.00     0.124 C 
HETATM   13  C   LIG     1      27.857  21.645  19.165  1.00  0.00     0.045 C 
HETATM   14  C   LIG     1      26.982  22.933  19.392  1.00  0.00     0.001 C 
HETATM   15  C   LIG     1      26.275  22.841  20.790  1.00  0.00     0.019 C 
HETATM   16  C   LIG     1      25.960  23.084  18.253  1.00  0.00     0.002 C 
HETATM   17  C   LIG     1      25.434  24.510  18.355  1.00  0.00     0.009 C 
HETATM   18  C   LIG     1      26.623  25.321  18.908  1.00  0.00     0.047 C 
HETATM   19  C   LIG     1      27.743  24.315  19.311  1.00  0.00     0.128 C 
HETATM   20  C   LIG     1      22.520  19.379  16.759  1.00  0.00     0.058 C 
ENDROOT
BRANCH  19  21
HETATM   21  C   LIG     1      28.868  24.369  18.260  1.00  0.00     0.184 C 
HETATM   22  O   LIG     1      30.033  24.229  18.603  1.00  0.00    -0.292 OA
BRANCH  21  23
HETATM   23  C   LIG     1      28.587  24.515  16.785  1.00  0.00     0.245 C 
BRANCH  23  24
HETATM   24  O   LIG     1      28.810  23.296  16.130  1.00  0.00    -0.393 OA
HETATM   25  H   LIG     1      29.609  23.419  15.554  1.00  0.00     0.209 HD
ENDBRANCH  23  24
ENDBRANCH  21  23
ENDBRANCH  19  21
BRANCH  19  26
HETATM   26  O   LIG     1      28.255  24.698  20.569  1.00  0.00    -0.381 OA
HETATM   27  H   LIG     1      29.212  24.931  20.444  1.00  0.00     0.211 HD
ENDBRANCH  19  26
BRANCH  12  28
HETATM   28  O   LIG     1      27.636  20.611  16.976  1.00  0.00    -0.395 OA
HETATM   29  H   LIG     1      26.863  20.644  16.359  1.00  0.00     0.210 HD
ENDBRANCH  12  28
TORSDOF 5
ENDMDL
MODEL 3
REMARK VINA RESULT:      -4.9      3.116      5.474
REMARK  5 active torsions:
REMARK  status: ('A' for Active; 'I' for Inactive)
REMARK    1  A    between atoms: C_12  and  O_13 
REMARK    2  A    between atoms: C_20  and  C_22 
REMARK    3  A    between atoms: C_20  and  O_21 
REMARK    4  A    between atoms: C_22  and  C_23 
REMARK    5  A    between atoms: C_23  and  O_24 
ROOT
HETATM    1  O   LIG     1      27.342  19.726  27.613  1.00  0.00    -0.289 OA
HETATM    2  C   LIG     1      26.748  20.398  26.729  1.00  0.00     0.171 C 
HETATM    3  C   LIG     1      27.513  21.220  25.789  1.00  0.00     0.052 C 
HETATM    4  C   LIG     1      26.887  21.992  24.899  1.00  0.00    -0.009 C 
HETATM    5  C   LIG     1      25.374  22.198  24.907  1.00  0.00     0.004 C 
HETATM    6  C   LIG     1      25.118  23.547  25.614  1.00  0.00     0.025 C 
HETATM    7  C   LIG     1      24.646  21.104  25.718  1.00  0.00    -0.064 C 
HETATM    8  C   LIG     1      23.209  20.793  25.357  1.00  0.00     0.036 C 
HETATM    9  C   LIG     1      23.100  20.314  23.889  1.00  0.00     0.010 C 
HETATM   10  C   LIG     1      24.289  20.794  23.014  1.00  0.00    -0.002 C 
HETATM   11  C   LIG     1      24.752  22.221  23.453  1.00  0.00     0.035 C 
HETATM   12  C   LIG     1      25.524  22.987  22.323  1.00  0.00     0.124 C 
HETATM   13  C   LIG     1      24.673  23.135  21.018  1.00  0.00     0.045 C 
HETATM   14  C   LIG     1      23.630  21.985  20.768  1.00  0.00     0.001 C 
HETATM   15  C   LIG     1      22.216  22.446  21.270  1.00  0.00     0.019 C 
HETATM   16  C   LIG     1      24.085  20.697  21.476  1.00  0.00     0.002 C 
HETATM   17  C   LIG     1      23.238  19.578  20.884  1.00  0.00     0.009 C 
HETATM   18  C   LIG     1      22.969  20.023  19.433  1.00  0.00     0.047 C 
HETATM   19  C   LIG     1      23.487  21.484  19.276  1.00  0.00     0.128 C 
HETATM   20  C   LIG     1      25.293  20.319  26.594  1.00  0.00     0.058 C 
ENDROOT
BRANCH  19  21
HETATM   21  C   LIG     1      24.804  21.467  18.476  1.00  0.00     0.184 C 
HETATM   22  O   LIG     1      25.125  22.438  17.807  1.00  0.00    -0.292 OA
BRANCH  21  23
HETATM   23  C   LIG     1      25.771  20.311  18.540  1.00  0.00     0.245 C 
BRANCH  23  24
HETATM   24  O   LIG     1      26.815  20.607  19.427  1.00  0.00    -0.393 OA
HETATM   25  H   LIG     1      26.479  21.305  20.048  1.00  0.00     0.209 HD
ENDBRANCH  23  24
ENDBRANCH  21  23
ENDBRANCH  19  21
BRANCH  19  26
HETATM   26  O   LIG     1      22.518  22.228  18.571  1.00  0.00    -0.381 OA
HETATM   27  H   LIG     1      21.726  22.323  19.161  1.00  0.00     0.211 HD
ENDBRANCH  19  26
BRANCH  12  28
HETATM   28  O   LIG     1      26.780  22.432  22.004  1.00  0.00    -0.395 OA
HETATM   29  H   LIG     1      27.500  23.034  22.318  1.00  0.00     0.210 HD
ENDBRANCH  12  28
TORSDOF 5
ENDMDL
MODEL 4
REMARK VINA RESULT:      -4.6      3.144      5.898
REMARK  5 active torsions:
REMARK  status: ('A' for Active; 'I' for Inactive)
REMARK    1  A    between atoms: C_12  and  O_13 
REMARK    2  A    between atoms: C_20  and  C_22 
REMARK    3  A    between atoms: C_20  and  O_21 
REMARK    4  A    between atoms: C_22  and  C_23 
REMARK    5  A    between atoms: C_23  and  O_24 
ROOT
HETATM    1  O   LIG     1      26.129  25.136  27.105  1.00  0.00    -0.289 OA
HETATM    2  C   LIG     1      26.189  24.300  26.166  1.00  0.00     0.171 C 
HETATM    3  C   LIG     1      25.130  23.304  25.995  1.00  0.00     0.052 C 
HETATM    4  C   LIG     1      25.225  22.369  25.048  1.00  0.00    -0.009 C 
HETATM    5  C   LIG     1      26.485  22.171  24.210  1.00  0.00     0.004 C 
HETATM    6  C   LIG     1      27.256  20.992  24.846  1.00  0.00     0.025 C 
HETATM    7  C   LIG     1      27.410  23.407  24.254  1.00  0.00    -0.064 C 
HETATM    8  C   LIG     1      28.338  23.640  23.081  1.00  0.00     0.036 C 
HETATM    9  C   LIG     1      27.535  23.813  21.768  1.00  0.00     0.010 C 
HETATM   10  C   LIG     1      26.126  23.164  21.841  1.00  0.00    -0.002 C 
HETATM   11  C   LIG     1      26.168  21.855  22.693  1.00  0.00     0.035 C 
HETATM   12  C   LIG     1      24.988  20.875  22.365  1.00  0.00     0.124 C 
HETATM   13  C   LIG     1      24.956  20.467  20.855  1.00  0.00     0.045 C 
HETATM   14  C   LIG     1      25.527  21.545  19.862  1.00  0.00     0.001 C 
HETATM   15  C   LIG     1      27.017  21.196  19.516  1.00  0.00     0.019 C 
HETATM   16  C   LIG     1      25.406  22.949  20.480  1.00  0.00     0.002 C 
HETATM   17  C   LIG     1      25.626  23.926  19.332  1.00  0.00     0.009 C 
HETATM   18  C   LIG     1      25.073  23.197  18.092  1.00  0.00     0.047 C 
HETATM   19  C   LIG     1      24.735  21.733  18.507  1.00  0.00     0.128 C 
HETATM   20  C   LIG     1      27.288  24.352  25.200  1.00  0.00     0.058 C 
ENDROOT
BRANCH  19  21
HETATM   21  C   LIG     1      23.206  21.586  18.631  1.00  0.00     0.184 C 
HETATM   22  O   LIG     1      22.569  22.380  19.308  1.00  0.00    -0.292 OA
BRANCH  21  23
HETATM   23  C   LIG     1      22.435  20.529  17.881  1.00  0.00     0.245 C 
BRANCH  23  24
HETATM   24  O   LIG     1      22.793  19.255  18.342  1.00  0.00    -0.393 OA
HETATM   25  H   LIG     1      21.991  18.677  18.245  1.00  0.00     0.209 HD
ENDBRANCH  23  24
ENDBRANCH  21  23
ENDBRANCH  19  21
BRANCH  19  26
HETATM   26  O   LIG     1      25.212  20.863  17.504  1.00  0.00    -0.381 OA
HETATM   27  H   LIG     1      24.867  21.193  16.634  1.00  0.00     0.211 HD
ENDBRANCH  19  26
BRANCH  12  28
HETATM   28  O   LIG     1      23.718  21.352  22.751  1.00  0.00    -0.395 OA
HETATM   29  H   LIG     1      23.637  22.309  22.515  1.00  0.00     0.210 HD
ENDBRANCH  12  28
TORSDOF 5
ENDMDL
MODEL 5
REMARK VINA RESULT:      -4.5      3.649      6.386
REMARK  5 active torsions:
REMARK  status: ('A' for Active; 'I' for Inactive)
REMARK    1  A    between atoms: C_12  and  O_13 
REMARK    2  A    between atoms: C_20  and  C_22 
REMARK    3  A    between atoms: C_20  and  O_21 
REMARK    4  A    between atoms: C_22  and  C_23 
REMARK    5  A    between atoms: C_23  and  O_24 
ROOT
HETATM    1  O   LIG     1      24.237  20.386  17.522  1.00  0.00    -0.289 OA
HETATM    2  C   LIG     1      24.117  20.810  18.701  1.00  0.00     0.171 C 
HETATM    3  C   LIG     1      23.360  20.038  19.689  1.00  0.00     0.052 C 
HETATM    4  C   LIG     1      23.166  20.518  20.919  1.00  0.00    -0.009 C 
HETATM    5  C   LIG     1      23.561  21.936  21.322  1.00  0.00     0.004 C 
HETATM    6  C   LIG     1      22.274  22.788  21.252  1.00  0.00     0.025 C 
HETATM    7  C   LIG     1      24.580  22.554  20.339  1.00  0.00    -0.064 C 
HETATM    8  C   LIG     1      25.504  23.634  20.862  1.00  0.00     0.036 C 
HETATM    9  C   LIG     1      26.374  23.099  22.025  1.00  0.00     0.010 C 
HETATM   10  C   LIG     1      25.738  21.871  22.732  1.00  0.00    -0.002 C 
HETATM   11  C   LIG     1      24.182  22.009  22.775  1.00  0.00     0.035 C 
HETATM   12  C   LIG     1      23.524  21.151  23.912  1.00  0.00     0.124 C 
HETATM   13  C   LIG     1      24.081  21.515  25.328  1.00  0.00     0.045 C 
HETATM   14  C   LIG     1      25.563  22.041  25.347  1.00  0.00     0.001 C 
HETATM   15  C   LIG     1      25.559  23.609  25.381  1.00  0.00     0.019 C 
HETATM   16  C   LIG     1      26.328  21.506  24.123  1.00  0.00     0.002 C 
HETATM   17  C   LIG     1      27.802  21.749  24.419  1.00  0.00     0.009 C 
HETATM   18  C   LIG     1      27.915  21.626  25.951  1.00  0.00     0.047 C 
HETATM   19  C   LIG     1      26.472  21.522  26.531  1.00  0.00     0.128 C 
HETATM   20  C   LIG     1      24.781  22.047  19.113  1.00  0.00     0.058 C 
ENDROOT
BRANCH  19  21
HETATM   21  C   LIG     1      26.205  20.065  26.955  1.00  0.00     0.184 C 
HETATM   22  O   LIG     1      26.465  19.148  26.189  1.00  0.00    -0.292 OA
BRANCH  21  23
HETATM   23  C   LIG     1      25.694  19.705  28.328  1.00  0.00     0.245 C 
BRANCH  23  24
HETATM   24  O   LIG     1      24.501  20.392  28.593  1.00  0.00    -0.393 OA
HETATM   25  H   LIG     1      24.507  20.621  29.559  1.00  0.00     0.209 HD
ENDBRANCH  23  24
ENDBRANCH  21  23
ENDBRANCH  19  21
BRANCH  19  26
HETATM   26  O   LIG     1      26.382  22.364  27.659  1.00  0.00    -0.381 OA
HETATM   27  H   LIG     1      26.560  23.292  27.355  1.00  0.00     0.211 HD
ENDBRANCH  19  26
BRANCH  12  28
HETATM   28  O   LIG     1      23.620  19.759  23.712  1.00  0.00    -0.395 OA
HETATM   29  H   LIG     1      24.047  19.576  22.839  1.00  0.00     0.210 HD
ENDBRANCH  12  28
TORSDOF 5
ENDMDL
MODEL 6
REMARK VINA RESULT:      -4.5      2.860      4.078
REMARK  5 active torsions:
REMARK  status: ('A' for Active; 'I' for Inactive)
REMARK    1  A    between atoms: C_12  and  O_13 
REMARK    2  A    between atoms: C_20  and  C_22 
REMARK    3  A    between atoms: C_20  and  O_21 
REMARK    4  A    between atoms: C_22  and  C_23 
REMARK    5  A    between atoms: C_23  and  O_24 
ROOT
HETATM    1  O   LIG     1      24.102  21.527  25.960  1.00  0.00    -0.289 OA
HETATM    2  C   LIG     1      24.037  21.592  24.705  1.00  0.00     0.171 C 
HETATM    3  C   LIG     1      24.685  22.692  23.988  1.00  0.00     0.052 C 
HETATM    4  C   LIG     1      24.556  22.807  22.665  1.00  0.00    -0.009 C 
HETATM    5  C   LIG     1      23.614  21.926  21.849  1.00  0.00     0.004 C 
HETATM    6  C   LIG     1      22.331  22.754  21.613  1.00  0.00     0.025 C 
HETATM    7  C   LIG     1      23.207  20.649  22.617  1.00  0.00    -0.064 C 
HETATM    8  C   LIG     1      22.809  19.433  21.807  1.00  0.00     0.036 C 
HETATM    9  C   LIG     1      23.972  18.974  20.894  1.00  0.00     0.010 C 
HETATM   10  C   LIG     1      24.980  20.115  20.590  1.00  0.00    -0.002 C 
HETATM   11  C   LIG     1      24.236  21.484  20.463  1.00  0.00     0.035 C 
HETATM   12  C   LIG     1      25.043  22.544  19.635  1.00  0.00     0.124 C 
HETATM   13  C   LIG     1      25.377  22.040  18.192  1.00  0.00     0.045 C 
HETATM   14  C   LIG     1      25.537  20.481  18.050  1.00  0.00     0.001 C 
HETATM   15  C   LIG     1      24.192  19.866  17.526  1.00  0.00     0.019 C 
HETATM   16  C   LIG     1      25.949  19.868  19.400  1.00  0.00     0.002 C 
HETATM   17  C   LIG     1      26.431  18.458  19.083  1.00  0.00     0.009 C 
HETATM   18  C   LIG     1      27.038  18.566  17.670  1.00  0.00     0.047 C 
HETATM   19  C   LIG     1      26.708  19.983  17.113  1.00  0.00     0.128 C 
HETATM   20  C   LIG     1      23.363  20.538  23.945  1.00  0.00     0.058 C 
ENDROOT
BRANCH  19  21
HETATM   21  C   LIG     1      27.981  20.850  17.160  1.00  0.00     0.184 C 
HETATM   22  O   LIG     1      28.695  20.834  18.151  1.00  0.00    -0.292 OA
BRANCH  21  23
HETATM   23  C   LIG     1      28.435  21.680  15.984  1.00  0.00     0.245 C 
BRANCH  23  24
HETATM   24  O   LIG     1      28.921  20.847  14.967  1.00  0.00    -0.393 OA
HETATM   25  H   LIG     1      29.789  20.482  15.282  1.00  0.00     0.209 HD
ENDBRANCH  23  24
ENDBRANCH  21  23
ENDBRANCH  19  21
BRANCH  19  26
HETATM   26  O   LIG     1      26.279  19.849  15.776  1.00  0.00    -0.381 OA
HETATM   27  H   LIG     1      25.344  20.179  15.726  1.00  0.00     0.211 HD
ENDBRANCH  19  26
BRANCH  12  28
HETATM   28  O   LIG     1      26.225  22.987  20.264  1.00  0.00    -0.395 OA
HETATM   29  H   LIG     1      26.997  22.470  19.926  1.00  0.00     0.210 HD
ENDBRANCH  12  28
TORSDOF 5
ENDMDL
MODEL 7
REMARK VINA RESULT:      -4.3      4.602      7.465
REMARK  5 active torsions:
REMARK  status: ('A' for Active; 'I' for Inactive)
REMARK    1  A    between atoms: C_12  and  O_13 
REMARK    2  A    between atoms: C_20  and  C_22 
REMARK    3  A    between atoms: C_20  and  O_21 
REMARK    4  A    between atoms: C_22  and  C_23 
REMARK    5  A    between atoms: C_23  and  O_24 
ROOT
HETATM    1  O   LIG     1      26.117  25.760  18.749  1.00  0.00    -0.289 OA
HETATM    2  C   LIG     1      26.591  25.144  19.739  1.00  0.00     0.171 C 
HETATM    3  C   LIG     1      27.594  25.782  20.594  1.00  0.00     0.052 C 
HETATM    4  C   LIG     1      28.155  25.108  21.600  1.00  0.00    -0.009 C 
HETATM    5  C   LIG     1      27.924  23.615  21.821  1.00  0.00     0.004 C 
HETATM    6  C   LIG     1      29.147  22.887  21.221  1.00  0.00     0.025 C 
HETATM    7  C   LIG     1      26.670  23.107  21.076  1.00  0.00    -0.064 C 
HETATM    8  C   LIG     1      25.964  21.887  21.627  1.00  0.00     0.036 C 
HETATM    9  C   LIG     1      25.470  22.141  23.073  1.00  0.00     0.010 C 
HETATM   10  C   LIG     1      26.266  23.268  23.786  1.00  0.00    -0.002 C 
HETATM   11  C   LIG     1      27.766  23.240  23.350  1.00  0.00     0.035 C 
HETATM   12  C   LIG     1      28.718  23.929  24.389  1.00  0.00     0.124 C 
HETATM   13  C   LIG     1      28.615  23.280  25.809  1.00  0.00     0.045 C 
HETATM   14  C   LIG     1      27.216  22.651  26.156  1.00  0.00     0.001 C 
HETATM   15  C   LIG     1      27.259  21.106  25.887  1.00  0.00     0.019 C 
HETATM   16  C   LIG     1      26.111  23.335  25.332  1.00  0.00     0.002 C 
HETATM   17  C   LIG     1      24.797  22.936  25.989  1.00  0.00     0.009 C 
HETATM   18  C   LIG     1      25.144  22.777  27.482  1.00  0.00     0.047 C 
HETATM   19  C   LIG     1      26.692  22.883  27.628  1.00  0.00     0.128 C 
HETATM   20  C   LIG     1      26.103  23.807  20.081  1.00  0.00     0.058 C 
ENDROOT
BRANCH  19  21
HETATM   21  C   LIG     1      27.047  24.258  28.227  1.00  0.00     0.184 C 
HETATM   22  O   LIG     1      26.399  25.246  27.915  1.00  0.00    -0.292 OA
BRANCH  21  23
HETATM   23  C   LIG     1      28.134  24.432  29.258  1.00  0.00     0.245 C 
BRANCH  23  24
HETATM   24  O   LIG     1      27.739  23.858  30.475  1.00  0.00    -0.393 OA
HETATM   25  H   LIG     1      27.405  24.596  31.048  1.00  0.00     0.209 HD
ENDBRANCH  23  24
ENDBRANCH  21  23
ENDBRANCH  19  21
BRANCH  19  26
HETATM   26  O   LIG     1      27.129  21.863  28.500  1.00  0.00    -0.381 OA
HETATM   27  H   LIG     1      26.385  21.215  28.599  1.00  0.00     0.211 HD
ENDBRANCH  19  26
BRANCH  12  28
HETATM   28  O   LIG     1      28.540  25.324  24.496  1.00  0.00    -0.395 OA
HETATM   29  H   LIG     1      29.328  25.728  24.938  1.00  0.00     0.210 HD
ENDBRANCH  12  28
TORSDOF 5
ENDMDL
MODEL 8
REMARK VINA RESULT:      -4.3      4.322      6.095
REMARK  5 active torsions:
REMARK  status: ('A' for Active; 'I' for Inactive)
REMARK    1  A    between atoms: C_12  and  O_13 
REMARK    2  A    between atoms: C_20  and  C_22 
REMARK    3  A    between atoms: C_20  and  O_21 
REMARK    4  A    between atoms: C_22  and  C_23 
REMARK    5  A    between atoms: C_23  and  O_24 
ROOT
HETATM    1  O   LIG     1      22.068  22.651  20.251  1.00  0.00    -0.289 OA
HETATM    2  C   LIG     1      23.096  22.449  20.947  1.00  0.00     0.171 C 
HETATM    3  C   LIG     1      24.413  22.854  20.454  1.00  0.00     0.052 C 
HETATM    4  C   LIG     1      25.515  22.576  21.154  1.00  0.00    -0.009 C 
HETATM    5  C   LIG     1      25.498  21.692  22.398  1.00  0.00     0.004 C 
HETATM    6  C   LIG     1      25.950  20.286  21.946  1.00  0.00     0.025 C 
HETATM    7  C   LIG     1      24.079  21.555  22.991  1.00  0.00    -0.064 C 
HETATM    8  C   LIG     1      23.954  21.256  24.470  1.00  0.00     0.036 C 
HETATM    9  C   LIG     1      24.613  22.374  25.315  1.00  0.00     0.010 C 
HETATM   10  C   LIG     1      25.685  23.169  24.523  1.00  0.00    -0.002 C 
HETATM   11  C   LIG     1      26.453  22.226  23.541  1.00  0.00     0.035 C 
HETATM   12  C   LIG     1      27.862  22.783  23.137  1.00  0.00     0.124 C 
HETATM   13  C   LIG     1      28.779  23.037  24.379  1.00  0.00     0.045 C 
HETATM   14  C   LIG     1      28.018  23.405  25.706  1.00  0.00     0.001 C 
HETATM   15  C   LIG     1      27.854  22.117  26.586  1.00  0.00     0.019 C 
HETATM   16  C   LIG     1      26.655  24.037  25.373  1.00  0.00     0.002 C 
HETATM   17  C   LIG     1      26.173  24.683  26.666  1.00  0.00     0.009 C 
HETATM   18  C   LIG     1      27.465  25.120  27.385  1.00  0.00     0.047 C 
HETATM   19  C   LIG     1      28.674  24.533  26.596  1.00  0.00     0.128 C 
HETATM   20  C   LIG     1      22.981  21.861  22.282  1.00  0.00     0.058 C 
ENDROOT
BRANCH  19  21
HETATM   21  C   LIG     1      29.352  25.666  25.801  1.00  0.00     0.184 C 
HETATM   22  O   LIG     1      28.784  26.163  24.839  1.00  0.00    -0.292 OA
BRANCH  21  23
HETATM   23  C   LIG     1      30.681  26.252  26.207  1.00  0.00     0.245 C 
BRANCH  23  24
HETATM   24  O   LIG     1      30.589  26.810  27.490  1.00  0.00    -0.393 OA
HETATM   25  H   LIG     1      29.746  27.333  27.518  1.00  0.00     0.209 HD
ENDBRANCH  23  24
ENDBRANCH  21  23
ENDBRANCH  19  21
BRANCH  19  26
HETATM   26  O   LIG     1      29.591  23.994  27.522  1.00  0.00    -0.381 OA
HETATM   27  H   LIG     1      30.336  24.643  27.619  1.00  0.00     0.211 HD
ENDBRANCH  19  26
BRANCH  12  28
HETATM   28  O   LIG     1      27.816  23.946  22.341  1.00  0.00    -0.395 OA
HETATM   29  H   LIG     1      26.929  24.375  22.428  1.00  0.00     0.210 HD
ENDBRANCH  12  28
TORSDOF 5
ENDMDL
MODEL 9
REMARK VINA RESULT:      -4.3      4.231      5.731
REMARK  5 active torsions:
REMARK  status: ('A' for Active; 'I' for Inactive)
REMARK    1  A    between atoms: C_12  and  O_13 
REMARK    2  A    between atoms: C_20  and  C_22 
REMARK    3  A    between atoms: C_20  and  O_21 
REMARK    4  A    between atoms: C_22  and  C_23 
REMARK    5  A    between atoms: C_23  and  O_24 
ROOT
HETATM    1  O   LIG     1      23.061  18.589  20.592  1.00  0.00    -0.289 OA
HETATM    2  C   LIG     1      23.450  19.615  21.209  1.00  0.00     0.171 C 
HETATM    3  C   LIG     1      22.864  19.961  22.505  1.00  0.00     0.052 C 
HETATM    4  C   LIG     1      23.218  21.087  23.130  1.00  0.00    -0.009 C 
HETATM    5  C   LIG     1      24.105  22.145  22.480  1.00  0.00     0.004 C 
HETATM    6  C   LIG     1      23.160  23.246  21.950  1.00  0.00     0.025 C 
HETATM    7  C   LIG     1      24.885  21.583  21.272  1.00  0.00    -0.064 C 
HETATM    8  C   LIG     1      26.193  22.250  20.901  1.00  0.00     0.036 C 
HETATM    9  C   LIG     1      27.202  22.176  22.073  1.00  0.00     0.010 C 
HETATM   10  C   LIG     1      26.507  21.990  23.449  1.00  0.00    -0.002 C 
HETATM   11  C   LIG     1      25.153  22.769  23.488  1.00  0.00     0.035 C 
HETATM   12  C   LIG     1      24.680  23.099  24.947  1.00  0.00     0.124 C 
HETATM   13  C   LIG     1      25.739  23.933  25.740  1.00  0.00     0.045 C 
HETATM   14  C   LIG     1      27.235  23.685  25.318  1.00  0.00     0.001 C 
HETATM   15  C   LIG     1      27.685  24.806  24.316  1.00  0.00     0.019 C 
HETATM   16  C   LIG     1      27.383  22.285  24.699  1.00  0.00     0.002 C 
HETATM   17  C   LIG     1      28.879  22.002  24.670  1.00  0.00     0.009 C 
HETATM   18  C   LIG     1      29.437  22.748  25.898  1.00  0.00     0.047 C 
HETATM   19  C   LIG     1      28.289  23.618  26.493  1.00  0.00     0.128 C 
HETATM   20  C   LIG     1      24.532  20.438  20.667  1.00  0.00     0.058 C 
ENDROOT
BRANCH  19  21
HETATM   21  C   LIG     1      27.772  22.954  27.783  1.00  0.00     0.184 C 
HETATM   22  O   LIG     1      27.565  21.749  27.810  1.00  0.00    -0.292 OA
BRANCH  21  23
HETATM   23  C   LIG     1      27.573  23.725  29.064  1.00  0.00     0.245 C 
BRANCH  23  24
HETATM   24  O   LIG     1      26.657  24.767  28.861  1.00  0.00    -0.393 OA
HETATM   25  H   LIG     1      26.386  24.731  27.906  1.00  0.00     0.209 HD
ENDBRANCH  23  24
ENDBRANCH  21  23
ENDBRANCH  19  21
BRANCH  19  26
HETATM   26  O   LIG     1      28.808  24.895  26.796  1.00  0.00    -0.381 OA
HETATM   27  H   LIG     1      29.445  25.138  26.076  1.00  0.00     0.211 HD
ENDBRANCH  19  26
BRANCH  12  28
HETATM   28  O   LIG     1      24.310  21.968  25.702  1.00  0.00    -0.395 OA
HETATM   29  H   LIG     1      23.798  22.251  26.500  1.00  0.00     0.210 HD
ENDBRANCH  12  28
TORSDOF 5
ENDMDL
MODEL 10
REMARK VINA RESULT:      -4.2      3.648      6.474
REMARK  5 active torsions:
REMARK  status: ('A' for Active; 'I' for Inactive)
REMARK    1  A    between atoms: C_12  and  O_13 
REMARK    2  A    between atoms: C_20  and  C_22 
REMARK    3  A    between atoms: C_20  and  O_21 
REMARK    4  A    between atoms: C_22  and  C_23 
REMARK    5  A    between atoms: C_23  and  O_24 
ROOT
HETATM    1  O   LIG     1      29.651  22.251  27.631  1.00  0.00    -0.289 OA
HETATM    2  C   LIG     1      28.976  22.598  26.627  1.00  0.00     0.171 C 
HETATM    3  C   LIG     1      29.553  22.512  25.285  1.00  0.00     0.052 C 
HETATM    4  C   LIG     1      28.869  22.947  24.224  1.00  0.00    -0.009 C 
HETATM    5  C   LIG     1      27.546  23.699  24.349  1.00  0.00     0.004 C 
HETATM    6  C   LIG     1      27.879  25.201  24.211  1.00  0.00     0.025 C 
HETATM    7  C   LIG     1      26.893  23.493  25.733  1.00  0.00    -0.064 C 
HETATM    8  C   LIG     1      25.388  23.632  25.834  1.00  0.00     0.036 C 
HETATM    9  C   LIG     1      24.677  22.603  24.921  1.00  0.00     0.010 C 
HETATM   10  C   LIG     1      25.580  22.113  23.757  1.00  0.00    -0.002 C 
HETATM   11  C   LIG     1      26.494  23.273  23.247  1.00  0.00     0.035 C 
HETATM   12  C   LIG     1      27.001  23.050  21.778  1.00  0.00     0.124 C 
HETATM   13  C   LIG     1      25.822  22.882  20.764  1.00  0.00     0.045 C 
HETATM   14  C   LIG     1      24.510  22.255  21.363  1.00  0.00     0.001 C 
HETATM   15  C   LIG     1      23.505  23.403  21.732  1.00  0.00     0.019 C 
HETATM   16  C   LIG     1      24.851  21.391  22.589  1.00  0.00     0.002 C 
HETATM   17  C   LIG     1      23.609  20.551  22.863  1.00  0.00     0.009 C 
HETATM   18  C   LIG     1      22.982  20.326  21.472  1.00  0.00     0.047 C 
HETATM   19  C   LIG     1      23.755  21.211  20.449  1.00  0.00     0.128 C 
HETATM   20  C   LIG     1      27.587  23.033  26.785  1.00  0.00     0.058 C 
ENDROOT
BRANCH  19  21
HETATM   21  C   LIG     1      24.678  20.312  19.603  1.00  0.00     0.184 C 
HETATM   22  O   LIG     1      25.266  19.377  20.126  1.00  0.00    -0.292 OA
BRANCH  21  23
HETATM   23  C   LIG     1      24.835  20.493  18.114  1.00  0.00     0.245 C 
BRANCH  23  24
HETATM   24  O   LIG     1      23.794  19.840  17.438  1.00  0.00    -0.393 OA
HETATM   25  H   LIG     1      23.803  20.173  16.503  1.00  0.00     0.209 HD
ENDBRANCH  23  24
ENDBRANCH  21  23
ENDBRANCH  19  21
BRANCH  19  26
HETATM   26  O   LIG     1      22.815  21.844  19.608  1.00  0.00    -0.381 OA
HETATM   27  H   LIG     1      23.236  22.672  19.258  1.00  0.00     0.211 HD
ENDBRANCH  19  26
BRANCH  12  28
HETATM   28  O   LIG     1      27.901  21.975  21.636  1.00  0.00    -0.395 OA
HETATM   29  H   LIG     1      27.554  21.184  22.117  1.00  0.00     0.210 HD
ENDBRANCH  12  28
TORSDOF 5
ENDMDL
MODEL 11
REMARK VINA RESULT:      -4.2     13.740     15.884
REMARK  5 active torsions:
REMARK  status: ('A' for Active; 'I' for Inactive)
REMARK    1  A    between atoms: C_12  and  O_13 
REMARK    2  A    between atoms: C_20  and  C_22 
REMARK    3  A    between atoms: C_20  and  O_21 
REMARK    4  A    between atoms: C_22  and  C_23 
REMARK    5  A    between atoms: C_23  and  O_24 
ROOT
HETATM    1  O   LIG     1      18.972  22.334  30.778  1.00  0.00    -0.289 OA
HETATM    2  C   LIG     1      19.545  21.975  31.840  1.00  0.00     0.171 C 
HETATM    3  C   LIG     1      20.139  20.641  31.942  1.00  0.00     0.052 C 
HETATM    4  C   LIG     1      20.682  20.227  33.089  1.00  0.00    -0.009 C 
HETATM    5  C   LIG     1      20.576  21.025  34.386  1.00  0.00     0.004 C 
HETATM    6  C   LIG     1      19.427  20.391  35.201  1.00  0.00     0.025 C 
HETATM    7  C   LIG     1      20.202  22.501  34.127  1.00  0.00    -0.064 C 
HETATM    8  C   LIG     1      20.627  23.531  35.153  1.00  0.00     0.036 C 
HETATM    9  C   LIG     1      22.168  23.551  35.307  1.00  0.00     0.010 C 
HETATM   10  C   LIG     1      22.830  22.218  34.865  1.00  0.00    -0.002 C 
HETATM   11  C   LIG     1      21.915  21.004  35.229  1.00  0.00     0.035 C 
HETATM   12  C   LIG     1      22.706  19.654  35.338  1.00  0.00     0.124 C 
HETATM   13  C   LIG     1      23.857  19.725  36.396  1.00  0.00     0.045 C 
HETATM   14  C   LIG     1      24.487  21.152  36.601  1.00  0.00     0.001 C 
HETATM   15  C   LIG     1      23.831  21.835  37.852  1.00  0.00     0.019 C 
HETATM   16  C   LIG     1      24.297  22.000  35.332  1.00  0.00     0.002 C 
HETATM   17  C   LIG     1      25.238  23.188  35.484  1.00  0.00     0.009 C 
HETATM   18  C   LIG     1      26.428  22.637  36.295  1.00  0.00     0.047 C 
HETATM   19  C   LIG     1      26.057  21.202  36.775  1.00  0.00     0.128 C 
HETATM   20  C   LIG     1      19.677  22.907  32.960  1.00  0.00     0.058 C 
ENDROOT
BRANCH  19  21
HETATM   21  C   LIG     1      26.830  20.173  35.928  1.00  0.00     0.184 C 
HETATM   22  O   LIG     1      27.178  19.111  36.424  1.00  0.00    -0.292 OA
BRANCH  21  23
HETATM   23  C   LIG     1      27.120  20.389  34.464  1.00  0.00     0.245 C 
BRANCH  23  24
HETATM   24  O   LIG     1      26.167  19.722  33.681  1.00  0.00    -0.393 OA
HETATM   25  H   LIG     1      25.776  20.395  33.065  1.00  0.00     0.209 HD
ENDBRANCH  23  24
ENDBRANCH  21  23
ENDBRANCH  19  21
BRANCH  19  26
HETATM   26  O   LIG     1      26.432  21.074  38.129  1.00  0.00    -0.381 OA
HETATM   27  H   LIG     1      26.686  21.975  38.456  1.00  0.00     0.211 HD
ENDBRANCH  19  26
BRANCH  12  28
HETATM   28  O   LIG     1      23.222  19.187  34.112  1.00  0.00    -0.395 OA
HETATM   29  H   LIG     1      23.809  19.876  33.713  1.00  0.00     0.210 HD
ENDBRANCH  12  28
TORSDOF 5
ENDMDL
MODEL 12
REMARK VINA RESULT:      -4.1      7.581      9.368
REMARK  5 active torsions:
REMARK  status: ('A' for Active; 'I' for Inactive)
REMARK    1  A    between atoms: C_12  and  O_13 
REMARK    2  A    between atoms: C_20  and  C_22 
REMARK    3  A    between atoms: C_20  and  O_21 
REMARK    4  A    between atoms: C_22  and  C_23 
REMARK    5  A    between atoms: C_23  and  O_24 
ROOT
HETATM    1  O   LIG     1      22.296  19.953  27.883  1.00  0.00    -0.289 OA
HETATM    2  C   LIG     1      23.376  20.575  27.708  1.00  0.00     0.171 C 
HETATM    3  C   LIG     1      23.384  21.851  26.990  1.00  0.00     0.052 C 
HETATM    4  C   LIG     1      24.534  22.478  26.736  1.00  0.00    -0.009 C 
HETATM    5  C   LIG     1      25.896  21.848  27.018  1.00  0.00     0.004 C 
HETATM    6  C   LIG     1      26.406  21.282  25.674  1.00  0.00     0.025 C 
HETATM    7  C   LIG     1      25.792  20.668  28.009  1.00  0.00    -0.064 C 
HETATM    8  C   LIG     1      27.012  20.332  28.841  1.00  0.00     0.036 C 
HETATM    9  C   LIG     1      27.425  21.535  29.724  1.00  0.00     0.010 C 
HETATM   10  C   LIG     1      26.914  22.890  29.164  1.00  0.00    -0.002 C 
HETATM   11  C   LIG     1      26.940  22.883  27.602  1.00  0.00     0.035 C 
HETATM   12  C   LIG     1      26.986  24.325  26.985  1.00  0.00     0.124 C 
HETATM   13  C   LIG     1      28.222  25.144  27.484  1.00  0.00     0.045 C 
HETATM   14  C   LIG     1      28.733  24.769  28.924  1.00  0.00     0.001 C 
HETATM   15  C   LIG     1      29.941  23.775  28.805  1.00  0.00     0.019 C 
HETATM   16  C   LIG     1      27.585  24.165  29.750  1.00  0.00     0.002 C 
HETATM   17  C   LIG     1      28.062  24.184  31.197  1.00  0.00     0.009 C 
HETATM   18  C   LIG     1      28.975  25.423  31.287  1.00  0.00     0.047 C 
HETATM   19  C   LIG     1      29.174  25.976  29.844  1.00  0.00     0.128 C 
HETATM   20  C   LIG     1      24.625  20.061  28.271  1.00  0.00     0.058 C 
ENDROOT
BRANCH  19  21
HETATM   21  C   LIG     1      28.331  27.255  29.675  1.00  0.00     0.184 C 
HETATM   22  O   LIG     1      27.155  27.259  30.007  1.00  0.00    -0.292 OA
BRANCH  21  23
HETATM   23  C   LIG     1      28.921  28.550  29.176  1.00  0.00     0.245 C 
BRANCH  23  24
HETATM   24  O   LIG     1      29.517  28.355  27.922  1.00  0.00    -0.393 OA
HETATM   25  H   LIG     1      28.974  28.860  27.262  1.00  0.00     0.209 HD
ENDBRANCH  23  24
ENDBRANCH  21  23
ENDBRANCH  19  21
BRANCH  19  26
HETATM   26  O   LIG     1      30.539  26.287  29.670  1.00  0.00    -0.381 OA
HETATM   27  H   LIG     1      30.686  26.466  28.705  1.00  0.00     0.211 HD
ENDBRANCH  19  26
BRANCH  12  28
HETATM   28  O   LIG     1      25.810  25.076  27.187  1.00  0.00    -0.395 OA
HETATM   29  H   LIG     1      25.705  25.279  28.149  1.00  0.00     0.210 HD
ENDBRANCH  12  28
TORSDOF 5
ENDMDL
MODEL 13
REMARK VINA RESULT:      -4.1      9.101     11.367
REMARK  5 active torsions:
REMARK  status: ('A' for Active; 'I' for Inactive)
REMARK    1  A    between atoms: C_12  and  O_13 
REMARK    2  A    between atoms: C_20  and  C_22 
REMARK    3  A    between atoms: C_20  and  O_21 
REMARK    4  A    between atoms: C_22  and  C_23 
REMARK    5  A    between atoms: C_23  and  O_24 
ROOT
HETATM    1  O   LIG     1      26.559  27.418  34.730  1.00  0.00    -0.289 OA
HETATM    2  C   LIG     1      27.140  26.891  33.746  1.00  0.00     0.171 C 
HETATM    3  C   LIG     1      27.468  25.464  33.760  1.00  0.00     0.052 C 
HETATM    4  C   LIG     1      28.149  24.915  32.753  1.00  0.00    -0.009 C 
HETATM    5  C   LIG     1      28.764  25.742  31.627  1.00  0.00     0.004 C 
HETATM    6  C   LIG     1      30.259  25.916  31.974  1.00  0.00     0.025 C 
HETATM    7  C   LIG     1      28.141  27.153  31.539  1.00  0.00    -0.064 C 
HETATM    8  C   LIG     1      28.167  27.857  30.199  1.00  0.00     0.036 C 
HETATM    9  C   LIG     1      27.402  27.037  29.131  1.00  0.00     0.010 C 
HETATM   10  C   LIG     1      27.310  25.529  29.489  1.00  0.00    -0.002 C 
HETATM   11  C   LIG     1      28.613  25.055  30.209  1.00  0.00     0.035 C 
HETATM   12  C   LIG     1      28.842  23.507  30.102  1.00  0.00     0.124 C 
HETATM   13  C   LIG     1      28.906  23.018  28.618  1.00  0.00     0.045 C 
HETATM   14  C   LIG     1      28.067  23.872  27.597  1.00  0.00     0.001 C 
HETATM   15  C   LIG     1      29.009  24.904  26.883  1.00  0.00     0.019 C 
HETATM   16  C   LIG     1      26.910  24.577  28.326  1.00  0.00     0.002 C 
HETATM   17  C   LIG     1      25.964  25.057  27.233  1.00  0.00     0.009 C 
HETATM   18  C   LIG     1      26.108  24.011  26.111  1.00  0.00     0.047 C 
HETATM   19  C   LIG     1      27.286  23.063  26.487  1.00  0.00     0.128 C 
HETATM   20  C   LIG     1      27.439  27.684  32.552  1.00  0.00     0.058 C 
ENDROOT
BRANCH  19  21
HETATM   21  C   LIG     1      26.713  21.713  26.960  1.00  0.00     0.184 C 
HETATM   22  O   LIG     1      27.305  20.674  26.704  1.00  0.00    -0.292 OA
BRANCH  21  23
HETATM   23  C   LIG     1      25.468  21.618  27.806  1.00  0.00     0.245 C 
BRANCH  23  24
HETATM   24  O   LIG     1      25.810  21.324  29.134  1.00  0.00    -0.393 OA
HETATM   25  H   LIG     1      25.151  21.790  29.712  1.00  0.00     0.209 HD
ENDBRANCH  23  24
ENDBRANCH  21  23
ENDBRANCH  19  21
BRANCH  19  26
HETATM   26  O   LIG     1      28.081  22.860  25.339  1.00  0.00    -0.381 OA
HETATM   27  H   LIG     1      28.215  21.883  25.236  1.00  0.00     0.211 HD
ENDBRANCH  19  26
BRANCH  12  28
HETATM   28  O   LIG     1      27.900  22.735  30.812  1.00  0.00    -0.395 OA
HETATM   29  H   LIG     1      27.652  21.939  30.279  1.00  0.00     0.210 HD
ENDBRANCH  12  28
TORSDOF 5
ENDMDL
MODEL 14
REMARK VINA RESULT:      -4.1      7.141      9.004
REMARK  5 active torsions:
REMARK  status: ('A' for Active; 'I' for Inactive)
REMARK    1  A    between atoms: C_12  and  O_13 
REMARK    2  A    between atoms: C_20  and  C_22 
REMARK    3  A    between atoms: C_20  and  O_21 
REMARK    4  A    between atoms: C_22  and  C_23 
REMARK    5  A    between atoms: C_23  and  O_24 
ROOT
HETATM    1  O   LIG     1      18.810  20.738  30.167  1.00  0.00    -0.289 OA
HETATM    2  C   LIG     1      19.848  20.604  29.467  1.00  0.00     0.171 C 
HETATM    3  C   LIG     1      20.165  21.580  28.423  1.00  0.00     0.052 C 
HETATM    4  C   LIG     1      21.223  21.404  27.630  1.00  0.00    -0.009 C 
HETATM    5  C   LIG     1      22.057  20.125  27.640  1.00  0.00     0.004 C 
HETATM    6  C   LIG     1      21.565  19.269  26.453  1.00  0.00     0.025 C 
HETATM    7  C   LIG     1      21.837  19.302  28.929  1.00  0.00    -0.064 C 
HETATM    8  C   LIG     1      22.954  18.386  29.384  1.00  0.00     0.036 C 
HETATM    9  C   LIG     1      24.247  19.190  29.663  1.00  0.00     0.010 C 
HETATM   10  C   LIG     1      24.284  20.544  28.903  1.00  0.00    -0.002 C 
HETATM   11  C   LIG     1      23.608  20.405  27.501  1.00  0.00     0.035 C 
HETATM   12  C   LIG     1      24.080  21.502  26.483  1.00  0.00     0.124 C 
HETATM   13  C   LIG     1      25.631  21.489  26.275  1.00  0.00     0.045 C 
HETATM   14  C   LIG     1      26.467  20.997  27.514  1.00  0.00     0.001 C 
HETATM   15  C   LIG     1      26.827  19.481  27.330  1.00  0.00     0.019 C 
HETATM   16  C   LIG     1      25.675  21.234  28.811  1.00  0.00     0.002 C 
HETATM   17  C   LIG     1      26.682  21.083  29.944  1.00  0.00     0.009 C 
HETATM   18  C   LIG     1      28.016  21.567  29.342  1.00  0.00     0.047 C 
HETATM   19  C   LIG     1      27.799  21.791  27.815  1.00  0.00     0.128 C 
HETATM   20  C   LIG     1      20.780  19.506  29.730  1.00  0.00     0.058 C 
ENDROOT
BRANCH  19  21
HETATM   21  C   LIG     1      27.723  23.304  27.535  1.00  0.00     0.184 C 
HETATM   22  O   LIG     1      28.300  23.777  26.567  1.00  0.00    -0.292 OA
BRANCH  21  23
HETATM   23  C   LIG     1      26.891  24.239  28.377  1.00  0.00     0.245 C 
BRANCH  23  24
HETATM   24  O   LIG     1      25.809  24.726  27.630  1.00  0.00    -0.393 OA
HETATM   25  H   LIG     1      24.987  24.322  28.013  1.00  0.00     0.209 HD
ENDBRANCH  23  24
ENDBRANCH  21  23
ENDBRANCH  19  21
BRANCH  19  26
HETATM   26  O   LIG     1      28.898  21.239  27.122  1.00  0.00    -0.381 OA
HETATM   27  H   LIG     1      29.696  21.788  27.341  1.00  0.00     0.211 HD
ENDBRANCH  19  26
BRANCH  12  28
HETATM   28  O   LIG     1      23.660  22.807  26.807  1.00  0.00    -0.395 OA
HETATM   29  H   LIG     1      24.104  23.459  26.210  1.00  0.00     0.210 HD
ENDBRANCH  12  28
TORSDOF 5
ENDMDL
MODEL 15
REMARK VINA RESULT:      -4.0      3.174      5.993
REMARK  5 active torsions:
REMARK  status: ('A' for Active; 'I' for Inactive)
REMARK    1  A    between atoms: C_12  and  O_13 
REMARK    2  A    between atoms: C_20  and  C_22 
REMARK    3  A    between atoms: C_20  and  O_21 
REMARK    4  A    between atoms: C_22  and  C_23 
REMARK    5  A    between atoms: C_23  and  O_24 
ROOT
HETATM    1  O   LIG     1      27.928  23.294  27.192  1.00  0.00    -0.289 OA
HETATM    2  C   LIG     1      27.009  22.803  26.485  1.00  0.00     0.171 C 
HETATM    3  C   LIG     1      26.080  23.680  25.771  1.00  0.00     0.052 C 
HETATM    4  C   LIG     1      25.060  23.168  25.080  1.00  0.00    -0.009 C 
HETATM    5  C   LIG     1      24.698  21.685  25.123  1.00  0.00     0.004 C 
HETATM    6  C   LIG     1      23.530  21.546  26.124  1.00  0.00     0.025 C 
HETATM    7  C   LIG     1      25.865  20.821  25.649  1.00  0.00    -0.064 C 
HETATM    8  C   LIG     1      25.926  19.372  25.213  1.00  0.00     0.036 C 
HETATM    9  C   LIG     1      26.037  19.264  23.672  1.00  0.00     0.010 C 
HETATM   10  C   LIG     1      25.499  20.526  22.945  1.00  0.00    -0.002 C 
HETATM   11  C   LIG     1      24.271  21.118  23.709  1.00  0.00     0.035 C 
HETATM   12  C   LIG     1      23.352  22.003  22.796  1.00  0.00     0.124 C 
HETATM   13  C   LIG     1      22.815  21.217  21.555  1.00  0.00     0.045 C 
HETATM   14  C   LIG     1      23.756  20.069  21.034  1.00  0.00     0.001 C 
HETATM   15  C   LIG     1      23.273  18.695  21.616  1.00  0.00     0.019 C 
HETATM   16  C   LIG     1      25.215  20.365  21.425  1.00  0.00     0.002 C 
HETATM   17  C   LIG     1      26.068  19.427  20.580  1.00  0.00     0.009 C 
HETATM   18  C   LIG     1      25.271  19.255  19.271  1.00  0.00     0.047 C 
HETATM   19  C   LIG     1      23.879  19.927  19.465  1.00  0.00     0.128 C 
HETATM   20  C   LIG     1      26.896  21.353  26.322  1.00  0.00     0.058 C 
ENDROOT
BRANCH  19  21
HETATM   21  C   LIG     1      23.853  21.261  18.695  1.00  0.00     0.184 C 
HETATM   22  O   LIG     1      22.800  21.682  18.238  1.00  0.00    -0.292 OA
BRANCH  21  23
HETATM   23  C   LIG     1      25.079  22.126  18.538  1.00  0.00     0.245 C 
BRANCH  23  24
HETATM   24  O   LIG     1      25.060  23.162  19.482  1.00  0.00    -0.393 OA
HETATM   25  H   LIG     1      25.109  22.738  20.379  1.00  0.00     0.209 HD
ENDBRANCH  23  24
ENDBRANCH  21  23
ENDBRANCH  19  21
BRANCH  19  26
HETATM   26  O   LIG     1      22.891  19.064  18.945  1.00  0.00    -0.381 OA
HETATM   27  H   LIG     1      23.033  18.169  19.349  1.00  0.00     0.211 HD
ENDBRANCH  19  26
BRANCH  12  28
HETATM   28  O   LIG     1      23.952  23.205  22.368  1.00  0.00    -0.395 OA
HETATM   29  H   LIG     1      24.936  23.106  22.368  1.00  0.00     0.210 HD
ENDBRANCH  12  28
TORSDOF 5
ENDMDL
MODEL 16
REMARK VINA RESULT:      -3.9      3.779      6.365
REMARK  5 active torsions:
REMARK  status: ('A' for Active; 'I' for Inactive)
REMARK    1  A    between atoms: C_12  and  O_13 
REMARK    2  A    between atoms: C_20  and  C_22 
REMARK    3  A    between atoms: C_20  and  O_21 
REMARK    4  A    between atoms: C_22  and  C_23 
REMARK    5  A    between atoms: C_23  and  O_24 
ROOT
HETATM    1  O   LIG     1      22.810  22.022  18.325  1.00  0.00    -0.289 OA
HETATM    2  C   LIG     1      23.583  21.755  19.282  1.00  0.00     0.171 C 
HETATM    3  C   LIG     1      24.772  22.574  19.521  1.00  0.00     0.052 C 
HETATM    4  C   LIG     1      25.634  22.252  20.487  1.00  0.00    -0.009 C 
HETATM    5  C   LIG     1      25.536  20.950  21.278  1.00  0.00     0.004 C 
HETATM    6  C   LIG     1      26.547  19.971  20.642  1.00  0.00     0.025 C 
HETATM    7  C   LIG     1      24.135  20.309  21.164  1.00  0.00    -0.064 C 
HETATM    8  C   LIG     1      23.674  19.411  22.292  1.00  0.00     0.036 C 
HETATM    9  C   LIG     1      23.629  20.186  23.632  1.00  0.00     0.010 C 
HETATM   10  C   LIG     1      24.560  21.429  23.634  1.00  0.00    -0.002 C 
HETATM   11  C   LIG     1      25.860  21.141  22.815  1.00  0.00     0.035 C 
HETATM   12  C   LIG     1      27.053  22.077  23.215  1.00  0.00     0.124 C 
HETATM   13  C   LIG     1      27.407  21.970  24.735  1.00  0.00     0.045 C 
HETATM   14  C   LIG     1      26.201  21.605  25.677  1.00  0.00     0.001 C 
HETATM   15  C   LIG     1      26.218  20.063  25.970  1.00  0.00     0.019 C 
HETATM   16  C   LIG     1      24.876  22.040  25.028  1.00  0.00     0.002 C 
HETATM   17  C   LIG     1      23.835  21.990  26.140  1.00  0.00     0.009 C 
HETATM   18  C   LIG     1      24.622  22.335  27.420  1.00  0.00     0.047 C 
HETATM   19  C   LIG     1      26.137  22.371  27.057  1.00  0.00     0.128 C 
HETATM   20  C   LIG     1      23.270  20.659  20.201  1.00  0.00     0.058 C 
ENDROOT
BRANCH  19  21
HETATM   21  C   LIG     1      26.604  23.838  27.000  1.00  0.00     0.184 C 
HETATM   22  O   LIG     1      25.966  24.659  26.357  1.00  0.00    -0.292 OA
BRANCH  21  23
HETATM   23  C   LIG     1      27.799  24.335  27.776  1.00  0.00     0.245 C 
BRANCH  23  24
HETATM   24  O   LIG     1      28.952  23.643  27.378  1.00  0.00    -0.393 OA
HETATM   25  H   LIG     1      28.759  22.675  27.482  1.00  0.00     0.209 HD
ENDBRANCH  23  24
ENDBRANCH  21  23
ENDBRANCH  19  21
BRANCH  19  26
HETATM   26  O   LIG     1      26.854  21.688  28.062  1.00  0.00    -0.381 OA
HETATM   27  H   LIG     1      26.422  21.896  28.931  1.00  0.00     0.211 HD
ENDBRANCH  19  26
BRANCH  12  28
HETATM   28  O   LIG     1      26.865  23.431  22.870  1.00  0.00    -0.395 OA
HETATM   29  H   LIG     1      25.908  23.666  22.951  1.00  0.00     0.210 HD
ENDBRANCH  12  28
TORSDOF 5
ENDMDL
MODEL 17
REMARK VINA RESULT:      -3.8      9.940     11.774
REMARK  5 active torsions:
REMARK  status: ('A' for Active; 'I' for Inactive)
REMARK    1  A    between atoms: C_12  and  O_13 
REMARK    2  A    between atoms: C_20  and  C_22 
REMARK    3  A    between atoms: C_20  and  O_21 
REMARK    4  A    between atoms: C_22  and  C_23 
REMARK    5  A    between atoms: C_23  and  O_24 
ROOT
HETATM    1  O   LIG     1      25.921  24.329  35.895  1.00  0.00    -0.289 OA
HETATM    2  C   LIG     1      26.688  24.554  34.923  1.00  0.00     0.171 C 
HETATM    3  C   LIG     1      27.658  23.543  34.499  1.00  0.00     0.052 C 
HETATM    4  C   LIG     1      28.524  23.803  33.517  1.00  0.00    -0.009 C 
HETATM    5  C   LIG     1      28.674  25.191  32.899  1.00  0.00     0.004 C 
HETATM    6  C   LIG     1      29.903  25.842  33.572  1.00  0.00     0.025 C 
HETATM    7  C   LIG     1      27.454  26.090  33.193  1.00  0.00    -0.064 C 
HETATM    8  C   LIG     1      27.146  27.208  32.219  1.00  0.00     0.036 C 
HETATM    9  C   LIG     1      26.872  26.645  30.803  1.00  0.00     0.010 C 
HETATM   10  C   LIG     1      27.509  25.247  30.582  1.00  0.00    -0.002 C 
HETATM   11  C   LIG     1      28.877  25.143  31.331  1.00  0.00     0.035 C 
HETATM   12  C   LIG     1      29.819  24.040  30.733  1.00  0.00     0.124 C 
HETATM   13  C   LIG     1      30.116  24.273  29.215  1.00  0.00     0.045 C 
HETATM   14  C   LIG     1      28.976  25.006  28.416  1.00  0.00     0.001 C 
HETATM   15  C   LIG     1      29.314  26.534  28.311  1.00  0.00     0.019 C 
HETATM   16  C   LIG     1      27.619  24.775  29.104  1.00  0.00     0.002 C 
HETATM   17  C   LIG     1      26.564  25.190  28.086  1.00  0.00     0.009 C 
HETATM   18  C   LIG     1      27.197  24.863  26.719  1.00  0.00     0.047 C 
HETATM   19  C   LIG     1      28.683  24.462  26.962  1.00  0.00     0.128 C 
HETATM   20  C   LIG     1      26.578  25.803  34.169  1.00  0.00     0.058 C 
ENDROOT
BRANCH  19  21
HETATM   21  C   LIG     1      28.822  22.935  26.807  1.00  0.00     0.184 C 
HETATM   22  O   LIG     1      29.838  22.460  26.321  1.00  0.00    -0.292 OA
BRANCH  21  23
HETATM   23  C   LIG     1      27.771  21.975  27.306  1.00  0.00     0.245 C 
BRANCH  23  24
HETATM   24  O   LIG     1      28.198  21.370  28.497  1.00  0.00    -0.393 OA
HETATM   25  H   LIG     1      27.637  20.562  28.628  1.00  0.00     0.209 HD
ENDBRANCH  23  24
ENDBRANCH  21  23
ENDBRANCH  19  21
BRANCH  19  26
HETATM   26  O   LIG     1      29.483  25.108  25.997  1.00  0.00    -0.381 OA
HETATM   27  H   LIG     1      28.874  25.556  25.354  1.00  0.00     0.211 HD
ENDBRANCH  19  26
BRANCH  12  28
HETATM   28  O   LIG     1      29.357  22.722  30.925  1.00  0.00    -0.395 OA
HETATM   29  H   LIG     1      29.042  22.350  30.065  1.00  0.00     0.210 HD
ENDBRANCH  12  28
TORSDOF 5
ENDMDL
MODEL 18
REMARK VINA RESULT:      -3.8     14.633     16.899
REMARK  5 active torsions:
REMARK  status: ('A' for Active; 'I' for Inactive)
REMARK    1  A    between atoms: C_12  and  O_13 
REMARK    2  A    between atoms: C_20  and  C_22 
REMARK    3  A    between atoms: C_20  and  O_21 
REMARK    4  A    between atoms: C_22  and  C_23 
REMARK    5  A    between atoms: C_23  and  O_24 
ROOT
HETATM    1  O   LIG     1      25.191  32.101  35.647  1.00  0.00    -0.289 OA
HETATM    2  C   LIG     1      26.063  31.195  35.713  1.00  0.00     0.171 C 
HETATM    3  C   LIG     1      26.087  30.277  36.852  1.00  0.00     0.052 C 
HETATM    4  C   LIG     1      27.053  29.363  36.965  1.00  0.00    -0.009 C 
HETATM    5  C   LIG     1      28.261  29.321  36.032  1.00  0.00     0.004 C 
HETATM    6  C   LIG     1      29.421  30.013  36.783  1.00  0.00     0.025 C 
HETATM    7  C   LIG     1      28.014  30.114  34.731  1.00  0.00    -0.064 C 
HETATM    8  C   LIG     1      28.791  29.709  33.496  1.00  0.00     0.036 C 
HETATM    9  C   LIG     1      28.488  28.241  33.110  1.00  0.00     0.010 C 
HETATM   10  C   LIG     1      27.973  27.402  34.311  1.00  0.00    -0.002 C 
HETATM   11  C   LIG     1      28.676  27.848  35.633  1.00  0.00     0.035 C 
HETATM   12  C   LIG     1      28.651  26.739  36.742  1.00  0.00     0.124 C 
HETATM   13  C   LIG     1      29.319  25.407  36.265  1.00  0.00     0.045 C 
HETATM   14  C   LIG     1      29.225  25.130  34.719  1.00  0.00     0.001 C 
HETATM   15  C   LIG     1      30.558  25.584  34.027  1.00  0.00     0.019 C 
HETATM   16  C   LIG     1      28.006  25.859  34.127  1.00  0.00     0.002 C 
HETATM   17  C   LIG     1      27.788  25.246  32.749  1.00  0.00     0.009 C 
HETATM   18  C   LIG     1      28.256  23.785  32.898  1.00  0.00     0.047 C 
HETATM   19  C   LIG     1      28.929  23.637  34.296  1.00  0.00     0.128 C 
HETATM   20  C   LIG     1      27.024  31.014  34.624  1.00  0.00     0.058 C 
ENDROOT
BRANCH  19  21
HETATM   21  C   LIG     1      27.973  22.879  35.236  1.00  0.00     0.184 C 
HETATM   22  O   LIG     1      28.419  22.089  36.055  1.00  0.00    -0.292 OA
BRANCH  21  23
HETATM   23  C   LIG     1      26.485  23.128  35.244  1.00  0.00     0.245 C 
BRANCH  23  24
HETATM   24  O   LIG     1      26.127  23.868  36.380  1.00  0.00    -0.393 OA
HETATM   25  H   LIG     1      26.826  24.561  36.505  1.00  0.00     0.209 HD
ENDBRANCH  23  24
ENDBRANCH  21  23
ENDBRANCH  19  21
BRANCH  19  26
HETATM   26  O   LIG     1      30.121  22.897  34.141  1.00  0.00    -0.381 OA
HETATM   27  H   LIG     1      30.059  22.407  33.280  1.00  0.00     0.211 HD
ENDBRANCH  19  26
BRANCH  12  28
HETATM   28  O   LIG     1      27.366  26.464  37.253  1.00  0.00    -0.395 OA
HETATM   29  H   LIG     1      26.690  26.987  36.756  1.00  0.00     0.210 HD
ENDBRANCH  12  28
TORSDOF 5
ENDMDL
MODEL 19
REMARK VINA RESULT:      -3.8      2.688      4.154
REMARK  5 active torsions:
REMARK  status: ('A' for Active; 'I' for Inactive)
REMARK    1  A    between atoms: C_12  and  O_13 
REMARK    2  A    between atoms: C_20  and  C_22 
REMARK    3  A    between atoms: C_20  and  O_21 
REMARK    4  A    between atoms: C_22  and  C_23 
REMARK    5  A    between atoms: C_23  and  O_24 
ROOT
HETATM    1  O   LIG     1      26.896  18.434  27.087  1.00  0.00    -0.289 OA
HETATM    2  C   LIG     1      26.243  19.077  26.224  1.00  0.00     0.171 C 
HETATM    3  C   LIG     1      26.376  20.531  26.130  1.00  0.00     0.052 C 
HETATM    4  C   LIG     1      25.632  21.226  25.267  1.00  0.00    -0.009 C 
HETATM    5  C   LIG     1      24.501  20.594  24.460  1.00  0.00     0.004 C 
HETATM    6  C   LIG     1      23.189  20.932  25.201  1.00  0.00     0.025 C 
HETATM    7  C   LIG     1      24.620  19.055  24.406  1.00  0.00    -0.064 C 
HETATM    8  C   LIG     1      24.001  18.338  23.225  1.00  0.00     0.036 C 
HETATM    9  C   LIG     1      24.635  18.815  21.896  1.00  0.00     0.010 C 
HETATM   10  C   LIG     1      25.274  20.225  22.011  1.00  0.00    -0.002 C 
HETATM   11  C   LIG     1      24.438  21.129  22.972  1.00  0.00     0.035 C 
HETATM   12  C   LIG     1      24.663  22.661  22.720  1.00  0.00     0.124 C 
HETATM   13  C   LIG     1      24.324  23.076  21.250  1.00  0.00     0.045 C 
HETATM   14  C   LIG     1      24.539  21.950  20.173  1.00  0.00     0.001 C 
HETATM   15  C   LIG     1      23.167  21.250  19.871  1.00  0.00     0.019 C 
HETATM   16  C   LIG     1      25.589  20.941  20.667  1.00  0.00     0.002 C 
HETATM   17  C   LIG     1      25.992  20.130  19.442  1.00  0.00     0.009 C 
HETATM   18  C   LIG     1      25.853  21.114  18.264  1.00  0.00     0.047 C 
HETATM   19  C   LIG     1      25.173  22.410  18.800  1.00  0.00     0.128 C 
HETATM   20  C   LIG     1      25.390  18.371  25.266  1.00  0.00     0.058 C 
ENDROOT
BRANCH  19  21
HETATM   21  C   LIG     1      26.235  23.520  18.923  1.00  0.00     0.184 C 
HETATM   22  O   LIG     1      27.328  23.269  19.408  1.00  0.00    -0.292 OA
BRANCH  21  23
HETATM   23  C   LIG     1      26.008  24.915  18.395  1.00  0.00     0.245 C 
BRANCH  23  24
HETATM   24  O   LIG     1      26.185  25.852  19.422  1.00  0.00    -0.393 OA
HETATM   25  H   LIG     1      27.105  26.213  19.329  1.00  0.00     0.209 HD
ENDBRANCH  23  24
ENDBRANCH  21  23
ENDBRANCH  19  21
BRANCH  19  26
HETATM   26  O   LIG     1      24.181  22.808  17.879  1.00  0.00    -0.381 OA
HETATM   27  H   LIG     1      24.058  22.065  17.233  1.00  0.00     0.211 HD
ENDBRANCH  19  26
BRANCH  12  28
HETATM   28  O   LIG     1      25.955  23.116  23.052  1.00  0.00    -0.395 OA
HETATM   29  H   LIG     1      26.299  22.607  23.827  1.00  0.00     0.210 HD
ENDBRANCH  12  28
TORSDOF 5
ENDMDL
MODEL 20
REMARK VINA RESULT:      -3.6     13.855     15.914
REMARK  5 active torsions:
REMARK  status: ('A' for Active; 'I' for Inactive)
REMARK    1  A    between atoms: C_12  and  O_13 
REMARK    2  A    between atoms: C_20  and  C_22 
REMARK    3  A    between atoms: C_20  and  O_21 
REMARK    4  A    between atoms: C_22  and  C_23 
REMARK    5  A    between atoms: C_23  and  O_24 
ROOT
HETATM    1  O   LIG     1      25.195  30.772  38.127  1.00  0.00    -0.289 OA
HETATM    2  C   LIG     1      26.151  30.257  37.490  1.00  0.00     0.171 C 
HETATM    3  C   LIG     1      26.559  28.877  37.760  1.00  0.00     0.052 C 
HETATM    4  C   LIG     1      27.618  28.351  37.143  1.00  0.00    -0.009 C 
HETATM    5  C   LIG     1      28.554  29.177  36.264  1.00  0.00     0.004 C 
HETATM    6  C   LIG     1      29.779  29.530  37.137  1.00  0.00     0.025 C 
HETATM    7  C   LIG     1      27.905  30.505  35.817  1.00  0.00    -0.064 C 
HETATM    8  C   LIG     1      28.393  31.133  34.528  1.00  0.00     0.036 C 
HETATM    9  C   LIG     1      28.169  30.178  33.330  1.00  0.00     0.010 C 
HETATM   10  C   LIG     1      28.064  28.691  33.763  1.00  0.00    -0.002 C 
HETATM   11  C   LIG     1      29.019  28.401  34.966  1.00  0.00     0.035 C 
HETATM   12  C   LIG     1      29.393  26.883  35.097  1.00  0.00     0.124 C 
HETATM   13  C   LIG     1      30.066  26.324  33.801  1.00  0.00     0.045 C 
HETATM   14  C   LIG     1      29.624  27.025  32.464  1.00  0.00     0.001 C 
HETATM   15  C   LIG     1      30.684  28.111  32.070  1.00  0.00     0.019 C 
HETATM   16  C   LIG     1      28.223  27.639  32.629  1.00  0.00     0.002 C 
HETATM   17  C   LIG     1      27.740  27.953  31.219  1.00  0.00     0.009 C 
HETATM   18  C   LIG     1      28.390  26.868  30.338  1.00  0.00     0.047 C 
HETATM   19  C   LIG     1      29.401  26.076  31.220  1.00  0.00     0.128 C 
HETATM   20  C   LIG     1      26.826  31.011  36.433  1.00  0.00     0.058 C 
ENDROOT
BRANCH  19  21
HETATM   21  C   LIG     1      28.798  24.700  31.562  1.00  0.00     0.184 C 
HETATM   22  O   LIG     1      27.873  24.618  32.357  1.00  0.00    -0.292 OA
BRANCH  21  23
HETATM   23  C   LIG     1      29.257  23.429  30.890  1.00  0.00     0.245 C 
BRANCH  23  24
HETATM   24  O   LIG     1      29.167  23.562  29.498  1.00  0.00    -0.393 OA
HETATM   25  H   LIG     1      28.924  22.669  29.137  1.00  0.00     0.209 HD
ENDBRANCH  23  24
ENDBRANCH  21  23
ENDBRANCH  19  21
BRANCH  19  26
HETATM   26  O   LIG     1      30.591  25.898  30.485  1.00  0.00    -0.381 OA
HETATM   27  H   LIG     1      30.645  26.632  29.819  1.00  0.00     0.211 HD
ENDBRANCH  19  26
BRANCH  12  28
HETATM   28  O   LIG     1      28.314  26.053  35.463  1.00  0.00    -0.395 OA
HETATM   29  H   LIG     1      27.493  26.349  34.997  1.00  0.00     0.210 HD
ENDBRANCH  12  28
TORSDOF 5
ENDMDL
