REMARK  5 active torsions:
REMARK  status: ('A' for Active; 'I' for Inactive)
REMARK    1  A    between atoms: C_3  and  C_4 
REMARK    2  A    between atoms: C_4  and  C_5 
REMARK    3  A    between atoms: C_5  and  C_6 
REMARK    4  A    between atoms: N_8  and  C_9 
REMARK    5  A    between atoms: N_15  and  C_16 
ROOT
HETATM    1  O   LIG     1       1.127   2.393  -0.155  1.00  0.00    -0.270 OA
HETATM    2  C   LIG     1       0.778   1.207  -0.400  1.00  0.00     0.257 A 
HETATM    3  C   LIG     1       1.685   0.158  -0.979  1.00  0.00     0.174 A 
HETATM    4  N   LIG     1      -0.564   0.742  -0.262  1.00  0.00    -0.214 N 
HETATM    5  N   LIG     1      -0.630  -0.558  -0.778  1.00  0.00    -0.214 N 
HETATM    6  C   LIG     1       0.677  -0.930  -1.209  1.00  0.00     0.257 A 
HETATM    7  O   LIG     1       0.952  -2.057  -1.703  1.00  0.00    -0.270 OA
ENDROOT
BRANCH   4   8
HETATM    8  C   LIG     1      -1.702   1.582   0.004  1.00  0.00     0.060 A 
HETATM    9  C   LIG     1      -1.680   2.479   1.083  1.00  0.00     0.031 A 
HETATM   10  C   LIG     1      -2.788   3.290   1.349  1.00  0.00     0.002 A 
HETATM   11  C   LIG     1      -3.923   3.212   0.538  1.00  0.00     0.000 A 
HETATM   12  C   LIG     1      -3.951   2.325  -0.541  1.00  0.00     0.002 A 
HETATM   13  C   LIG     1      -2.845   1.513  -0.810  1.00  0.00     0.031 A 
ENDBRANCH   4   8
BRANCH   5  14
HETATM   14  C   LIG     1      -1.713  -1.478  -0.552  1.00  0.00     0.060 A 
HETATM   15  C   LIG     1      -2.095  -2.380  -1.558  1.00  0.00     0.031 A 
HETATM   16  C   LIG     1      -3.153  -3.269  -1.343  1.00  0.00     0.002 A 
HETATM   17  C   LIG     1      -3.834  -3.265  -0.123  1.00  0.00     0.000 A 
HETATM   18  C   LIG     1      -3.457  -2.373   0.885  1.00  0.00     0.002 A 
HETATM   19  C   LIG     1      -2.400  -1.483   0.673  1.00  0.00     0.031 A 
ENDBRANCH   5  14
BRANCH   3  20
HETATM   20  C   LIG     1       2.771  -0.298   0.014  1.00  0.00     0.024 C 
BRANCH  20  21
HETATM   21  C   LIG     1       3.913   0.724   0.129  1.00  0.00     0.001 C 
BRANCH  21  22
HETATM   22  C   LIG     1       4.983   0.300   1.147  1.00  0.00    -0.005 C 
HETATM   23  C   LIG     1       5.838  -0.869   0.658  1.00  0.00     0.005 C 
ENDBRANCH  21  22
ENDBRANCH  20  21
ENDBRANCH   3  20
TORSDOF 5
