REMARK  0 active torsions:
REMARK  status: ('A' for Active; 'I' for Inactive)
ROOT
HETATM    1  C   LIG     1      -0.363   0.185   0.118  1.00  0.00    -0.003 A 
HETATM    2  C   LIG     1      -1.727  -0.193   0.069  1.00  0.00    -0.004 A 
HETATM    3  C   LIG     1      -2.096  -1.443  -0.469  1.00  0.00    -0.024 A 
HETATM    4  C   LIG     1      -3.450  -1.811  -0.514  1.00  0.00     0.012 A 
HETATM    5  C   LIG     1      -4.431  -0.944  -0.028  1.00  0.00     0.002 A 
HETATM    6  C   LIG     1      -4.074   0.296   0.507  1.00  0.00     0.012 A 
HETATM    7  C   LIG     1      -2.726   0.681   0.560  1.00  0.00    -0.024 A 
HETATM    8  C   LIG     1      -2.360   1.922   1.095  1.00  0.00     0.013 A 
HETATM    9  C   LIG     1      -1.018   2.299   1.145  1.00  0.00     0.013 A 
HETATM   10  C   LIG     1      -0.017   1.442   0.661  1.00  0.00    -0.023 A 
HETATM   11  C   LIG     1       1.322   1.831   0.718  1.00  0.00     0.024 A 
HETATM   12  C   LIG     1       2.332   0.990   0.240  1.00  0.00    -0.024 A 
HETATM   13  C   LIG     1       2.013  -0.282  -0.313  1.00  0.00    -0.015 A 
HETATM   14  C   LIG     1       3.082  -1.088  -0.779  1.00  0.00     0.013 A 
HETATM   15  C   LIG     1       4.404  -0.645  -0.697  1.00  0.00     0.001 A 
HETATM   16  C   LIG     1       4.697   0.602  -0.153  1.00  0.00     0.001 A 
HETATM   17  C   LIG     1       3.668   1.417   0.314  1.00  0.00     0.012 A 
HETATM   18  C   LIG     1       0.644  -0.691  -0.375  1.00  0.00    -0.013 A 
HETATM   19  C   LIG     1       0.238  -1.939  -0.909  1.00  0.00     0.014 A 
HETATM   20  C   LIG     1      -1.109  -2.304  -0.953  1.00  0.00     0.013 A 
ENDROOT
TORSDOF 0
