MODEL 1
REMARK VINA RESULT:      -6.9      0.000      0.000
REMARK  5 active torsions:
REMARK  status: ('A' for Active; 'I' for Inactive)
REMARK    1  A    between atoms: C_7  and  C_8 
REMARK    2  A    between atoms: C_8  and  O_9 
REMARK    3  A    between atoms: C_12  and  O_13 
REMARK    4  A    between atoms: O_13  and  C_14 
REMARK    5  A    between atoms: C_14  and  C_15 
ROOT
HETATM    1  C   LIG     1      19.289  39.421  17.887  1.00  0.00     0.310 C 
HETATM    2  N   LIG     1      18.657  38.903  19.114  1.00  0.00     0.094 N 
HETATM    3  C   LIG     1      19.547  38.969  20.282  1.00  0.00     0.225 C 
HETATM    4  C   LIG     1      20.483  37.751  20.175  1.00  0.00     0.038 C 
HETATM    5  C   LIG     1      19.717  36.768  19.305  1.00  0.00     0.039 C 
HETATM    6  C   LIG     1      18.365  37.465  19.051  1.00  0.00     0.239 C 
HETATM    7  C   LIG     1      17.277  37.173  20.145  1.00  0.00     0.148 C 
HETATM    8  C   LIG     1      17.264  38.260  21.277  1.00  0.00     0.150 C 
HETATM    9  C   LIG     1      18.667  38.873  21.561  1.00  0.00     0.069 C 
ENDROOT
BRANCH   8  10
HETATM   10  O   LIG     1      16.683  37.739  22.477  1.00  0.00    -0.311 OA
BRANCH  10  11
HETATM   11  C   LIG     1      17.066  38.126  23.766  1.00  0.00     0.293 C 
HETATM   12  O   LIG     1      17.034  39.343  24.100  1.00  0.00    -0.259 OA
BRANCH  11  13
HETATM   13  C   LIG     1      17.501  37.099  24.738  1.00  0.00     0.039 A 
HETATM   14  C   LIG     1      18.295  37.448  25.847  1.00  0.00     0.017 A 
HETATM   15  C   LIG     1      18.703  36.469  26.758  1.00  0.00     0.001 A 
HETATM   16  C   LIG     1      18.328  35.137  26.573  1.00  0.00     0.000 A 
HETATM   17  C   LIG     1      17.541  34.780  25.475  1.00  0.00     0.001 A 
HETATM   18  C   LIG     1      17.128  35.755  24.561  1.00  0.00     0.017 A 
ENDBRANCH  11  13
ENDBRANCH  10  11
ENDBRANCH   8  10
BRANCH   7  19
HETATM   19  C   LIG     1      17.313  35.765  20.690  1.00  0.00     0.267 C 
HETATM   20  O   LIG     1      18.205  35.439  21.520  1.00  0.00    -0.265 OA
BRANCH  19  21
HETATM   21  O   LIG     1      16.369  34.825  20.261  1.00  0.00    -0.326 OA
HETATM   22  C   LIG     1      15.320  34.355  21.098  1.00  0.00     0.213 C 
ENDBRANCH  19  21
ENDBRANCH   7  19
TORSDOF 5
ENDMDL
MODEL 2
REMARK VINA RESULT:      -5.1      2.171      6.282
REMARK  5 active torsions:
REMARK  status: ('A' for Active; 'I' for Inactive)
REMARK    1  A    between atoms: C_7  and  C_8 
REMARK    2  A    between atoms: C_8  and  O_9 
REMARK    3  A    between atoms: C_12  and  O_13 
REMARK    4  A    between atoms: O_13  and  C_14 
REMARK    5  A    between atoms: C_14  and  C_15 
ROOT
HETATM    1  C   LIG     1      14.650  34.985  21.276  1.00  0.00     0.310 C 
HETATM    2  N   LIG     1      15.719  36.000  21.289  1.00  0.00     0.094 N 
HETATM    3  C   LIG     1      17.043  35.434  20.996  1.00  0.00     0.225 C 
HETATM    4  C   LIG     1      17.539  34.804  22.310  1.00  0.00     0.038 C 
HETATM    5  C   LIG     1      16.760  35.536  23.391  1.00  0.00     0.039 C 
HETATM    6  C   LIG     1      15.941  36.588  22.617  1.00  0.00     0.239 C 
HETATM    7  C   LIG     1      16.692  37.949  22.392  1.00  0.00     0.148 C 
HETATM    8  C   LIG     1      17.449  37.992  21.019  1.00  0.00     0.150 C 
HETATM    9  C   LIG     1      17.977  36.600  20.561  1.00  0.00     0.069 C 
ENDROOT
BRANCH   8  10
HETATM   10  O   LIG     1      18.508  38.953  21.051  1.00  0.00    -0.311 OA
BRANCH  10  11
HETATM   11  C   LIG     1      19.481  39.083  20.052  1.00  0.00     0.293 C 
HETATM   12  O   LIG     1      20.697  38.879  20.319  1.00  0.00    -0.259 OA
BRANCH  11  13
HETATM   13  C   LIG     1      19.073  39.451  18.679  1.00  0.00     0.039 A 
HETATM   14  C   LIG     1      19.822  39.023  17.566  1.00  0.00     0.017 A 
HETATM   15  C   LIG     1      19.430  39.380  16.272  1.00  0.00     0.001 A 
HETATM   16  C   LIG     1      18.292  40.165  16.074  1.00  0.00     0.000 A 
HETATM   17  C   LIG     1      17.542  40.596  17.172  1.00  0.00     0.001 A 
HETATM   18  C   LIG     1      17.928  40.242  18.468  1.00  0.00     0.017 A 
ENDBRANCH  11  13
ENDBRANCH  10  11
ENDBRANCH   8  10
BRANCH   7  19
HETATM   19  C   LIG     1      17.563  38.370  23.552  1.00  0.00     0.267 C 
HETATM   20  O   LIG     1      18.806  38.507  23.382  1.00  0.00    -0.265 OA
BRANCH  19  21
HETATM   21  O   LIG     1      16.992  38.592  24.810  1.00  0.00    -0.326 OA
HETATM   22  C   LIG     1      17.451  37.939  25.987  1.00  0.00     0.213 C 
ENDBRANCH  19  21
ENDBRANCH   7  19
TORSDOF 5
ENDMDL
MODEL 3
REMARK VINA RESULT:      -5.0     15.342     17.351
REMARK  5 active torsions:
REMARK  status: ('A' for Active; 'I' for Inactive)
REMARK    1  A    between atoms: C_7  and  C_8 
REMARK    2  A    between atoms: C_8  and  O_9 
REMARK    3  A    between atoms: C_12  and  O_13 
REMARK    4  A    between atoms: O_13  and  C_14 
REMARK    5  A    between atoms: C_14  and  C_15 
ROOT
HETATM    1  C   LIG     1      24.729  20.917  23.359  1.00  0.00     0.310 C 
HETATM    2  N   LIG     1      24.994  21.529  22.044  1.00  0.00     0.094 N 
HETATM    3  C   LIG     1      24.418  22.876  21.919  1.00  0.00     0.225 C 
HETATM    4  C   LIG     1      22.927  22.675  21.594  1.00  0.00     0.038 C 
HETATM    5  C   LIG     1      22.862  21.281  20.990  1.00  0.00     0.039 C 
HETATM    6  C   LIG     1      24.334  20.826  20.936  1.00  0.00     0.239 C 
HETATM    7  C   LIG     1      25.087  21.241  19.622  1.00  0.00     0.148 C 
HETATM    8  C   LIG     1      25.846  22.605  19.775  1.00  0.00     0.150 C 
HETATM    9  C   LIG     1      25.141  23.598  20.746  1.00  0.00     0.069 C 
ENDROOT
BRANCH   8  10
HETATM   10  O   LIG     1      26.067  23.212  18.498  1.00  0.00    -0.311 OA
BRANCH  10  11
HETATM   11  C   LIG     1      27.334  23.440  17.946  1.00  0.00     0.293 C 
HETATM   12  O   LIG     1      27.996  22.483  17.460  1.00  0.00    -0.259 OA
BRANCH  11  13
HETATM   13  C   LIG     1      27.885  24.812  17.929  1.00  0.00     0.039 A 
HETATM   14  C   LIG     1      27.462  25.770  18.870  1.00  0.00     0.017 A 
HETATM   15  C   LIG     1      27.987  27.066  18.843  1.00  0.00     0.001 A 
HETATM   16  C   LIG     1      28.935  27.420  17.881  1.00  0.00     0.000 A 
HETATM   17  C   LIG     1      29.361  26.477  16.942  1.00  0.00     0.001 A 
HETATM   18  C   LIG     1      28.841  25.179  16.964  1.00  0.00     0.017 A 
ENDBRANCH  11  13
ENDBRANCH  10  11
ENDBRANCH   8  10
BRANCH   7  19
HETATM   19  C   LIG     1      24.231  21.186  18.378  1.00  0.00     0.267 C 
HETATM   20  O   LIG     1      23.370  22.085  18.173  1.00  0.00    -0.265 OA
BRANCH  19  21
HETATM   21  O   LIG     1      24.385  20.133  17.469  1.00  0.00    -0.326 OA
HETATM   22  C   LIG     1      25.600  19.896  16.770  1.00  0.00     0.213 C 
ENDBRANCH  19  21
ENDBRANCH   7  19
TORSDOF 5
ENDMDL
MODEL 4
REMARK VINA RESULT:      -5.0      2.422      5.971
REMARK  5 active torsions:
REMARK  status: ('A' for Active; 'I' for Inactive)
REMARK    1  A    between atoms: C_7  and  C_8 
REMARK    2  A    between atoms: C_8  and  O_9 
REMARK    3  A    between atoms: C_12  and  O_13 
REMARK    4  A    between atoms: O_13  and  C_14 
REMARK    5  A    between atoms: C_14  and  C_15 
ROOT
HETATM    1  C   LIG     1      16.801  38.931  25.772  1.00  0.00     0.310 C 
HETATM    2  N   LIG     1      16.805  38.001  24.629  1.00  0.00     0.094 N 
HETATM    3  C   LIG     1      17.616  36.801  24.877  1.00  0.00     0.225 C 
HETATM    4  C   LIG     1      19.078  37.213  24.626  1.00  0.00     0.038 C 
HETATM    5  C   LIG     1      18.972  38.421  23.709  1.00  0.00     0.039 C 
HETATM    6  C   LIG     1      17.460  38.554  23.436  1.00  0.00     0.239 C 
HETATM    7  C   LIG     1      16.952  37.717  22.208  1.00  0.00     0.148 C 
HETATM    8  C   LIG     1      16.429  36.299  22.630  1.00  0.00     0.150 C 
HETATM    9  C   LIG     1      17.174  35.707  23.862  1.00  0.00     0.069 C 
ENDROOT
BRANCH   8  10
HETATM   10  O   LIG     1      16.470  35.391  21.525  1.00  0.00    -0.311 OA
BRANCH  10  11
HETATM   11  C   LIG     1      15.412  34.549  21.162  1.00  0.00     0.293 C 
HETATM   12  O   LIG     1      14.491  34.295  21.986  1.00  0.00    -0.259 OA
BRANCH  11  13
HETATM   13  C   LIG     1      15.376  33.966  19.803  1.00  0.00     0.039 A 
HETATM   14  C   LIG     1      15.352  32.570  19.619  1.00  0.00     0.017 A 
HETATM   15  C   LIG     1      15.322  32.029  18.330  1.00  0.00     0.001 A 
HETATM   16  C   LIG     1      15.316  32.870  17.215  1.00  0.00     0.000 A 
HETATM   17  C   LIG     1      15.340  34.256  17.387  1.00  0.00     0.001 A 
HETATM   18  C   LIG     1      15.370  34.804  18.673  1.00  0.00     0.017 A 
ENDBRANCH  11  13
ENDBRANCH  10  11
ENDBRANCH   8  10
BRANCH   7  19
HETATM   19  C   LIG     1      17.928  37.659  21.057  1.00  0.00     0.267 C 
HETATM   20  O   LIG     1      18.342  36.541  20.644  1.00  0.00    -0.265 OA
BRANCH  19  21
HETATM   21  O   LIG     1      18.379  38.843  20.463  1.00  0.00    -0.326 OA
HETATM   22  C   LIG     1      19.733  39.042  20.079  1.00  0.00     0.213 C 
ENDBRANCH  19  21
ENDBRANCH   7  19
TORSDOF 5
ENDMDL
MODEL 5
REMARK VINA RESULT:      -4.8     15.458     17.353
REMARK  5 active torsions:
REMARK  status: ('A' for Active; 'I' for Inactive)
REMARK    1  A    between atoms: C_7  and  C_8 
REMARK    2  A    between atoms: C_8  and  O_9 
REMARK    3  A    between atoms: C_12  and  O_13 
REMARK    4  A    between atoms: O_13  and  C_14 
REMARK    5  A    between atoms: C_14  and  C_15 
ROOT
HETATM    1  C   LIG     1      23.134  19.033  16.740  1.00  0.00     0.310 C 
HETATM    2  N   LIG     1      23.654  20.162  17.533  1.00  0.00     0.094 N 
HETATM    3  C   LIG     1      24.963  19.874  18.138  1.00  0.00     0.225 C 
HETATM    4  C   LIG     1      24.677  19.038  19.398  1.00  0.00     0.038 C 
HETATM    5  C   LIG     1      23.240  19.382  19.756  1.00  0.00     0.039 C 
HETATM    6  C   LIG     1      22.842  20.454  18.721  1.00  0.00     0.239 C 
HETATM    7  C   LIG     1      23.185  21.924  19.156  1.00  0.00     0.148 C 
HETATM    8  C   LIG     1      24.587  22.390  18.628  1.00  0.00     0.150 C 
HETATM    9  C   LIG     1      25.622  21.231  18.519  1.00  0.00     0.069 C 
ENDROOT
BRANCH   8  10
HETATM   10  O   LIG     1      25.102  23.460  19.425  1.00  0.00    -0.311 OA
BRANCH  10  11
HETATM   11  C   LIG     1      26.457  23.623  19.740  1.00  0.00     0.293 C 
HETATM   12  O   LIG     1      26.976  22.951  20.673  1.00  0.00    -0.259 OA
BRANCH  11  13
HETATM   13  C   LIG     1      27.277  24.579  18.966  1.00  0.00     0.039 A 
HETATM   14  C   LIG     1      27.489  25.890  19.436  1.00  0.00     0.017 A 
HETATM   15  C   LIG     1      28.263  26.788  18.694  1.00  0.00     0.001 A 
HETATM   16  C   LIG     1      28.830  26.392  17.482  1.00  0.00     0.000 A 
HETATM   17  C   LIG     1      28.625  25.094  17.006  1.00  0.00     0.001 A 
HETATM   18  C   LIG     1      27.852  24.191  17.743  1.00  0.00     0.017 A 
ENDBRANCH  11  13
ENDBRANCH  10  11
ENDBRANCH   8  10
BRANCH   7  19
HETATM   19  C   LIG     1      23.001  22.189  20.632  1.00  0.00     0.267 C 
HETATM   20  O   LIG     1      22.006  22.855  21.028  1.00  0.00    -0.265 OA
BRANCH  19  21
HETATM   21  O   LIG     1      23.940  21.706  21.550  1.00  0.00    -0.326 OA
HETATM   22  C   LIG     1      24.203  22.352  22.790  1.00  0.00     0.213 C 
ENDBRANCH  19  21
ENDBRANCH   7  19
TORSDOF 5
ENDMDL
MODEL 6
REMARK VINA RESULT:      -4.8     15.177     16.765
REMARK  5 active torsions:
REMARK  status: ('A' for Active; 'I' for Inactive)
REMARK    1  A    between atoms: C_7  and  C_8 
REMARK    2  A    between atoms: C_8  and  O_9 
REMARK    3  A    between atoms: C_12  and  O_13 
REMARK    4  A    between atoms: O_13  and  C_14 
REMARK    5  A    between atoms: C_14  and  C_15 
ROOT
HETATM    1  C   LIG     1      28.450  24.923  17.075  1.00  0.00     0.310 C 
HETATM    2  N   LIG     1      27.599  24.510  18.205  1.00  0.00     0.094 N 
HETATM    3  C   LIG     1      27.029  25.653  18.933  1.00  0.00     0.225 C 
HETATM    4  C   LIG     1      28.139  26.159  19.872  1.00  0.00     0.038 C 
HETATM    5  C   LIG     1      29.051  24.957  20.052  1.00  0.00     0.039 C 
HETATM    6  C   LIG     1      28.346  23.829  19.272  1.00  0.00     0.239 C 
HETATM    7  C   LIG     1      27.298  23.021  20.117  1.00  0.00     0.148 C 
HETATM    8  C   LIG     1      25.845  23.596  19.973  1.00  0.00     0.150 C 
HETATM    9  C   LIG     1      25.811  25.138  19.753  1.00  0.00     0.069 C 
ENDROOT
BRANCH   8  10
HETATM   10  O   LIG     1      25.035  23.223  21.091  1.00  0.00    -0.311 OA
BRANCH  10  11
HETATM   11  C   LIG     1      23.707  22.792  20.990  1.00  0.00     0.293 C 
HETATM   12  O   LIG     1      22.794  23.397  21.616  1.00  0.00    -0.259 OA
BRANCH  11  13
HETATM   13  C   LIG     1      23.380  21.630  20.136  1.00  0.00     0.039 A 
HETATM   14  C   LIG     1      23.060  21.804  18.775  1.00  0.00     0.017 A 
HETATM   15  C   LIG     1      22.749  20.699  17.977  1.00  0.00     0.001 A 
HETATM   16  C   LIG     1      22.751  19.414  18.524  1.00  0.00     0.000 A 
HETATM   17  C   LIG     1      23.066  19.231  19.873  1.00  0.00     0.001 A 
HETATM   18  C   LIG     1      23.379  20.331  20.677  1.00  0.00     0.017 A 
ENDBRANCH  11  13
ENDBRANCH  10  11
ENDBRANCH   8  10
BRANCH   7  19
HETATM   19  C   LIG     1      27.700  22.808  21.557  1.00  0.00     0.267 C 
HETATM   20  O   LIG     1      28.204  21.707  21.909  1.00  0.00    -0.265 OA
BRANCH  19  21
HETATM   21  O   LIG     1      27.500  23.827  22.496  1.00  0.00    -0.326 OA
HETATM   22  C   LIG     1      27.219  23.565  23.865  1.00  0.00     0.213 C 
ENDBRANCH  19  21
ENDBRANCH   7  19
TORSDOF 5
ENDMDL
MODEL 7
REMARK VINA RESULT:      -4.8     15.201     16.720
REMARK  5 active torsions:
REMARK  status: ('A' for Active; 'I' for Inactive)
REMARK    1  A    between atoms: C_7  and  C_8 
REMARK    2  A    between atoms: C_8  and  O_9 
REMARK    3  A    between atoms: C_12  and  O_13 
REMARK    4  A    between atoms: O_13  and  C_14 
REMARK    5  A    between atoms: C_14  and  C_15 
ROOT
HETATM    1  C   LIG     1      24.238  19.009  18.420  1.00  0.00     0.310 C 
HETATM    2  N   LIG     1      24.352  20.059  19.449  1.00  0.00     0.094 N 
HETATM    3  C   LIG     1      23.227  21.006  19.420  1.00  0.00     0.225 C 
HETATM    4  C   LIG     1      23.532  21.998  18.284  1.00  0.00     0.038 C 
HETATM    5  C   LIG     1      25.041  21.924  18.119  1.00  0.00     0.039 C 
HETATM    6  C   LIG     1      25.494  20.957  19.233  1.00  0.00     0.239 C 
HETATM    7  C   LIG     1      25.790  21.656  20.608  1.00  0.00     0.148 C 
HETATM    8  C   LIG     1      24.540  21.658  21.556  1.00  0.00     0.150 C 
HETATM    9  C   LIG     1      23.185  21.739  20.792  1.00  0.00     0.069 C 
ENDROOT
BRANCH   8  10
HETATM   10  O   LIG     1      24.639  22.703  22.528  1.00  0.00    -0.311 OA
BRANCH  10  11
HETATM   11  C   LIG     1      24.780  22.484  23.904  1.00  0.00     0.293 C 
HETATM   12  O   LIG     1      24.105  21.584  24.476  1.00  0.00    -0.259 OA
BRANCH  11  13
HETATM   13  C   LIG     1      25.732  23.307  24.681  1.00  0.00     0.039 A 
HETATM   14  C   LIG     1      25.416  23.735  25.985  1.00  0.00     0.017 A 
HETATM   15  C   LIG     1      26.322  24.515  26.710  1.00  0.00     0.001 A 
HETATM   16  C   LIG     1      27.546  24.878  26.145  1.00  0.00     0.000 A 
HETATM   17  C   LIG     1      27.869  24.459  24.851  1.00  0.00     0.001 A 
HETATM   18  C   LIG     1      26.968  23.677  24.121  1.00  0.00     0.017 A 
ENDBRANCH  11  13
ENDBRANCH  10  11
ENDBRANCH   8  10
BRANCH   7  19
HETATM   19  C   LIG     1      26.428  23.019  20.481  1.00  0.00     0.267 C 
HETATM   20  O   LIG     1      27.672  23.145  20.651  1.00  0.00    -0.265 OA
BRANCH  19  21
HETATM   21  O   LIG     1      25.637  24.136  20.192  1.00  0.00    -0.326 OA
HETATM   22  C   LIG     1      26.151  25.294  19.546  1.00  0.00     0.213 C 
ENDBRANCH  19  21
ENDBRANCH   7  19
TORSDOF 5
ENDMDL
MODEL 8
REMARK VINA RESULT:      -4.8     14.993     16.045
REMARK  5 active torsions:
REMARK  status: ('A' for Active; 'I' for Inactive)
REMARK    1  A    between atoms: C_7  and  C_8 
REMARK    2  A    between atoms: C_8  and  O_9 
REMARK    3  A    between atoms: C_12  and  O_13 
REMARK    4  A    between atoms: O_13  and  C_14 
REMARK    5  A    between atoms: C_14  and  C_15 
ROOT
HETATM    1  C   LIG     1      28.091  26.903  18.656  1.00  0.00     0.310 C 
HETATM    2  N   LIG     1      27.431  25.739  19.275  1.00  0.00     0.094 N 
HETATM    3  C   LIG     1      28.388  24.780  19.845  1.00  0.00     0.225 C 
HETATM    4  C   LIG     1      28.905  23.939  18.664  1.00  0.00     0.038 C 
HETATM    5  C   LIG     1      27.815  24.063  17.613  1.00  0.00     0.039 C 
HETATM    6  C   LIG     1      26.718  24.897  18.306  1.00  0.00     0.239 C 
HETATM    7  C   LIG     1      25.681  24.043  19.120  1.00  0.00     0.148 C 
HETATM    8  C   LIG     1      26.082  23.901  20.630  1.00  0.00     0.150 C 
HETATM    9  C   LIG     1      27.622  23.885  20.861  1.00  0.00     0.069 C 
ENDROOT
BRANCH   8  10
HETATM   10  O   LIG     1      25.467  22.749  21.215  1.00  0.00    -0.311 OA
BRANCH  10  11
HETATM   11  C   LIG     1      24.261  22.778  21.926  1.00  0.00     0.293 C 
HETATM   12  O   LIG     1      23.226  23.271  21.399  1.00  0.00    -0.259 OA
BRANCH  11  13
HETATM   13  C   LIG     1      24.207  22.219  23.294  1.00  0.00     0.039 A 
HETATM   14  C   LIG     1      24.940  22.808  24.342  1.00  0.00     0.017 A 
HETATM   15  C   LIG     1      24.885  22.270  25.631  1.00  0.00     0.001 A 
HETATM   16  C   LIG     1      24.102  21.143  25.888  1.00  0.00     0.000 A 
HETATM   17  C   LIG     1      23.371  20.550  24.856  1.00  0.00     0.001 A 
HETATM   18  C   LIG     1      23.422  21.084  23.564  1.00  0.00     0.017 A 
ENDBRANCH  11  13
ENDBRANCH  10  11
ENDBRANCH   8  10
BRANCH   7  19
HETATM   19  C   LIG     1      25.336  22.719  18.481  1.00  0.00     0.267 C 
HETATM   20  O   LIG     1      26.206  21.807  18.425  1.00  0.00    -0.265 OA
BRANCH  19  21
HETATM   21  O   LIG     1      24.061  22.514  17.942  1.00  0.00    -0.326 OA
HETATM   22  C   LIG     1      23.230  21.428  18.331  1.00  0.00     0.213 C 
ENDBRANCH  19  21
ENDBRANCH   7  19
TORSDOF 5
ENDMDL
MODEL 9
REMARK VINA RESULT:      -4.7     15.430     16.930
REMARK  5 active torsions:
REMARK  status: ('A' for Active; 'I' for Inactive)
REMARK    1  A    between atoms: C_7  and  C_8 
REMARK    2  A    between atoms: C_8  and  O_9 
REMARK    3  A    between atoms: C_12  and  O_13 
REMARK    4  A    between atoms: O_13  and  C_14 
REMARK    5  A    between atoms: C_14  and  C_15 
ROOT
HETATM    1  C   LIG     1      28.060  27.113  18.619  1.00  0.00     0.310 C 
HETATM    2  N   LIG     1      27.433  25.912  19.200  1.00  0.00     0.094 N 
HETATM    3  C   LIG     1      28.066  25.495  20.460  1.00  0.00     0.225 C 
HETATM    4  C   LIG     1      29.334  24.718  20.065  1.00  0.00     0.038 C 
HETATM    5  C   LIG     1      29.054  24.242  18.649  1.00  0.00     0.039 C 
HETATM    6  C   LIG     1      27.611  24.711  18.374  1.00  0.00     0.239 C 
HETATM    7  C   LIG     1      26.507  23.686  18.818  1.00  0.00     0.148 C 
HETATM    8  C   LIG     1      25.983  23.966  20.270  1.00  0.00     0.150 C 
HETATM    9  C   LIG     1      27.068  24.569  21.212  1.00  0.00     0.069 C 
ENDROOT
BRANCH   8  10
HETATM   10  O   LIG     1      25.409  22.787  20.842  1.00  0.00    -0.311 OA
BRANCH  10  11
HETATM   11  C   LIG     1      24.038  22.504  20.845  1.00  0.00     0.293 C 
HETATM   12  O   LIG     1      23.252  23.182  21.563  1.00  0.00    -0.259 OA
BRANCH  11  13
HETATM   13  C   LIG     1      23.516  21.413  19.995  1.00  0.00     0.039 A 
HETATM   14  C   LIG     1      23.459  20.090  20.477  1.00  0.00     0.017 A 
HETATM   15  C   LIG     1      22.967  19.065  19.664  1.00  0.00     0.001 A 
HETATM   16  C   LIG     1      22.530  19.344  18.368  1.00  0.00     0.000 A 
HETATM   17  C   LIG     1      22.584  20.652  17.880  1.00  0.00     0.001 A 
HETATM   18  C   LIG     1      23.074  21.683  18.688  1.00  0.00     0.017 A 
ENDBRANCH  11  13
ENDBRANCH  10  11
ENDBRANCH   8  10
BRANCH   7  19
HETATM   19  C   LIG     1      26.888  22.240  18.606  1.00  0.00     0.267 C 
HETATM   20  O   LIG     1      27.673  21.675  19.416  1.00  0.00    -0.265 OA
BRANCH  19  21
HETATM   21  O   LIG     1      26.383  21.539  17.505  1.00  0.00    -0.326 OA
HETATM   22  C   LIG     1      26.258  20.122  17.489  1.00  0.00     0.213 C 
ENDBRANCH  19  21
ENDBRANCH   7  19
TORSDOF 5
ENDMDL
MODEL 10
REMARK VINA RESULT:      -4.7     15.195     17.109
REMARK  5 active torsions:
REMARK  status: ('A' for Active; 'I' for Inactive)
REMARK    1  A    between atoms: C_7  and  C_8 
REMARK    2  A    between atoms: C_8  and  O_9 
REMARK    3  A    between atoms: C_12  and  O_13 
REMARK    4  A    between atoms: O_13  and  C_14 
REMARK    5  A    between atoms: C_14  and  C_15 
ROOT
HETATM    1  C   LIG     1      26.399  20.004  24.201  1.00  0.00     0.310 C 
HETATM    2  N   LIG     1      26.175  21.033  23.169  1.00  0.00     0.094 N 
HETATM    3  C   LIG     1      26.361  22.398  23.680  1.00  0.00     0.225 C 
HETATM    4  C   LIG     1      25.058  22.761  24.414  1.00  0.00     0.038 C 
HETATM    5  C   LIG     1      24.015  21.843  23.798  1.00  0.00     0.039 C 
HETATM    6  C   LIG     1      24.785  21.085  22.698  1.00  0.00     0.239 C 
HETATM    7  C   LIG     1      24.803  21.814  21.308  1.00  0.00     0.148 C 
HETATM    8  C   LIG     1      26.070  22.721  21.127  1.00  0.00     0.150 C 
HETATM    9  C   LIG     1      26.583  23.339  22.461  1.00  0.00     0.069 C 
ENDROOT
BRANCH   8  10
HETATM   10  O   LIG     1      25.833  23.740  20.151  1.00  0.00    -0.311 OA
BRANCH  10  11
HETATM   11  C   LIG     1      26.334  23.706  18.843  1.00  0.00     0.293 C 
HETATM   12  O   LIG     1      25.991  22.782  18.056  1.00  0.00    -0.259 OA
BRANCH  11  13
HETATM   13  C   LIG     1      27.259  24.766  18.388  1.00  0.00     0.039 A 
HETATM   14  C   LIG     1      28.024  24.600  17.217  1.00  0.00     0.017 A 
HETATM   15  C   LIG     1      28.899  25.606  16.797  1.00  0.00     0.001 A 
HETATM   16  C   LIG     1      29.021  26.784  17.537  1.00  0.00     0.000 A 
HETATM   17  C   LIG     1      28.268  26.959  18.701  1.00  0.00     0.001 A 
HETATM   18  C   LIG     1      27.391  25.956  19.126  1.00  0.00     0.017 A 
ENDBRANCH  11  13
ENDBRANCH  10  11
ENDBRANCH   8  10
BRANCH   7  19
HETATM   19  C   LIG     1      23.518  22.536  20.974  1.00  0.00     0.267 C 
HETATM   20  O   LIG     1      23.150  23.515  21.679  1.00  0.00    -0.265 OA
BRANCH  19  21
HETATM   21  O   LIG     1      22.736  22.106  19.896  1.00  0.00    -0.326 OA
HETATM   22  C   LIG     1      23.045  20.943  19.139  1.00  0.00     0.213 C 
ENDBRANCH  19  21
ENDBRANCH   7  19
TORSDOF 5
ENDMDL
MODEL 11
REMARK VINA RESULT:      -4.6     14.918     16.160
REMARK  5 active torsions:
REMARK  status: ('A' for Active; 'I' for Inactive)
REMARK    1  A    between atoms: C_7  and  C_8 
REMARK    2  A    between atoms: C_8  and  O_9 
REMARK    3  A    between atoms: C_12  and  O_13 
REMARK    4  A    between atoms: O_13  and  C_14 
REMARK    5  A    between atoms: C_14  and  C_15 
ROOT
HETATM    1  C   LIG     1      28.458  27.481  18.286  1.00  0.00     0.310 C 
HETATM    2  N   LIG     1      28.103  26.242  19.003  1.00  0.00     0.094 N 
HETATM    3  C   LIG     1      29.257  25.354  19.208  1.00  0.00     0.225 C 
HETATM    4  C   LIG     1      29.458  24.602  17.880  1.00  0.00     0.038 C 
HETATM    5  C   LIG     1      28.097  24.664  17.207  1.00  0.00     0.039 C 
HETATM    6  C   LIG     1      27.198  25.373  18.240  1.00  0.00     0.239 C 
HETATM    7  C   LIG     1      26.520  24.404  19.273  1.00  0.00     0.148 C 
HETATM    8  C   LIG     1      27.364  24.247  20.586  1.00  0.00     0.150 C 
HETATM    9  C   LIG     1      28.899  24.361  20.351  1.00  0.00     0.069 C 
ENDROOT
BRANCH   8  10
HETATM   10  O   LIG     1      27.041  23.025  21.258  1.00  0.00    -0.311 OA
BRANCH  10  11
HETATM   11  C   LIG     1      26.159  22.935  22.342  1.00  0.00     0.293 C 
HETATM   12  O   LIG     1      26.566  23.175  23.512  1.00  0.00    -0.259 OA
BRANCH  11  13
HETATM   13  C   LIG     1      24.747  22.567  22.105  1.00  0.00     0.039 A 
HETATM   14  C   LIG     1      24.295  21.255  22.348  1.00  0.00     0.017 A 
HETATM   15  C   LIG     1      22.958  20.916  22.118  1.00  0.00     0.001 A 
HETATM   16  C   LIG     1      22.061  21.875  21.644  1.00  0.00     0.000 A 
HETATM   17  C   LIG     1      22.499  23.179  21.399  1.00  0.00     0.001 A 
HETATM   18  C   LIG     1      23.835  23.525  21.628  1.00  0.00     0.017 A 
ENDBRANCH  11  13
ENDBRANCH  10  11
ENDBRANCH   8  10
BRANCH   7  19
HETATM   19  C   LIG     1      26.100  23.075  18.688  1.00  0.00     0.267 C 
HETATM   20  O   LIG     1      26.955  22.159  18.543  1.00  0.00    -0.265 OA
BRANCH  19  21
HETATM   21  O   LIG     1      24.772  22.873  18.298  1.00  0.00    -0.326 OA
HETATM   22  C   LIG     1      24.140  21.600  18.359  1.00  0.00     0.213 C 
ENDBRANCH  19  21
ENDBRANCH   7  19
TORSDOF 5
ENDMDL
MODEL 12
REMARK VINA RESULT:      -4.3     15.292     16.997
REMARK  5 active torsions:
REMARK  status: ('A' for Active; 'I' for Inactive)
REMARK    1  A    between atoms: C_7  and  C_8 
REMARK    2  A    between atoms: C_8  and  O_9 
REMARK    3  A    between atoms: C_12  and  O_13 
REMARK    4  A    between atoms: O_13  and  C_14 
REMARK    5  A    between atoms: C_14  and  C_15 
ROOT
HETATM    1  C   LIG     1      25.751  20.140  16.790  1.00  0.00     0.310 C 
HETATM    2  N   LIG     1      25.848  21.231  17.777  1.00  0.00     0.094 N 
HETATM    3  C   LIG     1      27.054  21.135  18.612  1.00  0.00     0.225 C 
HETATM    4  C   LIG     1      26.738  20.093  19.701  1.00  0.00     0.038 C 
HETATM    5  C   LIG     1      25.221  20.086  19.781  1.00  0.00     0.039 C 
HETATM    6  C   LIG     1      24.787  21.187  18.792  1.00  0.00     0.239 C 
HETATM    7  C   LIG     1      24.703  22.622  19.425  1.00  0.00     0.148 C 
HETATM    8  C   LIG     1      26.036  23.431  19.247  1.00  0.00     0.150 C 
HETATM    9  C   LIG     1      27.308  22.532  19.248  1.00  0.00     0.069 C 
ENDROOT
BRANCH   8  10
HETATM   10  O   LIG     1      26.140  24.464  20.231  1.00  0.00    -0.311 OA
BRANCH  10  11
HETATM   11  C   LIG     1      27.351  24.906  20.779  1.00  0.00     0.293 C 
HETATM   12  O   LIG     1      27.692  24.545  21.939  1.00  0.00    -0.259 OA
BRANCH  11  13
HETATM   13  C   LIG     1      28.230  25.792  19.986  1.00  0.00     0.039 A 
HETATM   14  C   LIG     1      29.622  25.807  20.205  1.00  0.00     0.017 A 
HETATM   15  C   LIG     1      30.445  26.651  19.453  1.00  0.00     0.001 A 
HETATM   16  C   LIG     1      29.893  27.485  18.479  1.00  0.00     0.000 A 
HETATM   17  C   LIG     1      28.514  27.478  18.255  1.00  0.00     0.001 A 
HETATM   18  C   LIG     1      27.685  26.636  19.003  1.00  0.00     0.017 A 
ENDBRANCH  11  13
ENDBRANCH  10  11
ENDBRANCH   8  10
BRANCH   7  19
HETATM   19  C   LIG     1      24.196  22.639  20.848  1.00  0.00     0.267 C 
HETATM   20  O   LIG     1      22.977  22.869  21.074  1.00  0.00    -0.265 OA
BRANCH  19  21
HETATM   21  O   LIG     1      25.083  22.414  21.907  1.00  0.00    -0.326 OA
HETATM   22  C   LIG     1      24.797  22.807  23.243  1.00  0.00     0.213 C 
ENDBRANCH  19  21
ENDBRANCH   7  19
TORSDOF 5
ENDMDL
MODEL 13
REMARK VINA RESULT:      -4.3     15.050     16.611
REMARK  5 active torsions:
REMARK  status: ('A' for Active; 'I' for Inactive)
REMARK    1  A    between atoms: C_7  and  C_8 
REMARK    2  A    between atoms: C_8  and  O_9 
REMARK    3  A    between atoms: C_12  and  O_13 
REMARK    4  A    between atoms: O_13  and  C_14 
REMARK    5  A    between atoms: C_14  and  C_15 
ROOT
HETATM    1  C   LIG     1      22.965  19.441  21.508  1.00  0.00     0.310 C 
HETATM    2  N   LIG     1      23.869  20.586  21.725  1.00  0.00     0.094 N 
HETATM    3  C   LIG     1      23.160  21.791  22.177  1.00  0.00     0.225 C 
HETATM    4  C   LIG     1      22.553  22.429  20.915  1.00  0.00     0.038 C 
HETATM    5  C   LIG     1      23.413  21.899  19.779  1.00  0.00     0.039 C 
HETATM    6  C   LIG     1      24.500  21.065  20.488  1.00  0.00     0.239 C 
HETATM    7  C   LIG     1      25.766  21.891  20.913  1.00  0.00     0.148 C 
HETATM    8  C   LIG     1      25.663  22.423  22.386  1.00  0.00     0.150 C 
HETATM    9  C   LIG     1      24.205  22.745  22.825  1.00  0.00     0.069 C 
ENDROOT
BRANCH   8  10
HETATM   10  O   LIG     1      26.516  23.556  22.579  1.00  0.00    -0.311 OA
BRANCH  10  11
HETATM   11  C   LIG     1      27.635  23.562  23.420  1.00  0.00     0.293 C 
HETATM   12  O   LIG     1      28.744  23.129  23.003  1.00  0.00    -0.259 OA
BRANCH  11  13
HETATM   13  C   LIG     1      27.511  24.088  24.796  1.00  0.00     0.039 A 
HETATM   14  C   LIG     1      28.596  24.733  25.421  1.00  0.00     0.017 A 
HETATM   15  C   LIG     1      28.470  25.224  26.724  1.00  0.00     0.001 A 
HETATM   16  C   LIG     1      27.267  25.077  27.416  1.00  0.00     0.000 A 
HETATM   17  C   LIG     1      26.184  24.438  26.807  1.00  0.00     0.001 A 
HETATM   18  C   LIG     1      26.303  23.946  25.503  1.00  0.00     0.017 A 
ENDBRANCH  11  13
ENDBRANCH  10  11
ENDBRANCH   8  10
BRANCH   7  19
HETATM   19  C   LIG     1      26.158  22.968  19.930  1.00  0.00     0.267 C 
HETATM   20  O   LIG     1      26.962  22.698  18.995  1.00  0.00    -0.265 OA
BRANCH  19  21
HETATM   21  O   LIG     1      25.642  24.261  20.068  1.00  0.00    -0.326 OA
HETATM   22  C   LIG     1      26.179  25.380  19.375  1.00  0.00     0.213 C 
ENDBRANCH  19  21
ENDBRANCH   7  19
TORSDOF 5
ENDMDL
MODEL 14
REMARK VINA RESULT:      -4.3     15.747     17.826
REMARK  5 active torsions:
REMARK  status: ('A' for Active; 'I' for Inactive)
REMARK    1  A    between atoms: C_7  and  C_8 
REMARK    2  A    between atoms: C_8  and  O_9 
REMARK    3  A    between atoms: C_12  and  O_13 
REMARK    4  A    between atoms: O_13  and  C_14 
REMARK    5  A    between atoms: C_14  and  C_15 
ROOT
HETATM    1  C   LIG     1      24.700  22.088  27.525  1.00  0.00     0.310 C 
HETATM    2  N   LIG     1      24.661  22.162  26.053  1.00  0.00     0.094 N 
HETATM    3  C   LIG     1      24.174  20.920  25.435  1.00  0.00     0.225 C 
HETATM    4  C   LIG     1      25.371  19.953  25.418  1.00  0.00     0.038 C 
HETATM    5  C   LIG     1      26.587  20.863  25.483  1.00  0.00     0.039 C 
HETATM    6  C   LIG     1      25.993  22.286  25.446  1.00  0.00     0.239 C 
HETATM    7  C   LIG     1      25.782  22.856  23.998  1.00  0.00     0.148 C 
HETATM    8  C   LIG     1      24.336  22.581  23.454  1.00  0.00     0.150 C 
HETATM    9  C   LIG     1      23.719  21.253  23.985  1.00  0.00     0.069 C 
ENDROOT
BRANCH   8  10
HETATM   10  O   LIG     1      24.314  22.617  22.024  1.00  0.00    -0.311 OA
BRANCH  10  11
HETATM   11  C   LIG     1      23.154  22.473  21.254  1.00  0.00     0.293 C 
HETATM   12  O   LIG     1      22.176  23.253  21.425  1.00  0.00    -0.259 OA
BRANCH  11  13
HETATM   13  C   LIG     1      23.084  21.406  20.231  1.00  0.00     0.039 A 
HETATM   14  C   LIG     1      22.919  21.725  18.870  1.00  0.00     0.017 A 
HETATM   15  C   LIG     1      22.851  20.709  17.911  1.00  0.00     0.001 A 
HETATM   16  C   LIG     1      22.946  19.371  18.298  1.00  0.00     0.000 A 
HETATM   17  C   LIG     1      23.109  19.044  19.646  1.00  0.00     0.001 A 
HETATM   18  C   LIG     1      23.179  20.055  20.610  1.00  0.00     0.017 A 
ENDBRANCH  11  13
ENDBRANCH  10  11
ENDBRANCH   8  10
BRANCH   7  19
HETATM   19  C   LIG     1      26.859  22.458  23.016  1.00  0.00     0.267 C 
HETATM   20  O   LIG     1      26.880  21.284  22.553  1.00  0.00    -0.265 OA
BRANCH  19  21
HETATM   21  O   LIG     1      27.836  23.386  22.637  1.00  0.00    -0.326 OA
HETATM   22  C   LIG     1      28.107  24.563  23.386  1.00  0.00     0.213 C 
ENDBRANCH  19  21
ENDBRANCH   7  19
TORSDOF 5
ENDMDL
MODEL 15
REMARK VINA RESULT:      -4.1     15.693     17.777
REMARK  5 active torsions:
REMARK  status: ('A' for Active; 'I' for Inactive)
REMARK    1  A    between atoms: C_7  and  C_8 
REMARK    2  A    between atoms: C_8  and  O_9 
REMARK    3  A    between atoms: C_12  and  O_13 
REMARK    4  A    between atoms: O_13  and  C_14 
REMARK    5  A    between atoms: C_14  and  C_15 
ROOT
HETATM    1  C   LIG     1      22.089  21.117  27.491  1.00  0.00     0.310 C 
HETATM    2  N   LIG     1      23.167  21.324  26.507  1.00  0.00     0.094 N 
HETATM    3  C   LIG     1      24.062  20.163  26.393  1.00  0.00     0.225 C 
HETATM    4  C   LIG     1      25.040  20.259  27.578  1.00  0.00     0.038 C 
HETATM    5  C   LIG     1      25.028  21.733  27.952  1.00  0.00     0.039 C 
HETATM    6  C   LIG     1      24.110  22.381  26.896  1.00  0.00     0.239 C 
HETATM    7  C   LIG     1      24.853  22.833  25.589  1.00  0.00     0.148 C 
HETATM    8  C   LIG     1      24.823  21.728  24.475  1.00  0.00     0.150 C 
HETATM    9  C   LIG     1      24.826  20.278  25.042  1.00  0.00     0.069 C 
ENDROOT
BRANCH   8  10
HETATM   10  O   LIG     1      25.894  21.913  23.544  1.00  0.00    -0.311 OA
BRANCH  10  11
HETATM   11  C   LIG     1      25.805  22.705  22.393  1.00  0.00     0.293 C 
HETATM   12  O   LIG     1      26.636  23.634  22.196  1.00  0.00    -0.259 OA
BRANCH  11  13
HETATM   13  C   LIG     1      24.739  22.439  21.404  1.00  0.00     0.039 A 
HETATM   14  C   LIG     1      25.004  21.685  20.244  1.00  0.00     0.017 A 
HETATM   15  C   LIG     1      23.990  21.442  19.313  1.00  0.00     0.001 A 
HETATM   16  C   LIG     1      22.706  21.946  19.526  1.00  0.00     0.000 A 
HETATM   17  C   LIG     1      22.432  22.696  20.673  1.00  0.00     0.001 A 
HETATM   18  C   LIG     1      23.442  22.942  21.608  1.00  0.00     0.017 A 
ENDBRANCH  11  13
ENDBRANCH  10  11
ENDBRANCH   8  10
BRANCH   7  19
HETATM   19  C   LIG     1      26.240  23.382  25.827  1.00  0.00     0.267 C 
HETATM   20  O   LIG     1      26.427  24.629  25.825  1.00  0.00    -0.265 OA
BRANCH  19  21
HETATM   21  O   LIG     1      27.312  22.506  26.034  1.00  0.00    -0.326 OA
HETATM   22  C   LIG     1      28.496  22.892  26.720  1.00  0.00     0.213 C 
ENDBRANCH  19  21
ENDBRANCH   7  19
TORSDOF 5
ENDMDL
MODEL 16
REMARK VINA RESULT:      -4.1     15.541     17.680
REMARK  5 active torsions:
REMARK  status: ('A' for Active; 'I' for Inactive)
REMARK    1  A    between atoms: C_7  and  C_8 
REMARK    2  A    between atoms: C_8  and  O_9 
REMARK    3  A    between atoms: C_12  and  O_13 
REMARK    4  A    between atoms: O_13  and  C_14 
REMARK    5  A    between atoms: C_14  and  C_15 
ROOT
HETATM    1  C   LIG     1      25.460  19.570  27.294  1.00  0.00     0.310 C 
HETATM    2  N   LIG     1      25.441  20.483  26.137  1.00  0.00     0.094 N 
HETATM    3  C   LIG     1      24.635  21.688  26.378  1.00  0.00     0.225 C 
HETATM    4  C   LIG     1      23.169  21.274  26.155  1.00  0.00     0.038 C 
HETATM    5  C   LIG     1      23.260  20.052  25.255  1.00  0.00     0.039 C 
HETATM    6  C   LIG     1      24.768  19.912  24.963  1.00  0.00     0.239 C 
HETATM    7  C   LIG     1      25.258  20.730  23.715  1.00  0.00     0.148 C 
HETATM    8  C   LIG     1      25.790  22.154  24.107  1.00  0.00     0.150 C 
HETATM    9  C   LIG     1      25.063  22.766  25.341  1.00  0.00     0.069 C 
ENDROOT
BRANCH   8  10
HETATM   10  O   LIG     1      25.734  23.045  22.989  1.00  0.00    -0.311 OA
BRANCH  10  11
HETATM   11  C   LIG     1      26.793  23.251  22.096  1.00  0.00     0.293 C 
HETATM   12  O   LIG     1      27.981  23.030  22.459  1.00  0.00    -0.259 OA
BRANCH  11  13
HETATM   13  C   LIG     1      26.509  23.721  20.723  1.00  0.00     0.039 A 
HETATM   14  C   LIG     1      25.913  22.865  19.778  1.00  0.00     0.017 A 
HETATM   15  C   LIG     1      25.652  23.318  18.481  1.00  0.00     0.001 A 
HETATM   16  C   LIG     1      25.982  24.623  18.113  1.00  0.00     0.000 A 
HETATM   17  C   LIG     1      26.575  25.481  19.043  1.00  0.00     0.001 A 
HETATM   18  C   LIG     1      26.838  25.035  20.342  1.00  0.00     0.017 A 
ENDBRANCH  11  13
ENDBRANCH  10  11
ENDBRANCH   8  10
BRANCH   7  19
HETATM   19  C   LIG     1      24.266  20.772  22.577  1.00  0.00     0.267 C 
HETATM   20  O   LIG     1      24.465  20.071  21.547  1.00  0.00    -0.265 OA
BRANCH  19  21
HETATM   21  O   LIG     1      23.139  21.597  22.663  1.00  0.00    -0.326 OA
HETATM   22  C   LIG     1      22.682  22.388  21.574  1.00  0.00     0.213 C 
ENDBRANCH  19  21
ENDBRANCH   7  19
TORSDOF 5
ENDMDL
MODEL 17
REMARK VINA RESULT:      -4.0     15.585     17.487
REMARK  5 active torsions:
REMARK  status: ('A' for Active; 'I' for Inactive)
REMARK    1  A    between atoms: C_7  and  C_8 
REMARK    2  A    between atoms: C_8  and  O_9 
REMARK    3  A    between atoms: C_12  and  O_13 
REMARK    4  A    between atoms: O_13  and  C_14 
REMARK    5  A    between atoms: C_14  and  C_15 
ROOT
HETATM    1  C   LIG     1      22.704  20.599  26.583  1.00  0.00     0.310 C 
HETATM    2  N   LIG     1      23.540  21.186  25.519  1.00  0.00     0.094 N 
HETATM    3  C   LIG     1      24.365  20.184  24.829  1.00  0.00     0.225 C 
HETATM    4  C   LIG     1      25.584  19.935  25.736  1.00  0.00     0.038 C 
HETATM    5  C   LIG     1      25.683  21.195  26.579  1.00  0.00     0.039 C 
HETATM    6  C   LIG     1      24.565  22.105  26.031  1.00  0.00     0.239 C 
HETATM    7  C   LIG     1      25.007  23.010  24.826  1.00  0.00     0.148 C 
HETATM    8  C   LIG     1      24.709  22.342  23.438  1.00  0.00     0.150 C 
HETATM    9  C   LIG     1      24.811  20.788  23.466  1.00  0.00     0.069 C 
ENDROOT
BRANCH   8  10
HETATM   10  O   LIG     1      25.549  22.889  22.417  1.00  0.00    -0.311 OA
BRANCH  10  11
HETATM   11  C   LIG     1      25.114  23.192  21.121  1.00  0.00     0.293 C 
HETATM   12  O   LIG     1      23.969  22.827  20.734  1.00  0.00    -0.259 OA
BRANCH  11  13
HETATM   13  C   LIG     1      25.999  23.952  20.213  1.00  0.00     0.039 A 
HETATM   14  C   LIG     1      26.952  24.854  20.724  1.00  0.00     0.017 A 
HETATM   15  C   LIG     1      27.782  25.570  19.856  1.00  0.00     0.001 A 
HETATM   16  C   LIG     1      27.672  25.396  18.476  1.00  0.00     0.000 A 
HETATM   17  C   LIG     1      26.730  24.504  17.958  1.00  0.00     0.001 A 
HETATM   18  C   LIG     1      25.897  23.784  18.820  1.00  0.00     0.017 A 
ENDBRANCH  11  13
ENDBRANCH  10  11
ENDBRANCH   8  10
BRANCH   7  19
HETATM   19  C   LIG     1      26.422  23.528  24.931  1.00  0.00     0.267 C 
HETATM   20  O   LIG     1      26.632  24.685  25.389  1.00  0.00    -0.265 OA
BRANCH  19  21
HETATM   21  O   LIG     1      27.491  22.730  24.508  1.00  0.00    -0.326 OA
HETATM   22  C   LIG     1      28.801  22.853  25.047  1.00  0.00     0.213 C 
ENDBRANCH  19  21
ENDBRANCH   7  19
TORSDOF 5
ENDMDL
MODEL 18
REMARK VINA RESULT:      -4.0     15.640     16.931
REMARK  5 active torsions:
REMARK  status: ('A' for Active; 'I' for Inactive)
REMARK    1  A    between atoms: C_7  and  C_8 
REMARK    2  A    between atoms: C_8  and  O_9 
REMARK    3  A    between atoms: C_12  and  O_13 
REMARK    4  A    between atoms: O_13  and  C_14 
REMARK    5  A    between atoms: C_14  and  C_15 
ROOT
HETATM    1  C   LIG     1      25.243  20.250  25.391  1.00  0.00     0.310 C 
HETATM    2  N   LIG     1      25.923  21.549  25.546  1.00  0.00     0.094 N 
HETATM    3  C   LIG     1      25.036  22.690  25.275  1.00  0.00     0.225 C 
HETATM    4  C   LIG     1      24.978  22.831  23.743  1.00  0.00     0.038 C 
HETATM    5  C   LIG     1      26.253  22.163  23.258  1.00  0.00     0.039 C 
HETATM    6  C   LIG     1      26.986  21.765  24.555  1.00  0.00     0.239 C 
HETATM    7  C   LIG     1      27.924  22.885  25.132  1.00  0.00     0.148 C 
HETATM    8  C   LIG     1      27.198  23.783  26.193  1.00  0.00     0.150 C 
HETATM    9  C   LIG     1      25.674  23.955  25.918  1.00  0.00     0.069 C 
ENDROOT
BRANCH   8  10
HETATM   10  O   LIG     1      27.841  25.056  26.311  1.00  0.00    -0.311 OA
BRANCH  10  11
HETATM   11  C   LIG     1      28.743  25.388  27.329  1.00  0.00     0.293 C 
HETATM   12  O   LIG     1      29.969  25.114  27.205  1.00  0.00    -0.259 OA
BRANCH  11  13
HETATM   13  C   LIG     1      28.252  26.070  28.546  1.00  0.00     0.039 A 
HETATM   14  C   LIG     1      28.491  27.443  28.747  1.00  0.00     0.017 A 
HETATM   15  C   LIG     1      28.025  28.078  29.903  1.00  0.00     0.001 A 
HETATM   16  C   LIG     1      27.321  27.354  30.866  1.00  0.00     0.000 A 
HETATM   17  C   LIG     1      27.079  25.991  30.677  1.00  0.00     0.001 A 
HETATM   18  C   LIG     1      27.541  25.350  29.523  1.00  0.00     0.017 A 
ENDBRANCH  11  13
ENDBRANCH  10  11
ENDBRANCH   8  10
BRANCH   7  19
HETATM   19  C   LIG     1      28.639  23.694  24.075  1.00  0.00     0.267 C 
HETATM   20  O   LIG     1      29.832  23.417  23.776  1.00  0.00    -0.265 OA
BRANCH  19  21
HETATM   21  O   LIG     1      27.979  24.755  23.444  1.00  0.00    -0.326 OA
HETATM   22  C   LIG     1      28.665  25.897  22.945  1.00  0.00     0.213 C 
ENDBRANCH  19  21
ENDBRANCH   7  19
TORSDOF 5
ENDMDL
MODEL 19
REMARK VINA RESULT:      -3.9     15.574     16.757
REMARK  5 active torsions:
REMARK  status: ('A' for Active; 'I' for Inactive)
REMARK    1  A    between atoms: C_7  and  C_8 
REMARK    2  A    between atoms: C_8  and  O_9 
REMARK    3  A    between atoms: C_12  and  O_13 
REMARK    4  A    between atoms: O_13  and  C_14 
REMARK    5  A    between atoms: C_14  and  C_15 
ROOT
HETATM    1  C   LIG     1      23.178  19.386  21.354  1.00  0.00     0.310 C 
HETATM    2  N   LIG     1      24.034  20.529  21.720  1.00  0.00     0.094 N 
HETATM    3  C   LIG     1      23.286  21.613  22.372  1.00  0.00     0.225 C 
HETATM    4  C   LIG     1      22.605  22.404  21.240  1.00  0.00     0.038 C 
HETATM    5  C   LIG     1      23.449  22.098  20.013  1.00  0.00     0.039 C 
HETATM    6  C   LIG     1      24.598  21.224  20.555  1.00  0.00     0.239 C 
HETATM    7  C   LIG     1      25.838  22.039  21.067  1.00  0.00     0.148 C 
HETATM    8  C   LIG     1      25.762  22.335  22.606  1.00  0.00     0.150 C 
HETATM    9  C   LIG     1      24.306  22.510  23.130  1.00  0.00     0.069 C 
ENDROOT
BRANCH   8  10
HETATM   10  O   LIG     1      26.566  23.468  22.948  1.00  0.00    -0.311 OA
BRANCH  10  11
HETATM   11  C   LIG     1      27.127  23.680  24.213  1.00  0.00     0.293 C 
HETATM   12  O   LIG     1      26.859  22.896  25.165  1.00  0.00    -0.259 OA
BRANCH  11  13
HETATM   13  C   LIG     1      28.041  24.823  24.425  1.00  0.00     0.039 A 
HETATM   14  C   LIG     1      28.437  25.637  23.346  1.00  0.00     0.017 A 
HETATM   15  C   LIG     1      29.305  26.713  23.556  1.00  0.00     0.001 A 
HETATM   16  C   LIG     1      29.786  26.988  24.837  1.00  0.00     0.000 A 
HETATM   17  C   LIG     1      29.400  26.186  25.915  1.00  0.00     0.001 A 
HETATM   18  C   LIG     1      28.531  25.109  25.712  1.00  0.00     0.017 A 
ENDBRANCH  11  13
ENDBRANCH  10  11
ENDBRANCH   8  10
BRANCH   7  19
HETATM   19  C   LIG     1      26.144  23.273  20.251  1.00  0.00     0.267 C 
HETATM   20  O   LIG     1      25.439  24.309  20.395  1.00  0.00    -0.265 OA
BRANCH  19  21
HETATM   21  O   LIG     1      27.197  23.256  19.329  1.00  0.00    -0.326 OA
HETATM   22  C   LIG     1      28.270  22.326  19.406  1.00  0.00     0.213 C 
ENDBRANCH  19  21
ENDBRANCH   7  19
TORSDOF 5
ENDMDL
