MODEL 1
REMARK VINA RESULT:      -9.0      0.000      0.000
REMARK  5 active torsions:
REMARK  status: ('A' for Active; 'I' for Inactive)
REMARK    1  A    between atoms: C_3  and  C_4 
REMARK    2  A    between atoms: C_4  and  C_5 
REMARK    3  A    between atoms: C_5  and  C_6 
REMARK    4  A    between atoms: N_8  and  C_9 
REMARK    5  A    between atoms: N_15  and  C_16 
ROOT
HETATM    1  O   LIG     1      16.836  35.500  18.182  1.00  0.00    -0.270 OA
HETATM    2  C   LIG     1      16.462  35.338  19.375  1.00  0.00     0.257 A 
HETATM    3  C   LIG     1      15.266  34.526  19.786  1.00  0.00     0.174 A 
HETATM    4  N   LIG     1      17.067  36.003  20.482  1.00  0.00    -0.214 N 
HETATM    5  N   LIG     1      16.303  35.734  21.624  1.00  0.00    -0.214 N 
HETATM    6  C   LIG     1      15.235  34.868  21.247  1.00  0.00     0.257 A 
HETATM    7  O   LIG     1      14.380  34.424  22.060  1.00  0.00    -0.270 OA
ENDROOT
BRANCH   4   8
HETATM    8  C   LIG     1      18.048  37.052  20.375  1.00  0.00     0.060 A 
HETATM    9  C   LIG     1      17.829  38.288  21.001  1.00  0.00     0.031 A 
HETATM   10  C   LIG     1      18.777  39.312  20.892  1.00  0.00     0.002 A 
HETATM   11  C   LIG     1      19.948  39.105  20.159  1.00  0.00     0.000 A 
HETATM   12  C   LIG     1      20.175  37.875  19.536  1.00  0.00     0.002 A 
HETATM   13  C   LIG     1      19.230  36.850  19.644  1.00  0.00     0.031 A 
ENDBRANCH   4   8
BRANCH   5  14
HETATM   14  C   LIG     1      16.737  35.961  22.976  1.00  0.00     0.060 A 
HETATM   15  C   LIG     1      17.225  34.895  23.750  1.00  0.00     0.031 A 
HETATM   16  C   LIG     1      17.639  35.113  25.068  1.00  0.00     0.002 A 
HETATM   17  C   LIG     1      17.572  36.395  25.620  1.00  0.00     0.000 A 
HETATM   18  C   LIG     1      17.092  37.461  24.855  1.00  0.00     0.002 A 
HETATM   19  C   LIG     1      16.677  37.247  23.538  1.00  0.00     0.031 A 
ENDBRANCH   5  14
BRANCH   3  20
HETATM   20  C   LIG     1      15.478  33.014  19.578  1.00  0.00     0.024 C 
BRANCH  20  21
HETATM   21  C   LIG     1      15.229  32.592  18.121  1.00  0.00     0.001 C 
BRANCH  21  22
HETATM   22  C   LIG     1      14.120  31.536  17.995  1.00  0.00    -0.005 C 
HETATM   23  C   LIG     1      13.769  31.215  16.542  1.00  0.00     0.005 C 
ENDBRANCH  21  22
ENDBRANCH  20  21
ENDBRANCH   3  20
TORSDOF 5
ENDMDL
MODEL 2
REMARK VINA RESULT:      -6.8      3.694      8.857
REMARK  5 active torsions:
REMARK  status: ('A' for Active; 'I' for Inactive)
REMARK    1  A    between atoms: C_3  and  C_4 
REMARK    2  A    between atoms: C_4  and  C_5 
REMARK    3  A    between atoms: C_5  and  C_6 
REMARK    4  A    between atoms: N_8  and  C_9 
REMARK    5  A    between atoms: N_15  and  C_16 
ROOT
HETATM    1  O   LIG     1      13.701  30.779  18.153  1.00  0.00    -0.270 OA
HETATM    2  C   LIG     1      14.426  31.661  17.620  1.00  0.00     0.257 A 
HETATM    3  C   LIG     1      14.712  33.006  18.227  1.00  0.00     0.174 A 
HETATM    4  N   LIG     1      14.978  31.533  16.310  1.00  0.00    -0.214 N 
HETATM    5  N   LIG     1      15.576  32.753  15.969  1.00  0.00    -0.214 N 
HETATM    6  C   LIG     1      15.435  33.640  17.075  1.00  0.00     0.257 A 
HETATM    7  O   LIG     1      15.892  34.816  17.086  1.00  0.00    -0.270 OA
ENDROOT
BRANCH   4   8
HETATM    8  C   LIG     1      14.652  30.486  15.379  1.00  0.00     0.060 A 
HETATM    9  C   LIG     1      13.311  30.195  15.085  1.00  0.00     0.031 A 
HETATM   10  C   LIG     1      12.991  29.172  14.187  1.00  0.00     0.002 A 
HETATM   11  C   LIG     1      14.008  28.434  13.576  1.00  0.00     0.000 A 
HETATM   12  C   LIG     1      15.346  28.720  13.860  1.00  0.00     0.002 A 
HETATM   13  C   LIG     1      15.669  29.743  14.757  1.00  0.00     0.031 A 
ENDBRANCH   4   8
BRANCH   5  14
HETATM   14  C   LIG     1      16.495  32.940  14.877  1.00  0.00     0.060 A 
HETATM   15  C   LIG     1      16.063  32.769  13.553  1.00  0.00     0.031 A 
HETATM   16  C   LIG     1      16.958  32.942  12.491  1.00  0.00     0.002 A 
HETATM   17  C   LIG     1      18.287  33.290  12.746  1.00  0.00     0.000 A 
HETATM   18  C   LIG     1      18.724  33.466  14.062  1.00  0.00     0.002 A 
HETATM   19  C   LIG     1      17.832  33.293  15.124  1.00  0.00     0.031 A 
ENDBRANCH   5  14
BRANCH   3  20
HETATM   20  C   LIG     1      15.622  32.914  19.466  1.00  0.00     0.024 C 
BRANCH  20  21
HETATM   21  C   LIG     1      14.860  33.219  20.766  1.00  0.00     0.001 C 
BRANCH  21  22
HETATM   22  C   LIG     1      15.175  34.617  21.320  1.00  0.00    -0.005 C 
HETATM   23  C   LIG     1      16.436  35.228  20.709  1.00  0.00     0.005 C 
ENDBRANCH  21  22
ENDBRANCH  20  21
ENDBRANCH   3  20
TORSDOF 5
ENDMDL
