MODEL 1
REMARK VINA RESULT:      -7.0      0.000      0.000
REMARK  0 active torsions:
REMARK  status: ('A' for Active; 'I' for Inactive)
ROOT
HETATM    1  C   LIG     1      17.917  36.956  22.134  1.00  0.00    -0.003 A 
HETATM    2  C   LIG     1      18.240  37.683  20.962  1.00  0.00    -0.004 A 
HETATM    3  C   LIG     1      18.879  38.936  21.060  1.00  0.00    -0.024 A 
HETATM    4  C   LIG     1      19.196  39.651  19.895  1.00  0.00     0.012 A 
HETATM    5  C   LIG     1      18.881  39.125  18.640  1.00  0.00     0.002 A 
HETATM    6  C   LIG     1      18.249  37.884  18.533  1.00  0.00     0.012 A 
HETATM    7  C   LIG     1      17.924  37.155  19.687  1.00  0.00    -0.024 A 
HETATM    8  C   LIG     1      17.291  35.911  19.589  1.00  0.00     0.013 A 
HETATM    9  C   LIG     1      16.971  35.191  20.740  1.00  0.00     0.013 A 
HETATM   10  C   LIG     1      17.278  35.703  22.011  1.00  0.00    -0.023 A 
HETATM   11  C   LIG     1      16.953  34.972  23.155  1.00  0.00     0.024 A 
HETATM   12  C   LIG     1      17.251  35.467  24.428  1.00  0.00    -0.024 A 
HETATM   13  C   LIG     1      17.894  36.727  24.583  1.00  0.00    -0.015 A 
HETATM   14  C   LIG     1      18.170  37.172  25.900  1.00  0.00     0.013 A 
HETATM   15  C   LIG     1      17.820  36.398  27.008  1.00  0.00     0.001 A 
HETATM   16  C   LIG     1      17.191  35.168  26.838  1.00  0.00     0.001 A 
HETATM   17  C   LIG     1      16.907  34.703  25.556  1.00  0.00     0.012 A 
HETATM   18  C   LIG     1      18.233  37.483  23.417  1.00  0.00    -0.013 A 
HETATM   19  C   LIG     1      18.874  38.745  23.479  1.00  0.00     0.014 A 
HETATM   20  C   LIG     1      19.189  39.455  22.319  1.00  0.00     0.013 A 
ENDROOT
TORSDOF 0
ENDMDL
MODEL 2
REMARK VINA RESULT:      -6.6      7.437     11.050
REMARK  0 active torsions:
REMARK  status: ('A' for Active; 'I' for Inactive)
ROOT
HETATM    1  C   LIG     1      16.070  32.587  14.750  1.00  0.00    -0.003 A 
HETATM    2  C   LIG     1      14.970  31.931  15.355  1.00  0.00    -0.004 A 
HETATM    3  C   LIG     1      14.430  30.768  14.768  1.00  0.00    -0.024 A 
HETATM    4  C   LIG     1      13.340  30.123  15.374  1.00  0.00     0.012 A 
HETATM    5  C   LIG     1      12.791  30.628  16.554  1.00  0.00     0.002 A 
HETATM    6  C   LIG     1      13.320  31.779  17.142  1.00  0.00     0.012 A 
HETATM    7  C   LIG     1      14.409  32.438  16.551  1.00  0.00    -0.024 A 
HETATM    8  C   LIG     1      14.945  33.592  17.134  1.00  0.00     0.013 A 
HETATM    9  C   LIG     1      16.028  34.242  16.542  1.00  0.00     0.013 A 
HETATM   10  C   LIG     1      16.594  33.750  15.355  1.00  0.00    -0.023 A 
HETATM   11  C   LIG     1      17.677  34.410  14.773  1.00  0.00     0.024 A 
HETATM   12  C   LIG     1      18.253  33.934  13.591  1.00  0.00    -0.024 A 
HETATM   13  C   LIG     1      17.746  32.765  12.958  1.00  0.00    -0.015 A 
HETATM   14  C   LIG     1      18.374  32.333  11.763  1.00  0.00     0.013 A 
HETATM   15  C   LIG     1      19.455  33.035  11.227  1.00  0.00     0.001 A 
HETATM   16  C   LIG     1      19.939  34.177  11.859  1.00  0.00     0.001 A 
HETATM   17  C   LIG     1      19.342  34.626  13.036  1.00  0.00     0.012 A 
HETATM   18  C   LIG     1      16.636  32.080  13.547  1.00  0.00    -0.013 A 
HETATM   19  C   LIG     1      16.069  30.910  12.984  1.00  0.00     0.014 A 
HETATM   20  C   LIG     1      14.985  30.269  13.588  1.00  0.00     0.013 A 
ENDROOT
TORSDOF 0
ENDMDL
MODEL 3
REMARK VINA RESULT:      -6.5     15.936     16.931
REMARK  0 active torsions:
REMARK  status: ('A' for Active; 'I' for Inactive)
ROOT
HETATM    1  C   LIG     1      28.227  29.200  32.746  1.00  0.00    -0.003 A 
HETATM    2  C   LIG     1      28.177  28.458  31.541  1.00  0.00    -0.004 A 
HETATM    3  C   LIG     1      27.276  27.382  31.410  1.00  0.00    -0.024 A 
HETATM    4  C   LIG     1      27.232  26.651  30.212  1.00  0.00     0.012 A 
HETATM    5  C   LIG     1      28.077  26.986  29.152  1.00  0.00     0.002 A 
HETATM    6  C   LIG     1      28.973  28.050  29.274  1.00  0.00     0.012 A 
HETATM    7  C   LIG     1      29.031  28.792  30.464  1.00  0.00    -0.024 A 
HETATM    8  C   LIG     1      29.926  29.861  30.594  1.00  0.00     0.013 A 
HETATM    9  C   LIG     1      29.979  30.595  31.779  1.00  0.00     0.013 A 
HETATM   10  C   LIG     1      29.138  30.273  32.856  1.00  0.00    -0.023 A 
HETATM   11  C   LIG     1      29.200  31.016  34.035  1.00  0.00     0.024 A 
HETATM   12  C   LIG     1      28.370  30.710  35.118  1.00  0.00    -0.024 A 
HETATM   13  C   LIG     1      27.443  29.633  35.037  1.00  0.00    -0.015 A 
HETATM   14  C   LIG     1      26.629  29.374  36.168  1.00  0.00     0.013 A 
HETATM   15  C   LIG     1      26.736  30.152  37.324  1.00  0.00     0.001 A 
HETATM   16  C   LIG     1      27.649  31.201  37.385  1.00  0.00     0.001 A 
HETATM   17  C   LIG     1      28.463  31.480  36.289  1.00  0.00     0.012 A 
HETATM   18  C   LIG     1      27.370  28.866  33.832  1.00  0.00    -0.013 A 
HETATM   19  C   LIG     1      26.476  27.779  33.666  1.00  0.00     0.014 A 
HETATM   20  C   LIG     1      26.434  27.053  32.474  1.00  0.00     0.013 A 
ENDROOT
TORSDOF 0
ENDMDL
MODEL 4
REMARK VINA RESULT:      -6.4     15.887     16.585
REMARK  0 active torsions:
REMARK  status: ('A' for Active; 'I' for Inactive)
ROOT
HETATM    1  C   LIG     1      28.076  28.884  32.480  1.00  0.00    -0.003 A 
HETATM    2  C   LIG     1      28.529  28.645  31.159  1.00  0.00    -0.004 A 
HETATM    3  C   LIG     1      29.507  29.483  30.585  1.00  0.00    -0.024 A 
HETATM    4  C   LIG     1      29.952  29.240  29.276  1.00  0.00     0.012 A 
HETATM    5  C   LIG     1      29.430  28.173  28.542  1.00  0.00     0.002 A 
HETATM    6  C   LIG     1      28.461  27.339  29.103  1.00  0.00     0.012 A 
HETATM    7  C   LIG     1      28.004  27.566  30.410  1.00  0.00    -0.024 A 
HETATM    8  C   LIG     1      27.033  26.734  30.980  1.00  0.00     0.013 A 
HETATM    9  C   LIG     1      26.583  26.965  32.280  1.00  0.00     0.013 A 
HETATM   10  C   LIG     1      27.095  28.032  33.034  1.00  0.00    -0.023 A 
HETATM   11  C   LIG     1      26.637  28.251  34.334  1.00  0.00     0.024 A 
HETATM   12  C   LIG     1      27.136  29.310  35.099  1.00  0.00    -0.024 A 
HETATM   13  C   LIG     1      28.124  30.185  34.566  1.00  0.00    -0.015 A 
HETATM   14  C   LIG     1      28.590  31.239  35.392  1.00  0.00     0.013 A 
HETATM   15  C   LIG     1      28.093  31.410  36.686  1.00  0.00     0.001 A 
HETATM   16  C   LIG     1      27.127  30.544  37.191  1.00  0.00     0.001 A 
HETATM   17  C   LIG     1      26.649  29.499  36.403  1.00  0.00     0.012 A 
HETATM   18  C   LIG     1      28.601  29.968  33.236  1.00  0.00    -0.013 A 
HETATM   19  C   LIG     1      29.583  30.790  32.628  1.00  0.00     0.014 A 
HETATM   20  C   LIG     1      30.025  30.548  31.326  1.00  0.00     0.013 A 
ENDROOT
TORSDOF 0
ENDMDL
MODEL 5
REMARK VINA RESULT:      -6.2     15.441     16.942
REMARK  0 active torsions:
REMARK  status: ('A' for Active; 'I' for Inactive)
ROOT
HETATM    1  C   LIG     1      25.726  22.982  20.174  1.00  0.00    -0.003 A 
HETATM    2  C   LIG     1      26.624  23.828  20.870  1.00  0.00    -0.004 A 
HETATM    3  C   LIG     1      27.009  23.518  22.190  1.00  0.00    -0.024 A 
HETATM    4  C   LIG     1      27.901  24.361  22.873  1.00  0.00     0.012 A 
HETATM    5  C   LIG     1      28.407  25.503  22.249  1.00  0.00     0.002 A 
HETATM    6  C   LIG     1      28.031  25.817  20.940  1.00  0.00     0.012 A 
HETATM    7  C   LIG     1      27.141  24.987  20.243  1.00  0.00    -0.024 A 
HETATM    8  C   LIG     1      26.760  25.294  18.931  1.00  0.00     0.013 A 
HETATM    9  C   LIG     1      25.874  24.465  18.242  1.00  0.00     0.013 A 
HETATM   10  C   LIG     1      25.354  23.312  18.853  1.00  0.00    -0.023 A 
HETATM   11  C   LIG     1      24.470  22.490  18.152  1.00  0.00     0.024 A 
HETATM   12  C   LIG     1      23.942  21.339  18.745  1.00  0.00    -0.024 A 
HETATM   13  C   LIG     1      24.298  20.982  20.075  1.00  0.00    -0.015 A 
HETATM   14  C   LIG     1      23.730  19.802  20.619  1.00  0.00     0.013 A 
HETATM   15  C   LIG     1      22.849  19.019  19.870  1.00  0.00     0.001 A 
HETATM   16  C   LIG     1      22.512  19.384  18.570  1.00  0.00     0.001 A 
HETATM   17  C   LIG     1      23.055  20.537  18.008  1.00  0.00     0.012 A 
HETATM   18  C   LIG     1      25.204  21.816  20.802  1.00  0.00    -0.013 A 
HETATM   19  C   LIG     1      25.612  21.536  22.129  1.00  0.00     0.014 A 
HETATM   20  C   LIG     1      26.499  22.374  22.807  1.00  0.00     0.013 A 
ENDROOT
TORSDOF 0
ENDMDL
MODEL 6
REMARK VINA RESULT:      -6.2     16.055     16.307
REMARK  0 active torsions:
REMARK  status: ('A' for Active; 'I' for Inactive)
ROOT
HETATM    1  C   LIG     1      25.365  22.821  21.940  1.00  0.00    -0.003 A 
HETATM    2  C   LIG     1      24.760  22.527  20.694  1.00  0.00    -0.004 A 
HETATM    3  C   LIG     1      23.476  21.946  20.650  1.00  0.00    -0.024 A 
HETATM    4  C   LIG     1      22.883  21.657  19.411  1.00  0.00     0.012 A 
HETATM    5  C   LIG     1      23.559  21.943  18.223  1.00  0.00     0.002 A 
HETATM    6  C   LIG     1      24.831  22.519  18.258  1.00  0.00     0.012 A 
HETATM    7  C   LIG     1      25.440  22.815  19.486  1.00  0.00    -0.024 A 
HETATM    8  C   LIG     1      26.715  23.393  19.529  1.00  0.00     0.013 A 
HETATM    9  C   LIG     1      27.315  23.684  20.754  1.00  0.00     0.013 A 
HETATM   10  C   LIG     1      26.652  23.403  21.959  1.00  0.00    -0.023 A 
HETATM   11  C   LIG     1      27.263  23.701  23.177  1.00  0.00     0.024 A 
HETATM   12  C   LIG     1      26.617  23.428  24.387  1.00  0.00    -0.024 A 
HETATM   13  C   LIG     1      25.321  22.841  24.399  1.00  0.00    -0.015 A 
HETATM   14  C   LIG     1      24.719  22.590  25.658  1.00  0.00     0.013 A 
HETATM   15  C   LIG     1      25.380  22.908  26.846  1.00  0.00     0.001 A 
HETATM   16  C   LIG     1      26.648  23.482  26.815  1.00  0.00     0.001 A 
HETATM   17  C   LIG     1      27.265  23.741  25.593  1.00  0.00     0.012 A 
HETATM   18  C   LIG     1      24.684  22.533  23.156  1.00  0.00    -0.013 A 
HETATM   19  C   LIG     1      23.396  21.949  23.075  1.00  0.00     0.014 A 
HETATM   20  C   LIG     1      22.807  21.662  21.842  1.00  0.00     0.013 A 
ENDROOT
TORSDOF 0
ENDMDL
MODEL 7
REMARK VINA RESULT:      -6.0     16.038     17.671
REMARK  0 active torsions:
REMARK  status: ('A' for Active; 'I' for Inactive)
ROOT
HETATM    1  C   LIG     1      24.360  21.777  23.281  1.00  0.00    -0.003 A 
HETATM    2  C   LIG     1      24.134  21.444  24.639  1.00  0.00    -0.004 A 
HETATM    3  C   LIG     1      23.157  20.487  24.980  1.00  0.00    -0.024 A 
HETATM    4  C   LIG     1      22.939  20.161  26.328  1.00  0.00     0.012 A 
HETATM    5  C   LIG     1      23.686  20.781  27.331  1.00  0.00     0.002 A 
HETATM    6  C   LIG     1      24.657  21.730  27.002  1.00  0.00     0.012 A 
HETATM    7  C   LIG     1      24.889  22.069  25.660  1.00  0.00    -0.024 A 
HETATM    8  C   LIG     1      25.861  23.018  25.323  1.00  0.00     0.013 A 
HETATM    9  C   LIG     1      26.086  23.350  23.987  1.00  0.00     0.013 A 
HETATM   10  C   LIG     1      25.345  22.739  22.964  1.00  0.00    -0.023 A 
HETATM   11  C   LIG     1      25.581  23.079  21.631  1.00  0.00     0.024 A 
HETATM   12  C   LIG     1      24.851  22.480  20.600  1.00  0.00    -0.024 A 
HETATM   13  C   LIG     1      23.853  21.508  20.890  1.00  0.00    -0.015 A 
HETATM   14  C   LIG     1      23.149  20.937  19.800  1.00  0.00     0.013 A 
HETATM   15  C   LIG     1      23.428  21.318  18.486  1.00  0.00     0.001 A 
HETATM   16  C   LIG     1      24.408  22.270  18.221  1.00  0.00     0.001 A 
HETATM   17  C   LIG     1      25.118  22.849  19.271  1.00  0.00     0.012 A 
HETATM   18  C   LIG     1      23.603  21.151  22.252  1.00  0.00    -0.013 A 
HETATM   19  C   LIG     1      22.629  20.194  22.629  1.00  0.00     0.014 A 
HETATM   20  C   LIG     1      22.413  19.871  23.971  1.00  0.00     0.013 A 
ENDROOT
TORSDOF 0
ENDMDL
MODEL 8
REMARK VINA RESULT:      -6.0     17.344     19.757
REMARK  0 active torsions:
REMARK  status: ('A' for Active; 'I' for Inactive)
ROOT
HETATM    1  C   LIG     1      20.832  20.885  33.381  1.00  0.00    -0.003 A 
HETATM    2  C   LIG     1      20.202  20.634  32.138  1.00  0.00    -0.004 A 
HETATM    3  C   LIG     1      19.526  21.672  31.465  1.00  0.00    -0.024 A 
HETATM    4  C   LIG     1      18.904  21.416  30.233  1.00  0.00     0.012 A 
HETATM    5  C   LIG     1      18.953  20.138  29.673  1.00  0.00     0.002 A 
HETATM    6  C   LIG     1      19.621  19.104  30.333  1.00  0.00     0.012 A 
HETATM    7  C   LIG     1      20.248  19.341  31.565  1.00  0.00    -0.024 A 
HETATM    8  C   LIG     1      20.920  18.310  32.232  1.00  0.00     0.013 A 
HETATM    9  C   LIG     1      21.542  18.552  33.457  1.00  0.00     0.013 A 
HETATM   10  C   LIG     1      21.503  19.830  34.037  1.00  0.00    -0.023 A 
HETATM   11  C   LIG     1      22.130  20.059  35.263  1.00  0.00     0.024 A 
HETATM   12  C   LIG     1      22.102  21.326  35.855  1.00  0.00    -0.024 A 
HETATM   13  C   LIG     1      21.433  22.408  35.217  1.00  0.00    -0.015 A 
HETATM   14  C   LIG     1      21.440  23.667  35.868  1.00  0.00     0.013 A 
HETATM   15  C   LIG     1      22.085  23.836  37.096  1.00  0.00     0.001 A 
HETATM   16  C   LIG     1      22.734  22.767  37.705  1.00  0.00     0.001 A 
HETATM   17  C   LIG     1      22.744  21.517  37.089  1.00  0.00     0.012 A 
HETATM   18  C   LIG     1      20.788  22.184  33.960  1.00  0.00    -0.013 A 
HETATM   19  C   LIG     1      20.100  23.204  33.257  1.00  0.00     0.014 A 
HETATM   20  C   LIG     1      19.481  22.948  32.032  1.00  0.00     0.013 A 
ENDROOT
TORSDOF 0
ENDMDL
MODEL 9
REMARK VINA RESULT:      -5.9     15.939     16.166
REMARK  0 active torsions:
REMARK  status: ('A' for Active; 'I' for Inactive)
ROOT
HETATM    1  C   LIG     1      28.305  27.339  30.056  1.00  0.00    -0.003 A 
HETATM    2  C   LIG     1      28.860  27.205  28.760  1.00  0.00    -0.004 A 
HETATM    3  C   LIG     1      29.759  28.176  28.272  1.00  0.00    -0.024 A 
HETATM    4  C   LIG     1      30.306  28.037  26.986  1.00  0.00     0.012 A 
HETATM    5  C   LIG     1      29.963  26.942  26.191  1.00  0.00     0.002 A 
HETATM    6  C   LIG     1      29.074  25.975  26.667  1.00  0.00     0.012 A 
HETATM    7  C   LIG     1      28.517  26.097  27.949  1.00  0.00    -0.024 A 
HETATM    8  C   LIG     1      27.626  25.133  28.433  1.00  0.00     0.013 A 
HETATM    9  C   LIG     1      27.075  25.260  29.709  1.00  0.00     0.013 A 
HETATM   10  C   LIG     1      27.407  26.354  30.524  1.00  0.00    -0.023 A 
HETATM   11  C   LIG     1      26.850  26.469  31.798  1.00  0.00     0.024 A 
HETATM   12  C   LIG     1      27.169  27.552  32.623  1.00  0.00    -0.024 A 
HETATM   13  C   LIG     1      28.070  28.560  32.178  1.00  0.00    -0.015 A 
HETATM   14  C   LIG     1      28.353  29.632  33.061  1.00  0.00     0.013 A 
HETATM   15  C   LIG     1      27.765  29.694  34.326  1.00  0.00     0.001 A 
HETATM   16  C   LIG     1      26.885  28.700  34.745  1.00  0.00     0.001 A 
HETATM   17  C   LIG     1      26.588  27.633  33.899  1.00  0.00     0.012 A 
HETATM   18  C   LIG     1      28.647  28.451  30.874  1.00  0.00    -0.013 A 
HETATM   19  C   LIG     1      29.553  29.408  30.352  1.00  0.00     0.014 A 
HETATM   20  C   LIG     1      30.096  29.269  29.073  1.00  0.00     0.013 A 
ENDROOT
TORSDOF 0
ENDMDL
MODEL 10
REMARK VINA RESULT:      -5.9     15.990     16.830
REMARK  0 active torsions:
REMARK  status: ('A' for Active; 'I' for Inactive)
ROOT
HETATM    1  C   LIG     1      25.541  23.032  20.572  1.00  0.00    -0.003 A 
HETATM    2  C   LIG     1      24.739  22.321  21.497  1.00  0.00    -0.004 A 
HETATM    3  C   LIG     1      25.077  22.312  22.866  1.00  0.00    -0.024 A 
HETATM    4  C   LIG     1      24.277  21.606  23.778  1.00  0.00     0.012 A 
HETATM    5  C   LIG     1      23.148  20.913  23.334  1.00  0.00     0.002 A 
HETATM    6  C   LIG     1      22.806  20.918  21.979  1.00  0.00     0.012 A 
HETATM    7  C   LIG     1      23.594  21.618  21.054  1.00  0.00    -0.024 A 
HETATM    8  C   LIG     1      23.257  21.627  19.695  1.00  0.00     0.013 A 
HETATM    9  C   LIG     1      24.045  22.325  18.779  1.00  0.00     0.013 A 
HETATM   10  C   LIG     1      25.183  23.027  19.205  1.00  0.00    -0.023 A 
HETATM   11  C   LIG     1      25.962  23.722  18.279  1.00  0.00     0.024 A 
HETATM   12  C   LIG     1      27.100  24.426  18.686  1.00  0.00    -0.024 A 
HETATM   13  C   LIG     1      27.485  24.448  20.056  1.00  0.00    -0.015 A 
HETATM   14  C   LIG     1      28.648  25.180  20.405  1.00  0.00     0.013 A 
HETATM   15  C   LIG     1      29.389  25.856  19.433  1.00  0.00     0.001 A 
HETATM   16  C   LIG     1      28.997  25.823  18.098  1.00  0.00     0.001 A 
HETATM   17  C   LIG     1      27.858  25.112  17.724  1.00  0.00     0.012 A 
HETATM   18  C   LIG     1      26.693  23.740  21.014  1.00  0.00    -0.013 A 
HETATM   19  C   LIG     1      27.004  23.709  22.396  1.00  0.00     0.014 A 
HETATM   20  C   LIG     1      26.207  23.007  23.302  1.00  0.00     0.013 A 
ENDROOT
TORSDOF 0
ENDMDL
MODEL 11
REMARK VINA RESULT:      -5.9     15.798     17.632
REMARK  0 active torsions:
REMARK  status: ('A' for Active; 'I' for Inactive)
ROOT
HETATM    1  C   LIG     1      24.818  21.545  20.355  1.00  0.00    -0.003 A 
HETATM    2  C   LIG     1      23.964  20.435  20.145  1.00  0.00    -0.004 A 
HETATM    3  C   LIG     1      23.248  20.313  18.936  1.00  0.00    -0.024 A 
HETATM    4  C   LIG     1      22.403  19.210  18.734  1.00  0.00     0.012 A 
HETATM    5  C   LIG     1      22.270  18.235  19.726  1.00  0.00     0.002 A 
HETATM    6  C   LIG     1      22.976  18.348  20.925  1.00  0.00     0.012 A 
HETATM    7  C   LIG     1      23.825  19.444  21.145  1.00  0.00    -0.024 A 
HETATM    8  C   LIG     1      24.536  19.564  22.345  1.00  0.00     0.013 A 
HETATM    9  C   LIG     1      25.379  20.656  22.557  1.00  0.00     0.013 A 
HETATM   10  C   LIG     1      25.525  21.647  21.574  1.00  0.00    -0.023 A 
HETATM   11  C   LIG     1      26.372  22.733  21.798  1.00  0.00     0.024 A 
HETATM   12  C   LIG     1      26.530  23.729  20.830  1.00  0.00    -0.024 A 
HETATM   13  C   LIG     1      25.830  23.653  19.593  1.00  0.00    -0.015 A 
HETATM   14  C   LIG     1      26.033  24.694  18.652  1.00  0.00     0.013 A 
HETATM   15  C   LIG     1      26.893  25.758  18.933  1.00  0.00     0.001 A 
HETATM   16  C   LIG     1      27.570  25.815  20.148  1.00  0.00     0.001 A 
HETATM   17  C   LIG     1      27.391  24.807  21.093  1.00  0.00     0.012 A 
HETATM   18  C   LIG     1      24.960  22.543  19.352  1.00  0.00    -0.013 A 
HETATM   19  C   LIG     1      24.226  22.389  18.150  1.00  0.00     0.014 A 
HETATM   20  C   LIG     1      23.386  21.292  17.950  1.00  0.00     0.013 A 
ENDROOT
TORSDOF 0
ENDMDL
MODEL 12
REMARK VINA RESULT:      -5.9     16.048     16.295
REMARK  0 active torsions:
REMARK  status: ('A' for Active; 'I' for Inactive)
ROOT
HETATM    1  C   LIG     1      25.256  22.774  21.925  1.00  0.00    -0.003 A 
HETATM    2  C   LIG     1      24.682  22.466  20.667  1.00  0.00    -0.004 A 
HETATM    3  C   LIG     1      25.322  22.873  19.478  1.00  0.00    -0.024 A 
HETATM    4  C   LIG     1      24.747  22.564  18.236  1.00  0.00     0.012 A 
HETATM    5  C   LIG     1      23.545  21.855  18.173  1.00  0.00     0.002 A 
HETATM    6  C   LIG     1      22.905  21.447  19.346  1.00  0.00     0.012 A 
HETATM    7  C   LIG     1      23.465  21.748  20.597  1.00  0.00    -0.024 A 
HETATM    8  C   LIG     1      22.830  21.343  21.778  1.00  0.00     0.013 A 
HETATM    9  C   LIG     1      23.391  21.644  23.018  1.00  0.00     0.013 A 
HETATM   10  C   LIG     1      24.598  22.357  23.102  1.00  0.00    -0.023 A 
HETATM   11  C   LIG     1      25.149  22.651  24.350  1.00  0.00     0.024 A 
HETATM   12  C   LIG     1      26.350  23.360  24.452  1.00  0.00    -0.024 A 
HETATM   13  C   LIG     1      27.036  23.794  23.282  1.00  0.00    -0.015 A 
HETATM   14  C   LIG     1      28.249  24.507  23.453  1.00  0.00     0.013 A 
HETATM   15  C   LIG     1      28.752  24.774  24.728  1.00  0.00     0.001 A 
HETATM   16  C   LIG     1      28.068  24.342  25.860  1.00  0.00     0.001 A 
HETATM   17  C   LIG     1      26.873  23.638  25.725  1.00  0.00     0.012 A 
HETATM   18  C   LIG     1      26.480  23.497  21.999  1.00  0.00    -0.013 A 
HETATM   19  C   LIG     1      27.095  23.891  20.785  1.00  0.00     0.014 A 
HETATM   20  C   LIG     1      26.523  23.582  19.549  1.00  0.00     0.013 A 
ENDROOT
TORSDOF 0
ENDMDL
MODEL 13
REMARK VINA RESULT:      -5.9     15.875     17.593
REMARK  0 active torsions:
REMARK  status: ('A' for Active; 'I' for Inactive)
ROOT
HETATM    1  C   LIG     1      23.617  20.804  21.959  1.00  0.00    -0.003 A 
HETATM    2  C   LIG     1      23.254  20.124  20.771  1.00  0.00    -0.004 A 
HETATM    3  C   LIG     1      22.720  18.821  20.837  1.00  0.00    -0.024 A 
HETATM    4  C   LIG     1      22.361  18.153  19.655  1.00  0.00     0.012 A 
HETATM    5  C   LIG     1      22.531  18.776  18.416  1.00  0.00     0.002 A 
HETATM    6  C   LIG     1      23.059  20.067  18.342  1.00  0.00     0.012 A 
HETATM    7  C   LIG     1      23.424  20.749  19.513  1.00  0.00    -0.024 A 
HETATM    8  C   LIG     1      23.953  22.044  19.447  1.00  0.00     0.013 A 
HETATM    9  C   LIG     1      24.313  22.717  20.615  1.00  0.00     0.013 A 
HETATM   10  C   LIG     1      24.151  22.108  21.869  1.00  0.00    -0.023 A 
HETATM   11  C   LIG     1      24.514  22.793  23.029  1.00  0.00     0.024 A 
HETATM   12  C   LIG     1      24.359  22.202  24.287  1.00  0.00    -0.024 A 
HETATM   13  C   LIG     1      23.825  20.888  24.408  1.00  0.00    -0.015 A 
HETATM   14  C   LIG     1      23.692  20.346  25.711  1.00  0.00     0.013 A 
HETATM   15  C   LIG     1      24.074  21.079  26.837  1.00  0.00     0.001 A 
HETATM   16  C   LIG     1      24.595  22.362  26.699  1.00  0.00     0.001 A 
HETATM   17  C   LIG     1      24.737  22.923  25.432  1.00  0.00     0.012 A 
HETATM   18  C   LIG     1      23.448  20.178  23.226  1.00  0.00    -0.013 A 
HETATM   19  C   LIG     1      22.909  18.868  23.255  1.00  0.00     0.014 A 
HETATM   20  C   LIG     1      22.553  18.205  22.079  1.00  0.00     0.013 A 
ENDROOT
TORSDOF 0
ENDMDL
MODEL 14
REMARK VINA RESULT:      -5.8     15.593     17.110
REMARK  0 active torsions:
REMARK  status: ('A' for Active; 'I' for Inactive)
ROOT
HETATM    1  C   LIG     1      25.560  22.487  20.386  1.00  0.00    -0.003 A 
HETATM    2  C   LIG     1      26.399  23.622  20.506  1.00  0.00    -0.004 A 
HETATM    3  C   LIG     1      26.520  24.528  19.433  1.00  0.00    -0.024 A 
HETATM    4  C   LIG     1      27.353  25.651  19.560  1.00  0.00     0.012 A 
HETATM    5  C   LIG     1      28.060  25.873  20.743  1.00  0.00     0.002 A 
HETATM    6  C   LIG     1      27.945  24.980  21.811  1.00  0.00     0.012 A 
HETATM    7  C   LIG     1      27.118  23.852  21.703  1.00  0.00    -0.024 A 
HETATM    8  C   LIG     1      26.997  22.953  22.769  1.00  0.00     0.013 A 
HETATM    9  C   LIG     1      26.173  21.833  22.656  1.00  0.00     0.013 A 
HETATM   10  C   LIG     1      25.454  21.592  21.474  1.00  0.00    -0.023 A 
HETATM   11  C   LIG     1      24.632  20.469  21.374  1.00  0.00     0.024 A 
HETATM   12  C   LIG     1      23.910  20.213  20.204  1.00  0.00    -0.024 A 
HETATM   13  C   LIG     1      23.998  21.097  19.092  1.00  0.00    -0.015 A 
HETATM   14  C   LIG     1      23.240  20.783  17.936  1.00  0.00     0.013 A 
HETATM   15  C   LIG     1      22.435  19.642  17.893  1.00  0.00     0.001 A 
HETATM   16  C   LIG     1      22.361  18.790  18.990  1.00  0.00     0.001 A 
HETATM   17  C   LIG     1      23.094  19.072  20.141  1.00  0.00     0.012 A 
HETATM   18  C   LIG     1      24.836  22.252  19.184  1.00  0.00    -0.013 A 
HETATM   19  C   LIG     1      24.982  23.182  18.126  1.00  0.00     0.014 A 
HETATM   20  C   LIG     1      25.810  24.299  18.253  1.00  0.00     0.013 A 
ENDROOT
TORSDOF 0
ENDMDL
MODEL 15
REMARK VINA RESULT:      -5.8     15.652     16.083
REMARK  0 active torsions:
REMARK  status: ('A' for Active; 'I' for Inactive)
ROOT
HETATM    1  C   LIG     1      26.949  24.174  20.879  1.00  0.00    -0.003 A 
HETATM    2  C   LIG     1      27.840  24.941  20.091  1.00  0.00    -0.004 A 
HETATM    3  C   LIG     1      27.547  25.194  18.735  1.00  0.00    -0.024 A 
HETATM    4  C   LIG     1      28.435  25.956  17.959  1.00  0.00     0.012 A 
HETATM    5  C   LIG     1      29.605  26.464  18.526  1.00  0.00     0.002 A 
HETATM    6  C   LIG     1      29.903  26.219  19.868  1.00  0.00     0.012 A 
HETATM    7  C   LIG     1      29.028  25.459  20.659  1.00  0.00    -0.024 A 
HETATM    8  C   LIG     1      29.319  25.209  22.005  1.00  0.00     0.013 A 
HETATM    9  C   LIG     1      28.445  24.453  22.786  1.00  0.00     0.013 A 
HETATM   10  C   LIG     1      27.263  23.933  22.235  1.00  0.00    -0.023 A 
HETATM   11  C   LIG     1      26.396  23.180  23.028  1.00  0.00     0.024 A 
HETATM   12  C   LIG     1      25.215  22.654  22.495  1.00  0.00    -0.024 A 
HETATM   13  C   LIG     1      24.873  22.879  21.132  1.00  0.00    -0.015 A 
HETATM   14  C   LIG     1      23.661  22.320  20.653  1.00  0.00     0.013 A 
HETATM   15  C   LIG     1      22.833  21.573  21.494  1.00  0.00     0.001 A 
HETATM   16  C   LIG     1      23.184  21.363  22.824  1.00  0.00     0.001 A 
HETATM   17  C   LIG     1      24.369  21.899  23.324  1.00  0.00     0.012 A 
HETATM   18  C   LIG     1      25.753  23.651  20.311  1.00  0.00    -0.013 A 
HETATM   19  C   LIG     1      25.490  23.924  18.946  1.00  0.00     0.014 A 
HETATM   20  C   LIG     1      26.374  24.682  18.176  1.00  0.00     0.013 A 
ENDROOT
TORSDOF 0
ENDMDL
MODEL 16
REMARK VINA RESULT:      -5.7     16.014     16.537
REMARK  0 active torsions:
REMARK  status: ('A' for Active; 'I' for Inactive)
ROOT
HETATM    1  C   LIG     1      28.679  28.305  30.712  1.00  0.00    -0.003 A 
HETATM    2  C   LIG     1      28.590  27.365  29.656  1.00  0.00    -0.004 A 
HETATM    3  C   LIG     1      27.763  26.231  29.787  1.00  0.00    -0.024 A 
HETATM    4  C   LIG     1      27.680  25.303  28.736  1.00  0.00     0.012 A 
HETATM    5  C   LIG     1      28.413  25.501  27.564  1.00  0.00     0.002 A 
HETATM    6  C   LIG     1      29.234  26.623  27.426  1.00  0.00     0.012 A 
HETATM    7  C   LIG     1      29.330  27.560  28.466  1.00  0.00    -0.024 A 
HETATM    8  C   LIG     1      30.151  28.687  28.336  1.00  0.00     0.013 A 
HETATM    9  C   LIG     1      30.242  29.615  29.373  1.00  0.00     0.013 A 
HETATM   10  C   LIG     1      29.514  29.434  30.559  1.00  0.00    -0.023 A 
HETATM   11  C   LIG     1      29.613  30.371  31.589  1.00  0.00     0.024 A 
HETATM   12  C   LIG     1      28.895  30.206  32.778  1.00  0.00    -0.024 A 
HETATM   13  C   LIG     1      28.047  29.078  32.960  1.00  0.00    -0.015 A 
HETATM   14  C   LIG     1      27.345  28.969  34.187  1.00  0.00     0.013 A 
HETATM   15  C   LIG     1      27.485  29.938  35.182  1.00  0.00     0.001 A 
HETATM   16  C   LIG     1      28.319  31.035  34.987  1.00  0.00     0.001 A 
HETATM   17  C   LIG     1      29.022  31.170  33.791  1.00  0.00     0.012 A 
HETATM   18  C   LIG     1      27.937  28.112  31.911  1.00  0.00    -0.013 A 
HETATM   19  C   LIG     1      27.116  26.962  32.008  1.00  0.00     0.014 A 
HETATM   20  C   LIG     1      27.034  26.040  30.962  1.00  0.00     0.013 A 
ENDROOT
TORSDOF 0
ENDMDL
MODEL 17
REMARK VINA RESULT:      -5.7     15.866     16.983
REMARK  0 active torsions:
REMARK  status: ('A' for Active; 'I' for Inactive)
ROOT
HETATM    1  C   LIG     1      25.087  22.542  22.182  1.00  0.00    -0.003 A 
HETATM    2  C   LIG     1      24.735  22.027  23.454  1.00  0.00    -0.004 A 
HETATM    3  C   LIG     1      25.539  22.308  24.578  1.00  0.00    -0.024 A 
HETATM    4  C   LIG     1      25.183  21.794  25.835  1.00  0.00     0.012 A 
HETATM    5  C   LIG     1      24.038  21.007  25.975  1.00  0.00     0.002 A 
HETATM    6  C   LIG     1      23.236  20.725  24.867  1.00  0.00     0.012 A 
HETATM    7  C   LIG     1      23.576  21.229  23.603  1.00  0.00    -0.024 A 
HETATM    8  C   LIG     1      22.777  20.951  22.487  1.00  0.00     0.013 A 
HETATM    9  C   LIG     1      23.120  21.456  21.232  1.00  0.00     0.013 A 
HETATM   10  C   LIG     1      24.267  22.248  21.070  1.00  0.00    -0.023 A 
HETATM   11  C   LIG     1      24.598  22.747  19.810  1.00  0.00     0.024 A 
HETATM   12  C   LIG     1      25.738  23.537  19.630  1.00  0.00    -0.024 A 
HETATM   13  C   LIG     1      26.583  23.850  20.732  1.00  0.00    -0.015 A 
HETATM   14  C   LIG     1      27.722  24.656  20.485  1.00  0.00     0.013 A 
HETATM   15  C   LIG     1      28.004  25.127  19.201  1.00  0.00     0.001 A 
HETATM   16  C   LIG     1      27.166  24.811  18.135  1.00  0.00     0.001 A 
HETATM   17  C   LIG     1      26.038  24.021  18.346  1.00  0.00     0.012 A 
HETATM   18  C   LIG     1      26.252  23.344  22.029  1.00  0.00    -0.013 A 
HETATM   19  C   LIG     1      27.037  23.606  23.179  1.00  0.00     0.014 A 
HETATM   20  C   LIG     1      26.682  23.095  24.429  1.00  0.00     0.013 A 
ENDROOT
TORSDOF 0
ENDMDL
MODEL 18
REMARK VINA RESULT:      -5.7     15.921     16.226
REMARK  0 active torsions:
REMARK  status: ('A' for Active; 'I' for Inactive)
ROOT
HETATM    1  C   LIG     1      25.288  22.726  21.021  1.00  0.00    -0.003 A 
HETATM    2  C   LIG     1      26.111  23.525  20.191  1.00  0.00    -0.004 A 
HETATM    3  C   LIG     1      27.197  24.234  20.744  1.00  0.00    -0.024 A 
HETATM    4  C   LIG     1      28.010  25.024  19.914  1.00  0.00     0.012 A 
HETATM    5  C   LIG     1      27.746  25.108  18.545  1.00  0.00     0.002 A 
HETATM    6  C   LIG     1      26.672  24.408  17.990  1.00  0.00     0.012 A 
HETATM    7  C   LIG     1      25.849  23.614  18.803  1.00  0.00    -0.024 A 
HETATM    8  C   LIG     1      24.772  22.909  18.254  1.00  0.00     0.013 A 
HETATM    9  C   LIG     1      23.957  22.122  19.068  1.00  0.00     0.013 A 
HETATM   10  C   LIG     1      24.205  22.025  20.446  1.00  0.00    -0.023 A 
HETATM   11  C   LIG     1      23.384  21.233  21.249  1.00  0.00     0.024 A 
HETATM   12  C   LIG     1      23.616  21.125  22.623  1.00  0.00    -0.024 A 
HETATM   13  C   LIG     1      24.699  21.821  23.231  1.00  0.00    -0.015 A 
HETATM   14  C   LIG     1      24.882  21.669  24.628  1.00  0.00     0.013 A 
HETATM   15  C   LIG     1      24.026  20.863  25.382  1.00  0.00     0.001 A 
HETATM   16  C   LIG     1      22.972  20.189  24.770  1.00  0.00     0.001 A 
HETATM   17  C   LIG     1      22.767  20.318  23.398  1.00  0.00     0.012 A 
HETATM   18  C   LIG     1      25.548  22.634  22.417  1.00  0.00    -0.013 A 
HETATM   19  C   LIG     1      26.647  23.360  22.939  1.00  0.00     0.014 A 
HETATM   20  C   LIG     1      27.454  24.145  22.113  1.00  0.00     0.013 A 
ENDROOT
TORSDOF 0
ENDMDL
MODEL 19
REMARK VINA RESULT:      -5.7     16.115     17.085
REMARK  0 active torsions:
REMARK  status: ('A' for Active; 'I' for Inactive)
ROOT
HETATM    1  C   LIG     1      26.206  23.346  20.733  1.00  0.00    -0.003 A 
HETATM    2  C   LIG     1      25.105  22.621  21.250  1.00  0.00    -0.004 A 
HETATM    3  C   LIG     1      24.115  22.120  20.379  1.00  0.00    -0.024 A 
HETATM    4  C   LIG     1      23.027  21.402  20.899  1.00  0.00     0.012 A 
HETATM    5  C   LIG     1      22.922  21.182  22.274  1.00  0.00     0.002 A 
HETATM    6  C   LIG     1      23.898  21.674  23.144  1.00  0.00     0.012 A 
HETATM    7  C   LIG     1      24.993  22.394  22.642  1.00  0.00    -0.024 A 
HETATM    8  C   LIG     1      25.975  22.890  23.507  1.00  0.00     0.013 A 
HETATM    9  C   LIG     1      27.061  23.605  23.003  1.00  0.00     0.013 A 
HETATM   10  C   LIG     1      27.185  23.838  21.624  1.00  0.00    -0.023 A 
HETATM   11  C   LIG     1      28.277  24.554  21.132  1.00  0.00     0.024 A 
HETATM   12  C   LIG     1      28.415  24.795  19.761  1.00  0.00    -0.024 A 
HETATM   13  C   LIG     1      27.444  24.312  18.840  1.00  0.00    -0.015 A 
HETATM   14  C   LIG     1      27.642  24.589  17.464  1.00  0.00     0.013 A 
HETATM   15  C   LIG     1      28.755  25.313  17.030  1.00  0.00     0.001 A 
HETATM   16  C   LIG     1      29.695  25.777  17.946  1.00  0.00     0.001 A 
HETATM   17  C   LIG     1      29.528  25.521  19.305  1.00  0.00     0.012 A 
HETATM   18  C   LIG     1      26.322  23.576  19.333  1.00  0.00    -0.013 A 
HETATM   19  C   LIG     1      25.309  23.060  18.487  1.00  0.00     0.014 A 
HETATM   20  C   LIG     1      24.227  22.345  19.006  1.00  0.00     0.013 A 
ENDROOT
TORSDOF 0
ENDMDL
