REMARK  5 active torsions:
REMARK  status: ('A' for Active; 'I' for Inactive)
REMARK    1  A    between atoms: C_7  and  C_8 
REMARK    2  A    between atoms: C_8  and  O_9 
REMARK    3  A    between atoms: C_12  and  O_13 
REMARK    4  A    between atoms: O_13  and  C_14 
REMARK    5  A    between atoms: C_14  and  C_15 
ROOT
HETATM    1  C   LIG     1      -3.978  -2.573  -0.666  1.00  0.00     0.310 C 
HETATM    2  N   LIG     1      -2.670  -1.913  -0.501  1.00  0.00     0.094 N 
HETATM    3  C   LIG     1      -2.400  -1.529   0.892  1.00  0.00     0.225 C 
HETATM    4  C   LIG     1      -3.164  -0.214   1.129  1.00  0.00     0.038 C 
HETATM    5  C   LIG     1      -3.341   0.370  -0.263  1.00  0.00     0.039 C 
HETATM    6  C   LIG     1      -2.589  -0.614  -1.182  1.00  0.00     0.239 C 
HETATM    7  C   LIG     1      -1.063  -0.288  -1.360  1.00  0.00     0.148 C 
HETATM    8  C   LIG     1      -0.165  -1.059  -0.330  1.00  0.00     0.150 C 
HETATM    9  C   LIG     1      -0.867  -1.306   1.038  1.00  0.00     0.069 C 
ENDROOT
BRANCH   8  10
HETATM   10  O   LIG     1       1.088  -0.393  -0.147  1.00  0.00    -0.311 OA
BRANCH  10  11
HETATM   11  C   LIG     1       2.196  -0.966   0.489  1.00  0.00     0.293 C 
HETATM   12  O   LIG     1       2.163  -2.173   0.856  1.00  0.00    -0.259 OA
BRANCH  11  13
HETATM   13  C   LIG     1       3.408  -0.151   0.719  1.00  0.00     0.039 A 
HETATM   14  C   LIG     1       4.540  -0.706   1.347  1.00  0.00     0.017 A 
HETATM   15  C   LIG     1       5.680   0.074   1.563  1.00  0.00     0.001 A 
HETATM   16  C   LIG     1       5.704   1.410   1.159  1.00  0.00     0.000 A 
HETATM   17  C   LIG     1       4.586   1.971   0.536  1.00  0.00     0.001 A 
HETATM   18  C   LIG     1       3.443   1.196   0.316  1.00  0.00     0.017 A 
ENDBRANCH  11  13
ENDBRANCH  10  11
ENDBRANCH   8  10
BRANCH   7  19
HETATM   19  C   LIG     1      -0.751   1.189  -1.414  1.00  0.00     0.267 C 
HETATM   20  O   LIG     1      -0.665   1.769  -2.531  1.00  0.00    -0.265 OA
BRANCH  19  21
HETATM   21  O   LIG     1      -0.545   1.903  -0.228  1.00  0.00    -0.326 OA
HETATM   22  C   LIG     1      -0.237   3.291  -0.212  1.00  0.00     0.213 C 
ENDBRANCH  19  21
ENDBRANCH   7  19
TORSDOF 5
