MODEL 1
REMARK VINA RESULT:     -10.6      0.000      0.000
REMARK  3 active torsions:
REMARK  status: ('A' for Active; 'I' for Inactive)
REMARK    1  A    between atoms: N_2  and  C_3 
REMARK    2  A    between atoms: C_3  and  C_4 
REMARK    3  A    between atoms: C_4  and  C_5 
ROOT
HETATM    1  C   LIG     1      15.885  35.337  22.051  1.00  0.00    -0.012 C 
HETATM    2  C   LIG     1      16.969  36.042  22.438  1.00  0.00    -0.018 C 
HETATM    3  C   LIG     1      17.324  36.090  23.883  1.00  0.00    -0.019 A 
HETATM    4  C   LIG     1      17.380  34.864  24.586  1.00  0.00     0.013 A 
HETATM    5  C   LIG     1      17.635  34.835  25.955  1.00  0.00     0.001 A 
HETATM    6  C   LIG     1      17.856  36.023  26.648  1.00  0.00     0.001 A 
HETATM    7  C   LIG     1      17.826  37.240  25.977  1.00  0.00     0.008 A 
HETATM    8  C   LIG     1      17.544  37.308  24.598  1.00  0.00    -0.047 A 
HETATM    9  C   LIG     1      17.542  38.708  23.995  1.00  0.00     0.044 C 
HETATM   10  C   LIG     1      16.784  38.901  22.676  1.00  0.00     0.044 C 
HETATM   11  C   LIG     1      17.558  38.289  21.541  1.00  0.00    -0.047 A 
HETATM   12  C   LIG     1      17.708  36.896  21.483  1.00  0.00    -0.019 A 
HETATM   13  C   LIG     1      18.506  36.323  20.482  1.00  0.00     0.013 A 
HETATM   14  C   LIG     1      19.130  37.135  19.529  1.00  0.00     0.001 A 
HETATM   15  C   LIG     1      18.958  38.520  19.564  1.00  0.00     0.001 A 
HETATM   16  C   LIG     1      18.175  39.097  20.564  1.00  0.00     0.008 A 
ENDROOT
BRANCH   1  17
HETATM   17  C   LIG     1      15.293  35.348  20.664  1.00  0.00     0.058 C 
BRANCH  17  18
HETATM   18  C   LIG     1      15.950  34.283  19.778  1.00  0.00     0.275 C 
BRANCH  18  19
HETATM   19  N   LIG     1      14.928  33.323  19.304  1.00  0.00     0.080 N 
HETATM   20  C   LIG     1      15.010  33.148  17.843  1.00  0.00     0.309 C 
HETATM   21  C   LIG     1      15.086  32.019  19.970  1.00  0.00     0.309 C 
ENDBRANCH  18  19
ENDBRANCH  17  18
ENDBRANCH   1  17
TORSDOF 3
ENDMDL
