REMARK  4 active torsions:
REMARK  status: ('A' for Active; 'I' for Inactive)
REMARK    1  A    between atoms: N_2  and  C_3 
REMARK    2  A    between atoms: C_3  and  C_4 
REMARK    3  A    between atoms: C_4  and  C_5 
REMARK    4  A    between atoms: C_5  and  N_6 
ROOT
HETATM    1  N   LIG     1      -0.168  -0.496   0.853  1.00  0.00    -0.346 N 
HETATM    2  C   LIG     1      -1.170  -1.448   0.464  1.00  0.00     0.041 A 
HETATM    3  C   LIG     1      -1.676  -1.429  -0.840  1.00  0.00    -0.031 A 
HETATM    4  C   LIG     1      -2.684  -2.334  -1.212  1.00  0.00     0.009 A 
HETATM    5  C   LIG     1      -3.168  -3.263  -0.288  1.00  0.00     0.001 A 
HETATM    6  C   LIG     1      -2.653  -3.293   1.010  1.00  0.00     0.002 A 
HETATM    7  C   LIG     1      -1.657  -2.388   1.387  1.00  0.00     0.030 A 
HETATM    8  C   LIG     1      -1.125  -0.437  -1.817  1.00  0.00     0.045 C 
HETATM    9  C   LIG     1      -1.592   0.982  -1.489  1.00  0.00     0.045 C 
HETATM   10  C   LIG     1      -1.205   1.579  -0.139  1.00  0.00    -0.031 A 
HETATM   11  C   LIG     1      -0.541   0.898   0.931  1.00  0.00     0.041 A 
HETATM   12  C   LIG     1      -0.287   1.601   2.127  1.00  0.00     0.030 A 
HETATM   13  C   LIG     1      -0.645   2.939   2.268  1.00  0.00     0.002 A 
HETATM   14  C   LIG     1      -1.280   3.603   1.225  1.00  0.00     0.001 A 
HETATM   15  C   LIG     1      -1.562   2.930   0.039  1.00  0.00     0.009 A 
ENDROOT
BRANCH   1  16
HETATM   16  C   LIG     1       1.079  -1.008   1.456  1.00  0.00     0.131 C 
BRANCH  16  17
HETATM   17  C   LIG     1       2.323  -0.192   1.065  1.00  0.00     0.050 C 
BRANCH  17  18
HETATM   18  C   LIG     1       2.515  -0.084  -0.451  1.00  0.00     0.270 C 
BRANCH  18  19
HETATM   19  N   LIG     1       3.851   0.443  -0.750  1.00  0.00     0.079 N 
HETATM   20  C   LIG     1       4.068   0.479  -2.197  1.00  0.00     0.306 C 
HETATM   21  H   LIG     1       3.898   1.430  -0.402  1.00  0.00     0.315 HD
ENDBRANCH  18  19
ENDBRANCH  17  18
ENDBRANCH  16  17
ENDBRANCH   1  16
TORSDOF 4
