REMARK  4 active torsions:
REMARK  status: ('A' for Active; 'I' for Inactive)
REMARK    1  A    between atoms: N_2  and  C_4 
REMARK    2  A    between atoms: C_4  and  C_5 
REMARK    3  A    between atoms: C_5  and  C_6 
REMARK    4  A    between atoms: C_6  and  N_7 
ROOT
HETATM    1  N   LIG     1       0.594   0.527   0.273  1.00  0.00    -0.346 N 
HETATM    2  C   LIG     1       0.823  -0.788   0.798  1.00  0.00     0.041 A 
HETATM    3  C   LIG     1       1.563  -1.708   0.048  1.00  0.00    -0.031 A 
HETATM    4  C   LIG     1       1.798  -2.995   0.555  1.00  0.00     0.009 A 
HETATM    5  C   LIG     1       1.275  -3.365   1.798  1.00  0.00     0.001 A 
HETATM    6  C   LIG     1       0.520  -2.451   2.539  1.00  0.00     0.002 A 
HETATM    7  C   LIG     1       0.294  -1.165   2.042  1.00  0.00     0.030 A 
HETATM    8  C   LIG     1       2.100  -1.285  -1.288  1.00  0.00     0.045 C 
HETATM    9  C   LIG     1       3.254  -0.297  -1.122  1.00  0.00     0.045 C 
HETATM   10  C   LIG     1       2.942   1.055  -0.491  1.00  0.00    -0.031 A 
HETATM   11  C   LIG     1       1.708   1.434   0.126  1.00  0.00     0.041 A 
HETATM   12  C   LIG     1       1.592   2.726   0.677  1.00  0.00     0.030 A 
HETATM   13  C   LIG     1       2.646   3.635   0.612  1.00  0.00     0.002 A 
HETATM   14  C   LIG     1       3.843   3.270   0.008  1.00  0.00     0.001 A 
HETATM   15  C   LIG     1       3.992   1.993  -0.531  1.00  0.00     0.009 A 
ENDROOT
BRANCH   1  16
HETATM   16  C   LIG     1      -0.786   0.973   0.021  1.00  0.00     0.131 C 
BRANCH  16  17
HETATM   17  C   LIG     1      -1.455   0.108  -1.059  1.00  0.00     0.050 C 
BRANCH  17  18
HETATM   18  C   LIG     1      -2.948   0.454  -1.240  1.00  0.00     0.273 C 
BRANCH  18  19
HETATM   19  N   LIG     1      -3.825  -0.606  -0.694  1.00  0.00     0.080 N 
HETATM   20  C   LIG     1      -5.202  -0.412  -1.178  1.00  0.00     0.309 C 
HETATM   21  C   LIG     1      -3.818  -0.600   0.779  1.00  0.00     0.309 C 
ENDBRANCH  18  19
ENDBRANCH  17  18
ENDBRANCH  16  17
ENDBRANCH   1  16
TORSDOF 4
