REMARK  3 active torsions:
REMARK  status: ('A' for Active; 'I' for Inactive)
REMARK    1  A    between atoms: N_2  and  C_3 
REMARK    2  A    between atoms: C_3  and  C_4 
REMARK    3  A    between atoms: C_4  and  C_5 
ROOT
HETATM    1  C   LIG     1       0.526   0.976   0.388  1.00  0.00    -0.012 C 
HETATM    2  C   LIG     1      -0.575   0.553  -0.268  1.00  0.00    -0.018 C 
HETATM    3  C   LIG     1      -1.570   1.556  -0.735  1.00  0.00    -0.019 A 
HETATM    4  C   LIG     1      -1.088   2.673  -1.456  1.00  0.00     0.013 A 
HETATM    5  C   LIG     1      -1.950   3.688  -1.864  1.00  0.00     0.001 A 
HETATM    6  C   LIG     1      -3.310   3.605  -1.577  1.00  0.00     0.001 A 
HETATM    7  C   LIG     1      -3.814   2.508  -0.887  1.00  0.00     0.008 A 
HETATM    8  C   LIG     1      -2.966   1.476  -0.436  1.00  0.00    -0.047 A 
HETATM    9  C   LIG     1      -3.654   0.338   0.308  1.00  0.00     0.044 C 
HETATM   10  C   LIG     1      -2.781  -0.527   1.226  1.00  0.00     0.044 C 
HETATM   11  C   LIG     1      -1.912  -1.438   0.403  1.00  0.00    -0.047 A 
HETATM   12  C   LIG     1      -0.890  -0.887  -0.384  1.00  0.00    -0.019 A 
HETATM   13  C   LIG     1      -0.136  -1.718  -1.225  1.00  0.00     0.013 A 
HETATM   14  C   LIG     1      -0.384  -3.095  -1.262  1.00  0.00     0.001 A 
HETATM   15  C   LIG     1      -1.379  -3.651  -0.457  1.00  0.00     0.001 A 
HETATM   16  C   LIG     1      -2.141  -2.829   0.374  1.00  0.00     0.008 A 
ENDROOT
BRANCH   1  17
HETATM   17  C   LIG     1       1.521   0.081   1.083  1.00  0.00     0.058 C 
BRANCH  17  18
HETATM   18  C   LIG     1       2.810  -0.048   0.263  1.00  0.00     0.275 C 
BRANCH  18  19
HETATM   19  N   LIG     1       3.856  -0.713   1.072  1.00  0.00     0.080 N 
HETATM   20  C   LIG     1       4.707  -1.570   0.227  1.00  0.00     0.309 C 
HETATM   21  C   LIG     1       4.689   0.281   1.770  1.00  0.00     0.309 C 
ENDBRANCH  18  19
ENDBRANCH  17  18
ENDBRANCH   1  17
TORSDOF 3
