MODEL 1
REMARK VINA RESULT:     -10.9      0.000      0.000
REMARK  4 active torsions:
REMARK  status: ('A' for Active; 'I' for Inactive)
REMARK    1  A    between atoms: N_2  and  C_4 
REMARK    2  A    between atoms: C_4  and  C_5 
REMARK    3  A    between atoms: C_5  and  C_6 
REMARK    4  A    between atoms: C_6  and  N_7 
ROOT
HETATM    1  N   LIG     1      16.818  36.447  22.235  1.00  0.00    -0.346 N 
HETATM    2  C   LIG     1      17.675  37.210  21.375  1.00  0.00     0.041 A 
HETATM    3  C   LIG     1      17.773  38.594  21.555  1.00  0.00    -0.031 A 
HETATM    4  C   LIG     1      18.613  39.349  20.723  1.00  0.00     0.009 A 
HETATM    5  C   LIG     1      19.334  38.723  19.701  1.00  0.00     0.001 A 
HETATM    6  C   LIG     1      19.221  37.343  19.509  1.00  0.00     0.002 A 
HETATM    7  C   LIG     1      18.394  36.587  20.344  1.00  0.00     0.030 A 
HETATM    8  C   LIG     1      16.978  39.237  22.653  1.00  0.00     0.045 C 
HETATM    9  C   LIG     1      17.558  38.887  24.022  1.00  0.00     0.045 C 
HETATM   10  C   LIG     1      17.522  37.426  24.453  1.00  0.00    -0.031 A 
HETATM   11  C   LIG     1      17.156  36.312  23.632  1.00  0.00     0.041 A 
HETATM   12  C   LIG     1      17.191  35.018  24.188  1.00  0.00     0.030 A 
HETATM   13  C   LIG     1      17.555  34.813  25.517  1.00  0.00     0.002 A 
HETATM   14  C   LIG     1      17.905  35.894  26.317  1.00  0.00     0.001 A 
HETATM   15  C   LIG     1      17.895  37.184  25.790  1.00  0.00     0.009 A 
ENDROOT
BRANCH   1  16
HETATM   16  C   LIG     1      15.687  35.705  21.653  1.00  0.00     0.131 C 
BRANCH  16  17
HETATM   17  C   LIG     1      16.175  34.447  20.917  1.00  0.00     0.050 C 
BRANCH  17  18
HETATM   18  C   LIG     1      15.013  33.497  20.555  1.00  0.00     0.273 C 
BRANCH  18  19
HETATM   19  N   LIG     1      15.467  32.382  19.694  1.00  0.00     0.080 N 
HETATM   20  C   LIG     1      15.089  32.647  18.296  1.00  0.00     0.309 C 
HETATM   21  C   LIG     1      14.883  31.101  20.125  1.00  0.00     0.309 C 
ENDBRANCH  18  19
ENDBRANCH  17  18
ENDBRANCH  16  17
ENDBRANCH   1  16
TORSDOF 4
ENDMDL
