MODEL 1
REMARK VINA RESULT:      -9.1      0.000      0.000
REMARK  4 active torsions:
REMARK  status: ('A' for Active; 'I' for Inactive)
REMARK    1  A    between atoms: N_2  and  C_4 
REMARK    2  A    between atoms: C_4  and  C_5 
REMARK    3  A    between atoms: C_5  and  C_6 
REMARK    4  A    between atoms: C_6  and  N_7 
ROOT
HETATM    1  N   LIG     1      16.822  36.296  22.707  1.00  0.00    -0.345 N 
HETATM    2  C   LIG     1      17.429  37.383  21.970  1.00  0.00     0.053 A 
HETATM    3  C   LIG     1      17.874  37.205  20.649  1.00  0.00     0.054 A 
HETATM    4  C   LIG     1      18.607  38.210  20.006  1.00  0.00     0.036 A 
HETATM    5 CL   LIG     1      19.165  37.972  18.360  1.00  0.00    -0.084 Cl
HETATM    6  C   LIG     1      18.916  39.392  20.683  1.00  0.00     0.025 A 
HETATM    7  C   LIG     1      18.478  39.582  21.996  1.00  0.00     0.023 A 
HETATM    8  C   LIG     1      17.726  38.590  22.632  1.00  0.00     0.032 A 
HETATM    9  S   LIG     1      17.043  38.898  24.261  1.00  0.00    -0.086 SA
HETATM   10  C   LIG     1      17.479  37.271  24.875  1.00  0.00     0.032 A 
HETATM   11  C   LIG     1      17.183  36.135  24.098  1.00  0.00     0.052 A 
HETATM   12  C   LIG     1      17.364  34.857  24.657  1.00  0.00     0.031 A 
HETATM   13  C   LIG     1      17.870  34.721  25.953  1.00  0.00     0.002 A 
HETATM   14  C   LIG     1      18.205  35.854  26.700  1.00  0.00     0.002 A 
HETATM   15  C   LIG     1      18.007  37.128  26.163  1.00  0.00     0.021 A 
ENDROOT
BRANCH   1  16
HETATM   16  C   LIG     1      15.700  35.528  22.144  1.00  0.00     0.131 C 
BRANCH  16  17
HETATM   17  C   LIG     1      16.184  34.439  21.166  1.00  0.00     0.050 C 
BRANCH  17  18
HETATM   18  C   LIG     1      15.026  33.576  20.641  1.00  0.00     0.273 C 
BRANCH  18  19
HETATM   19  N   LIG     1      15.512  32.500  19.749  1.00  0.00     0.080 N 
HETATM   20  C   LIG     1      14.916  31.200  20.109  1.00  0.00     0.309 C 
HETATM   21  C   LIG     1      15.184  32.816  18.349  1.00  0.00     0.309 C 
ENDBRANCH  18  19
ENDBRANCH  17  18
ENDBRANCH  16  17
ENDBRANCH   1  16
TORSDOF 4
ENDMDL
