MODEL 1
REMARK VINA RESULT:      -5.7      0.000      0.000
REMARK  0 active torsions:
REMARK  status: ('A' for Active; 'I' for Inactive)
ROOT
HETATM    1  O   LIG     1      16.413  38.590  23.084  1.00  0.00    -0.276 OA
HETATM    2  C   LIG     1      16.776  37.646  23.836  1.00  0.00     0.306 A 
HETATM    3  C   LIG     1      16.836  36.267  23.331  1.00  0.00     0.305 A 
HETATM    4  N   LIG     1      17.251  35.209  24.201  1.00  0.00    -0.272 N 
HETATM    5  O   LIG     1      16.522  36.014  22.137  1.00  0.00    -0.263 OA
HETATM    6  C   LIG     1      17.149  37.903  25.234  1.00  0.00     0.305 A 
HETATM    7  N   LIG     1      17.560  36.816  26.071  1.00  0.00    -0.272 N 
HETATM    8  C   LIG     1      17.611  35.478  25.562  1.00  0.00     0.330 A 
HETATM    9  O   LIG     1      17.975  34.534  26.312  1.00  0.00    -0.246 OA
HETATM   10  O   LIG     1      17.109  39.073  25.698  1.00  0.00    -0.263 OA
HETATM   11  H   LIG     1      17.293  34.230  23.840  1.00  0.00     0.174 HD
HETATM   12  H   LIG     1      17.825  37.001  27.065  1.00  0.00     0.174 HD
ENDROOT
TORSDOF 0
ENDMDL
MODEL 2
REMARK VINA RESULT:      -5.7      0.028      2.644
REMARK  0 active torsions:
REMARK  status: ('A' for Active; 'I' for Inactive)
ROOT
HETATM    1  O   LIG     1      16.447  38.604  23.101  1.00  0.00    -0.276 OA
HETATM    2  C   LIG     1      16.800  37.653  23.849  1.00  0.00     0.306 A 
HETATM    3  C   LIG     1      17.157  37.898  25.254  1.00  0.00     0.305 A 
HETATM    4  N   LIG     1      17.555  36.804  26.087  1.00  0.00    -0.272 N 
HETATM    5  O   LIG     1      17.113  39.065  25.726  1.00  0.00    -0.263 OA
HETATM    6  C   LIG     1      16.862  36.278  23.334  1.00  0.00     0.305 A 
HETATM    7  N   LIG     1      17.266  35.212  24.202  1.00  0.00    -0.272 N 
HETATM    8  C   LIG     1      17.610  35.470  25.568  1.00  0.00     0.330 A 
HETATM    9  O   LIG     1      17.963  34.520  26.316  1.00  0.00    -0.246 OA
HETATM   10  O   LIG     1      16.563  36.034  22.136  1.00  0.00    -0.263 OA
HETATM   11  H   LIG     1      17.808  36.980  27.086  1.00  0.00     0.174 HD
HETATM   12  H   LIG     1      17.309  34.235  23.833  1.00  0.00     0.174 HD
ENDROOT
TORSDOF 0
ENDMDL
MODEL 3
REMARK VINA RESULT:      -5.6      1.254      2.971
REMARK  0 active torsions:
REMARK  status: ('A' for Active; 'I' for Inactive)
ROOT
HETATM    1  O   LIG     1      17.102  38.524  25.464  1.00  0.00    -0.276 OA
HETATM    2  C   LIG     1      16.996  37.634  24.577  1.00  0.00     0.306 A 
HETATM    3  C   LIG     1      17.318  36.232  24.880  1.00  0.00     0.305 A 
HETATM    4  N   LIG     1      17.191  35.238  23.859  1.00  0.00    -0.272 N 
HETATM    5  O   LIG     1      17.704  35.905  26.034  1.00  0.00    -0.263 OA
HETATM    6  C   LIG     1      16.549  37.979  23.221  1.00  0.00     0.305 A 
HETATM    7  N   LIG     1      16.436  36.953  22.228  1.00  0.00    -0.272 N 
HETATM    8  C   LIG     1      16.754  35.592  22.541  1.00  0.00     0.330 A 
HETATM    9  O   LIG     1      16.648  34.703  21.655  1.00  0.00    -0.246 OA
HETATM   10  O   LIG     1      16.266  39.171  22.929  1.00  0.00    -0.263 OA
HETATM   11  H   LIG     1      17.420  34.241  24.076  1.00  0.00     0.174 HD
HETATM   12  H   LIG     1      16.117  37.201  21.263  1.00  0.00     0.174 HD
ENDROOT
TORSDOF 0
ENDMDL
MODEL 4
REMARK VINA RESULT:      -5.6      3.528      4.539
REMARK  0 active torsions:
REMARK  status: ('A' for Active; 'I' for Inactive)
ROOT
HETATM    1  O   LIG     1      16.235  36.913  22.437  1.00  0.00    -0.276 OA
HETATM    2  C   LIG     1      17.149  37.521  21.817  1.00  0.00     0.306 A 
HETATM    3  C   LIG     1      17.827  36.889  20.675  1.00  0.00     0.305 A 
HETATM    4  N   LIG     1      18.862  37.596  19.984  1.00  0.00    -0.272 N 
HETATM    5  O   LIG     1      17.501  35.730  20.305  1.00  0.00    -0.263 OA
HETATM    6  C   LIG     1      17.556  38.873  22.221  1.00  0.00     0.305 A 
HETATM    7  N   LIG     1      18.596  39.546  21.501  1.00  0.00    -0.272 N 
HETATM    8  C   LIG     1      19.246  38.915  20.391  1.00  0.00     0.330 A 
HETATM    9  O   LIG     1      20.159  39.522  19.771  1.00  0.00    -0.246 OA
HETATM   10  O   LIG     1      16.995  39.442  23.194  1.00  0.00    -0.263 OA
HETATM   11  H   LIG     1      19.342  37.146  19.173  1.00  0.00     0.174 HD
HETATM   12  H   LIG     1      18.884  40.509  21.790  1.00  0.00     0.174 HD
ENDROOT
TORSDOF 0
ENDMDL
MODEL 5
REMARK VINA RESULT:      -5.6      3.536      5.026
REMARK  0 active torsions:
REMARK  status: ('A' for Active; 'I' for Inactive)
ROOT
HETATM    1  O   LIG     1      19.297  36.771  19.189  1.00  0.00    -0.276 OA
HETATM    2  C   LIG     1      18.700  37.378  20.119  1.00  0.00     0.306 A 
HETATM    3  C   LIG     1      19.096  38.743  20.497  1.00  0.00     0.305 A 
HETATM    4  N   LIG     1      18.407  39.415  21.556  1.00  0.00    -0.272 N 
HETATM    5  O   LIG     1      20.039  39.320  19.893  1.00  0.00    -0.263 OA
HETATM    6  C   LIG     1      17.596  36.736  20.846  1.00  0.00     0.305 A 
HETATM    7  N   LIG     1      16.932  37.445  21.899  1.00  0.00    -0.272 N 
HETATM    8  C   LIG     1      17.332  38.774  22.254  1.00  0.00     0.330 A 
HETATM    9  O   LIG     1      16.737  39.381  23.183  1.00  0.00    -0.246 OA
HETATM   10  O   LIG     1      17.232  35.569  20.546  1.00  0.00    -0.263 OA
HETATM   11  H   LIG     1      18.689  40.385  21.823  1.00  0.00     0.174 HD
HETATM   12  H   LIG     1      16.147  36.986  22.414  1.00  0.00     0.174 HD
ENDROOT
TORSDOF 0
ENDMDL
MODEL 6
REMARK VINA RESULT:      -5.6      3.587      4.716
REMARK  0 active torsions:
REMARK  status: ('A' for Active; 'I' for Inactive)
ROOT
HETATM    1  O   LIG     1      19.312  36.810  19.167  1.00  0.00    -0.276 OA
HETATM    2  C   LIG     1      18.742  37.430  20.106  1.00  0.00     0.306 A 
HETATM    3  C   LIG     1      17.638  36.808  20.852  1.00  0.00     0.305 A 
HETATM    4  N   LIG     1      17.004  37.528  21.914  1.00  0.00    -0.272 N 
HETATM    5  O   LIG     1      17.249  35.646  20.559  1.00  0.00    -0.263 OA
HETATM    6  C   LIG     1      19.169  38.787  20.475  1.00  0.00     0.305 A 
HETATM    7  N   LIG     1      18.507  39.472  21.545  1.00  0.00    -0.272 N 
HETATM    8  C   LIG     1      17.433  38.851  22.261  1.00  0.00     0.330 A 
HETATM    9  O   LIG     1      16.864  39.469  23.198  1.00  0.00    -0.246 OA
HETATM   10  O   LIG     1      20.111  39.347  19.856  1.00  0.00    -0.263 OA
HETATM   11  H   LIG     1      16.220  37.084  22.443  1.00  0.00     0.174 HD
HETATM   12  H   LIG     1      18.813  40.437  21.806  1.00  0.00     0.174 HD
ENDROOT
TORSDOF 0
ENDMDL
MODEL 7
REMARK VINA RESULT:      -5.5      6.432      8.659
REMARK  0 active torsions:
REMARK  status: ('A' for Active; 'I' for Inactive)
ROOT
HETATM    1  O   LIG     1      14.549  31.070  20.059  1.00  0.00    -0.276 OA
HETATM    2  C   LIG     1      14.717  31.956  19.178  1.00  0.00     0.306 A 
HETATM    3  C   LIG     1      15.385  33.223  19.508  1.00  0.00     0.305 A 
HETATM    4  N   LIG     1      15.565  34.216  18.493  1.00  0.00    -0.272 N 
HETATM    5  O   LIG     1      15.798  33.437  20.679  1.00  0.00    -0.263 OA
HETATM    6  C   LIG     1      14.248  31.742  17.802  1.00  0.00     0.305 A 
HETATM    7  N   LIG     1      14.449  32.761  16.817  1.00  0.00    -0.272 N 
HETATM    8  C   LIG     1      15.102  33.990  17.156  1.00  0.00     0.330 A 
HETATM    9  O   LIG     1      15.270  34.875  16.276  1.00  0.00    -0.246 OA
HETATM   10  O   LIG     1      13.672  30.667  17.487  1.00  0.00    -0.263 OA
HETATM   11  H   LIG     1      16.041  35.116  18.729  1.00  0.00     0.174 HD
HETATM   12  H   LIG     1      14.115  32.606  15.838  1.00  0.00     0.174 HD
ENDROOT
TORSDOF 0
ENDMDL
MODEL 8
REMARK VINA RESULT:      -5.5      8.537     10.257
REMARK  0 active torsions:
REMARK  status: ('A' for Active; 'I' for Inactive)
ROOT
HETATM    1  O   LIG     1      16.913  33.724  15.321  1.00  0.00    -0.276 OA
HETATM    2  C   LIG     1      15.929  33.037  15.706  1.00  0.00     0.306 A 
HETATM    3  C   LIG     1      15.095  33.487  16.830  1.00  0.00     0.305 A 
HETATM    4  N   LIG     1      13.983  32.691  17.252  1.00  0.00    -0.272 N 
HETATM    5  O   LIG     1      15.357  34.568  17.421  1.00  0.00    -0.263 OA
HETATM    6  C   LIG     1      15.595  31.770  15.041  1.00  0.00     0.305 A 
HETATM    7  N   LIG     1      14.473  31.004  15.495  1.00  0.00    -0.272 N 
HETATM    8  C   LIG     1      13.671  31.458  16.592  1.00  0.00     0.330 A 
HETATM    9  O   LIG     1      12.688  30.772  16.977  1.00  0.00    -0.246 OA
HETATM   10  O   LIG     1      16.289  31.356  14.075  1.00  0.00    -0.263 OA
HETATM   11  H   LIG     1      13.391  33.013  18.051  1.00  0.00     0.174 HD
HETATM   12  H   LIG     1      14.236  30.103  15.020  1.00  0.00     0.174 HD
ENDROOT
TORSDOF 0
ENDMDL
MODEL 9
REMARK VINA RESULT:      -5.5      8.548      9.938
REMARK  0 active torsions:
REMARK  status: ('A' for Active; 'I' for Inactive)
ROOT
HETATM    1  O   LIG     1      16.915  33.702  15.308  1.00  0.00    -0.276 OA
HETATM    2  C   LIG     1      15.928  33.022  15.698  1.00  0.00     0.306 A 
HETATM    3  C   LIG     1      15.585  31.754  15.039  1.00  0.00     0.305 A 
HETATM    4  N   LIG     1      14.460  30.996  15.497  1.00  0.00    -0.272 N 
HETATM    5  O   LIG     1      16.277  31.332  14.075  1.00  0.00    -0.263 OA
HETATM    6  C   LIG     1      15.097  33.483  16.819  1.00  0.00     0.305 A 
HETATM    7  N   LIG     1      13.980  32.694  17.247  1.00  0.00    -0.272 N 
HETATM    8  C   LIG     1      13.661  31.460  16.593  1.00  0.00     0.330 A 
HETATM    9  O   LIG     1      12.675  30.781  16.982  1.00  0.00    -0.246 OA
HETATM   10  O   LIG     1      15.364  34.565  17.405  1.00  0.00    -0.263 OA
HETATM   11  H   LIG     1      14.219  30.094  15.029  1.00  0.00     0.174 HD
HETATM   12  H   LIG     1      13.391  33.024  18.045  1.00  0.00     0.174 HD
ENDROOT
TORSDOF 0
ENDMDL
MODEL 10
REMARK VINA RESULT:      -5.4      8.450     10.413
REMARK  0 active torsions:
REMARK  status: ('A' for Active; 'I' for Inactive)
ROOT
HETATM    1  O   LIG     1      14.292  30.059  14.885  1.00  0.00    -0.276 OA
HETATM    2  C   LIG     1      14.560  31.120  15.510  1.00  0.00     0.306 A 
HETATM    3  C   LIG     1      13.679  31.599  16.585  1.00  0.00     0.305 A 
HETATM    4  N   LIG     1      14.001  32.807  17.283  1.00  0.00    -0.272 N 
HETATM    5  O   LIG     1      12.643  30.951  16.893  1.00  0.00    -0.263 OA
HETATM    6  C   LIG     1      15.759  31.903  15.178  1.00  0.00     0.305 A 
HETATM    7  N   LIG     1      16.045  33.105  15.902  1.00  0.00    -0.272 N 
HETATM    8  C   LIG     1      15.174  33.557  16.946  1.00  0.00     0.330 A 
HETATM    9  O   LIG     1      15.442  34.617  17.571  1.00  0.00    -0.246 OA
HETATM   10  O   LIG     1      16.534  31.520  14.263  1.00  0.00    -0.263 OA
HETATM   11  H   LIG     1      13.373  33.145  18.047  1.00  0.00     0.174 HD
HETATM   12  H   LIG     1      16.899  33.660  15.665  1.00  0.00     0.174 HD
ENDROOT
TORSDOF 0
ENDMDL
MODEL 11
REMARK VINA RESULT:      -5.4      8.452     10.336
REMARK  0 active torsions:
REMARK  status: ('A' for Active; 'I' for Inactive)
ROOT
HETATM    1  O   LIG     1      14.293  30.062  14.884  1.00  0.00    -0.276 OA
HETATM    2  C   LIG     1      14.561  31.125  15.506  1.00  0.00     0.306 A 
HETATM    3  C   LIG     1      15.768  31.898  15.182  1.00  0.00     0.305 A 
HETATM    4  N   LIG     1      16.055  33.102  15.901  1.00  0.00    -0.272 N 
HETATM    5  O   LIG     1      16.550  31.505  14.276  1.00  0.00    -0.263 OA
HETATM    6  C   LIG     1      13.673  31.613  16.570  1.00  0.00     0.305 A 
HETATM    7  N   LIG     1      13.996  32.824  17.265  1.00  0.00    -0.272 N 
HETATM    8  C   LIG     1      15.177  33.565  16.935  1.00  0.00     0.330 A 
HETATM    9  O   LIG     1      15.446  34.627  17.557  1.00  0.00    -0.246 OA
HETATM   10  O   LIG     1      12.631  30.974  16.872  1.00  0.00    -0.263 OA
HETATM   11  H   LIG     1      16.913  33.651  15.669  1.00  0.00     0.174 HD
HETATM   12  H   LIG     1      13.363  33.170  18.021  1.00  0.00     0.174 HD
ENDROOT
TORSDOF 0
ENDMDL
MODEL 12
REMARK VINA RESULT:      -5.2      3.113      4.384
REMARK  0 active torsions:
REMARK  status: ('A' for Active; 'I' for Inactive)
ROOT
HETATM    1  O   LIG     1      18.309  39.436  22.003  1.00  0.00    -0.276 OA
HETATM    2  C   LIG     1      17.858  38.322  21.625  1.00  0.00     0.306 A 
HETATM    3  C   LIG     1      16.716  37.704  22.314  1.00  0.00     0.305 A 
HETATM    4  N   LIG     1      16.219  36.437  21.870  1.00  0.00    -0.272 N 
HETATM    5  O   LIG     1      16.176  38.284  23.293  1.00  0.00    -0.263 OA
HETATM    6  C   LIG     1      18.463  37.615  20.488  1.00  0.00     0.305 A 
HETATM    7  N   LIG     1      17.934  36.350  20.075  1.00  0.00    -0.272 N 
HETATM    8  C   LIG     1      16.821  35.762  20.759  1.00  0.00     0.330 A 
HETATM    9  O   LIG     1      16.370  34.649  20.382  1.00  0.00    -0.246 OA
HETATM   10  O   LIG     1      19.443  38.117  19.876  1.00  0.00    -0.263 OA
HETATM   11  H   LIG     1      15.407  36.000  22.361  1.00  0.00     0.174 HD
HETATM   12  H   LIG     1      18.366  35.849  19.265  1.00  0.00     0.174 HD
ENDROOT
TORSDOF 0
ENDMDL
MODEL 13
REMARK VINA RESULT:      -5.2      3.103      3.942
REMARK  0 active torsions:
REMARK  status: ('A' for Active; 'I' for Inactive)
ROOT
HETATM    1  O   LIG     1      18.168  39.376  22.098  1.00  0.00    -0.276 OA
HETATM    2  C   LIG     1      17.739  38.261  21.697  1.00  0.00     0.306 A 
HETATM    3  C   LIG     1      18.373  37.580  20.558  1.00  0.00     0.305 A 
HETATM    4  N   LIG     1      17.871  36.315  20.118  1.00  0.00    -0.272 N 
HETATM    5  O   LIG     1      19.355  38.107  19.970  1.00  0.00    -0.263 OA
HETATM    6  C   LIG     1      16.596  37.616  22.358  1.00  0.00     0.305 A 
HETATM    7  N   LIG     1      16.125  36.349  21.885  1.00  0.00    -0.272 N 
HETATM    8  C   LIG     1      16.755  35.700  20.774  1.00  0.00     0.330 A 
HETATM    9  O   LIG     1      16.327  34.586  20.373  1.00  0.00    -0.246 OA
HETATM   10  O   LIG     1      16.031  38.173  23.335  1.00  0.00    -0.263 OA
HETATM   11  H   LIG     1      18.323  35.832  19.309  1.00  0.00     0.174 HD
HETATM   12  H   LIG     1      15.312  35.892  22.358  1.00  0.00     0.174 HD
ENDROOT
TORSDOF 0
ENDMDL
MODEL 14
REMARK VINA RESULT:      -5.1      1.163      3.303
REMARK  0 active torsions:
REMARK  status: ('A' for Active; 'I' for Inactive)
ROOT
HETATM    1  O   LIG     1      17.106  34.704  23.190  1.00  0.00    -0.276 OA
HETATM    2  C   LIG     1      17.120  35.780  23.847  1.00  0.00     0.306 A 
HETATM    3  C   LIG     1      17.455  35.779  25.278  1.00  0.00     0.305 A 
HETATM    4  N   LIG     1      17.465  37.011  26.006  1.00  0.00    -0.272 N 
HETATM    5  O   LIG     1      17.731  34.699  25.865  1.00  0.00    -0.263 OA
HETATM    6  C   LIG     1      16.802  37.059  23.196  1.00  0.00     0.305 A 
HETATM    7  N   LIG     1      16.824  38.269  23.961  1.00  0.00    -0.272 N 
HETATM    8  C   LIG     1      17.153  38.250  25.356  1.00  0.00     0.330 A 
HETATM    9  O   LIG     1      17.167  39.324  26.012  1.00  0.00    -0.246 OA
HETATM   10  O   LIG     1      16.511  37.094  21.972  1.00  0.00    -0.263 OA
HETATM   11  H   LIG     1      17.704  37.009  27.023  1.00  0.00     0.174 HD
HETATM   12  H   LIG     1      16.599  39.178  23.496  1.00  0.00     0.174 HD
ENDROOT
TORSDOF 0
ENDMDL
MODEL 15
REMARK VINA RESULT:      -5.1      8.788     10.828
REMARK  0 active torsions:
REMARK  status: ('A' for Active; 'I' for Inactive)
ROOT
HETATM    1  O   LIG     1      13.381  31.387  17.528  1.00  0.00    -0.276 OA
HETATM    2  C   LIG     1      14.261  31.625  16.657  1.00  0.00     0.306 A 
HETATM    3  C   LIG     1      15.317  32.615  16.911  1.00  0.00     0.305 A 
HETATM    4  N   LIG     1      16.308  32.870  15.909  1.00  0.00    -0.272 N 
HETATM    5  O   LIG     1      15.353  33.239  18.005  1.00  0.00    -0.263 OA
HETATM    6  C   LIG     1      14.250  30.917  15.370  1.00  0.00     0.305 A 
HETATM    7  N   LIG     1      15.260  31.202  14.395  1.00  0.00    -0.272 N 
HETATM    8  C   LIG     1      16.283  32.170  14.659  1.00  0.00     0.330 A 
HETATM    9  O   LIG     1      17.162  32.407  13.790  1.00  0.00    -0.246 OA
HETATM   10  O   LIG     1      13.359  30.063  15.121  1.00  0.00    -0.263 OA
HETATM   11  H   LIG     1      17.058  33.574  16.092  1.00  0.00     0.174 HD
HETATM   12  H   LIG     1      15.251  30.697  13.479  1.00  0.00     0.174 HD
ENDROOT
TORSDOF 0
ENDMDL
MODEL 16
REMARK VINA RESULT:      -5.0     10.851     12.152
REMARK  0 active torsions:
REMARK  status: ('A' for Active; 'I' for Inactive)
ROOT
HETATM    1  O   LIG     1      15.235  32.399  16.076  1.00  0.00    -0.276 OA
HETATM    2  C   LIG     1      14.633  31.429  15.543  1.00  0.00     0.306 A 
HETATM    3  C   LIG     1      13.344  30.964  16.076  1.00  0.00     0.305 A 
HETATM    4  N   LIG     1      12.676  29.859  15.458  1.00  0.00    -0.272 N 
HETATM    5  O   LIG     1      12.827  31.533  17.074  1.00  0.00    -0.263 OA
HETATM    6  C   LIG     1      15.205  30.740  14.379  1.00  0.00     0.305 A 
HETATM    7  N   LIG     1      14.504  29.639  13.789  1.00  0.00    -0.272 N 
HETATM    8  C   LIG     1      13.249  29.199  14.322  1.00  0.00     0.330 A 
HETATM    9  O   LIG     1      12.647  28.229  13.791  1.00  0.00    -0.246 OA
HETATM   10  O   LIG     1      16.307  31.113  13.898  1.00  0.00    -0.263 OA
HETATM   11  H   LIG     1      11.760  29.531  15.838  1.00  0.00     0.174 HD
HETATM   12  H   LIG     1      14.913  29.151  12.960  1.00  0.00     0.174 HD
ENDROOT
TORSDOF 0
ENDMDL
MODEL 17
REMARK VINA RESULT:      -5.0      3.294      4.041
REMARK  0 active torsions:
REMARK  status: ('A' for Active; 'I' for Inactive)
ROOT
HETATM    1  O   LIG     1      15.846  37.749  23.322  1.00  0.00    -0.276 OA
HETATM    2  C   LIG     1      16.591  37.466  22.345  1.00  0.00     0.306 A 
HETATM    3  C   LIG     1      16.422  36.200  21.617  1.00  0.00     0.305 A 
HETATM    4  N   LIG     1      17.278  35.898  20.511  1.00  0.00    -0.272 N 
HETATM    5  O   LIG     1      15.529  35.382  21.964  1.00  0.00    -0.263 OA
HETATM    6  C   LIG     1      17.644  38.395  21.913  1.00  0.00     0.305 A 
HETATM    7  N   LIG     1      18.478  38.054  20.800  1.00  0.00    -0.272 N 
HETATM    8  C   LIG     1      18.300  36.815  20.102  1.00  0.00     0.330 A 
HETATM    9  O   LIG     1      19.043  36.532  19.126  1.00  0.00    -0.246 OA
HETATM   10  O   LIG     1      17.814  39.488  22.515  1.00  0.00    -0.263 OA
HETATM   11  H   LIG     1      17.156  34.997  19.994  1.00  0.00     0.174 HD
HETATM   12  H   LIG     1      19.226  38.717  20.493  1.00  0.00     0.174 HD
ENDROOT
TORSDOF 0
ENDMDL
MODEL 18
REMARK VINA RESULT:      -5.0      9.630     11.364
REMARK  0 active torsions:
REMARK  status: ('A' for Active; 'I' for Inactive)
ROOT
HETATM    1  O   LIG     1      13.021  30.609  16.878  1.00  0.00    -0.276 OA
HETATM    2  C   LIG     1      13.892  30.954  16.036  1.00  0.00     0.306 A 
HETATM    3  C   LIG     1      14.023  30.239  14.758  1.00  0.00     0.305 A 
HETATM    4  N   LIG     1      15.019  30.647  13.815  1.00  0.00    -0.272 N 
HETATM    5  O   LIG     1      13.264  29.270  14.492  1.00  0.00    -0.263 OA
HETATM    6  C   LIG     1      14.796  32.080  16.312  1.00  0.00     0.305 A 
HETATM    7  N   LIG     1      15.778  32.456  15.340  1.00  0.00    -0.272 N 
HETATM    8  C   LIG     1      15.892  31.747  14.100  1.00  0.00     0.330 A 
HETATM    9  O   LIG     1      16.762  32.092  13.257  1.00  0.00    -0.246 OA
HETATM   10  O   LIG     1      14.709  32.713  17.396  1.00  0.00    -0.263 OA
HETATM   11  H   LIG     1      15.110  30.138  12.907  1.00  0.00     0.174 HD
HETATM   12  H   LIG     1      16.420  33.257  15.538  1.00  0.00     0.174 HD
ENDROOT
TORSDOF 0
ENDMDL
MODEL 19
REMARK VINA RESULT:      -4.9      9.304     10.596
REMARK  0 active torsions:
REMARK  status: ('A' for Active; 'I' for Inactive)
ROOT
HETATM    1  O   LIG     1      15.334  33.427  17.693  1.00  0.00    -0.276 OA
HETATM    2  C   LIG     1      15.284  32.671  16.686  1.00  0.00     0.306 A 
HETATM    3  C   LIG     1      14.301  31.579  16.617  1.00  0.00     0.305 A 
HETATM    4  N   LIG     1      14.260  30.731  15.465  1.00  0.00    -0.272 N 
HETATM    5  O   LIG     1      13.497  31.388  17.568  1.00  0.00    -0.263 OA
HETATM    6  C   LIG     1      16.206  32.863  15.558  1.00  0.00     0.305 A 
HETATM    7  N   LIG     1      16.131  31.992  14.424  1.00  0.00    -0.272 N 
HETATM    8  C   LIG     1      15.167  30.933  14.374  1.00  0.00     0.330 A 
HETATM    9  O   LIG     1      15.116  30.177  13.368  1.00  0.00    -0.246 OA
HETATM   10  O   LIG     1      17.059  33.788  15.586  1.00  0.00    -0.263 OA
HETATM   11  H   LIG     1      13.561  29.957  15.418  1.00  0.00     0.174 HD
HETATM   12  H   LIG     1      16.788  32.131  13.622  1.00  0.00     0.174 HD
ENDROOT
TORSDOF 0
ENDMDL
MODEL 20
REMARK VINA RESULT:      -4.9      2.516      4.496
REMARK  0 active torsions:
REMARK  status: ('A' for Active; 'I' for Inactive)
ROOT
HETATM    1  O   LIG     1      16.474  35.012  22.695  1.00  0.00    -0.276 OA
HETATM    2  C   LIG     1      16.981  36.140  22.449  1.00  0.00     0.306 A 
HETATM    3  C   LIG     1      17.188  37.118  23.526  1.00  0.00     0.305 A 
HETATM    4  N   LIG     1      17.765  38.394  23.226  1.00  0.00    -0.272 N 
HETATM    5  O   LIG     1      16.860  36.839  24.710  1.00  0.00    -0.263 OA
HETATM    6  C   LIG     1      17.375  36.501  21.080  1.00  0.00     0.305 A 
HETATM    7  N   LIG     1      17.949  37.788  20.823  1.00  0.00    -0.272 N 
HETATM    8  C   LIG     1      18.144  38.729  21.886  1.00  0.00     0.330 A 
HETATM    9  O   LIG     1      18.650  39.856  21.640  1.00  0.00    -0.246 OA
HETATM   10  O   LIG     1      17.211  35.685  20.136  1.00  0.00    -0.263 OA
HETATM   11  H   LIG     1      17.912  39.088  23.993  1.00  0.00     0.174 HD
HETATM   12  H   LIG     1      18.229  38.043  19.849  1.00  0.00     0.174 HD
ENDROOT
TORSDOF 0
ENDMDL
