REMARK  11 active torsions:
REMARK  status: ('A' for Active; 'I' for Inactive)
REMARK    1  A    between atoms: O_1  and  C_2 
REMARK    2  A    between atoms: C_2  and  C_3 
REMARK    3  A    between atoms: C_2  and  C_5 
REMARK    4  A    between atoms: C_3  and  O_4 
REMARK    5  A    between atoms: C_5  and  C_7 
REMARK    6  A    between atoms: C_5  and  O_6 
REMARK    7  A    between atoms: C_7  and  C_9 
REMARK    8  A    between atoms: C_7  and  O_8 
REMARK    9  A    between atoms: C_9  and  C_11 
REMARK   10  A    between atoms: C_9  and  O_10 
REMARK   11  A    between atoms: C_11  and  O_12 
ROOT
HETATM    1  C   LIG     1       0.531  -0.820   0.727  1.00  0.00     0.180 C 
ENDROOT
BRANCH   1   2
HETATM    2  C   LIG     1       1.567   0.314   0.510  1.00  0.00     0.173 C 
BRANCH   2   3
HETATM    3  O   LIG     1       2.470   0.323   1.588  1.00  0.00    -0.391 OA
HETATM    4  H   LIG     1       2.043   0.834   2.324  1.00  0.00     0.210 HD
ENDBRANCH   2   3
BRANCH   2   5
HETATM    5  C   LIG     1       2.368   0.132  -0.787  1.00  0.00     0.198 C 
BRANCH   5   6
HETATM    6  O   LIG     1       3.358   1.121  -0.872  1.00  0.00    -0.398 OA
HETATM    7  H   LIG     1       3.852   0.945  -1.715  1.00  0.00     0.209 HD
ENDBRANCH   5   6
ENDBRANCH   2   5
ENDBRANCH   1   2
BRANCH   1   8
HETATM    8  C   LIG     1      -0.522  -0.983  -0.413  1.00  0.00     0.180 C 
BRANCH   8   9
HETATM    9  C   LIG     1      -1.286   0.311  -0.813  1.00  0.00     0.173 C 
BRANCH   9  10
HETATM   10  C   LIG     1      -2.126   0.916   0.328  1.00  0.00     0.198 C 
BRANCH  10  11
HETATM   11  O   LIG     1      -2.891   1.982  -0.164  1.00  0.00    -0.398 OA
HETATM   12  H   LIG     1      -3.418   2.322   0.605  1.00  0.00     0.209 HD
ENDBRANCH  10  11
ENDBRANCH   9  10
BRANCH   9  13
HETATM   13  O   LIG     1      -2.095   0.058  -1.936  1.00  0.00    -0.391 OA
HETATM   14  H   LIG     1      -2.825  -0.552  -1.654  1.00  0.00     0.210 HD
ENDBRANCH   9  13
ENDBRANCH   8   9
BRANCH   8  15
HETATM   15  O   LIG     1      -1.448  -1.981  -0.060  1.00  0.00    -0.390 OA
HETATM   16  H   LIG     1      -0.974  -2.852  -0.121  1.00  0.00     0.210 HD
ENDBRANCH   8  15
ENDBRANCH   1   8
BRANCH   1  17
HETATM   17  O   LIG     1      -0.114  -0.622   1.961  1.00  0.00    -0.390 OA
HETATM   18  H   LIG     1      -0.407  -1.513   2.288  1.00  0.00     0.210 HD
ENDBRANCH   1  17
TORSDOF 11
