REMARK  0 active torsions:
REMARK  status: ('A' for Active; 'I' for Inactive)
ROOT
HETATM    1  O   LIG     1       2.621   0.671   0.015  1.00  0.00    -0.276 OA
HETATM    2  C   LIG     1       1.400   0.358   0.008  1.00  0.00     0.306 A 
HETATM    3  C   LIG     1       0.361   1.397  -0.036  1.00  0.00     0.305 A 
HETATM    4  N   LIG     1      -1.020   1.021  -0.043  1.00  0.00    -0.272 N 
HETATM    5  O   LIG     1       0.682   2.615  -0.067  1.00  0.00    -0.263 OA
HETATM    6  C   LIG     1       0.988  -1.052   0.044  1.00  0.00     0.305 A 
HETATM    7  N   LIG     1      -0.405  -1.385   0.035  1.00  0.00    -0.272 N 
HETATM    8  C   LIG     1      -1.404  -0.359  -0.008  1.00  0.00     0.330 A 
HETATM    9  O   LIG     1      -2.624  -0.671  -0.015  1.00  0.00    -0.246 OA
HETATM   10  O   LIG     1       1.853  -1.966   0.082  1.00  0.00    -0.263 OA
HETATM   11  H   LIG     1      -1.757   1.761  -0.075  1.00  0.00     0.174 HD
HETATM   12  H   LIG     1      -0.696  -2.389   0.060  1.00  0.00     0.174 HD
ENDROOT
TORSDOF 0
