REMARK  6 active torsions:
REMARK  status: ('A' for Active; 'I' for Inactive)
REMARK    1  A    between atoms: O_1  and  C_2 
REMARK    2  A    between atoms: C_4  and  C_5 
REMARK    3  A    between atoms: C_5  and  O_6 
REMARK    4  A    between atoms: C_7  and  O_8 
REMARK    5  A    between atoms: C_9  and  O_10 
REMARK    6  A    between atoms: C_11  and  O_12 
ROOT
HETATM    1  C   LIG     1      -0.226   1.436   0.214  1.00  0.00     0.288 C 
HETATM    2  O   LIG     1       0.689   1.150  -0.829  1.00  0.00    -0.349 OA
HETATM    3  C   LIG     1       1.102  -0.215  -0.823  1.00  0.00     0.179 C 
HETATM    4  C   LIG     1      -0.022  -1.223  -0.431  1.00  0.00     0.180 C 
HETATM    5  C   LIG     1      -1.389  -0.607  -0.781  1.00  0.00     0.183 C 
HETATM    6  C   LIG     1      -1.584   0.746  -0.051  1.00  0.00     0.204 C 
ENDROOT
BRANCH   3   7
HETATM    7  C   LIG     1       2.392  -0.393  -0.002  1.00  0.00     0.198 C 
BRANCH   7   8
HETATM    8  O   LIG     1       3.426   0.388  -0.539  1.00  0.00    -0.398 OA
HETATM    9  H   LIG     1       3.285   1.313  -0.208  1.00  0.00     0.209 HD
ENDBRANCH   7   8
ENDBRANCH   3   7
BRANCH   4  10
HETATM   10  O   LIG     1       0.031  -1.528   0.943  1.00  0.00    -0.390 OA
HETATM   11  H   LIG     1      -0.452  -2.386   1.068  1.00  0.00     0.210 HD
ENDBRANCH   4  10
BRANCH   1  12
HETATM   12  O   LIG     1      -0.424   2.822   0.285  1.00  0.00    -0.369 OA
HETATM   13  H   LIG     1       0.448   3.217   0.548  1.00  0.00     0.212 HD
ENDBRANCH   1  12
BRANCH   5  14
HETATM   14  O   LIG     1      -2.432  -1.495  -0.468  1.00  0.00    -0.390 OA
HETATM   15  H   LIG     1      -2.399  -2.225  -1.140  1.00  0.00     0.210 HD
ENDBRANCH   5  14
BRANCH   6  16
HETATM   16  O   LIG     1      -2.242   0.562   1.178  1.00  0.00    -0.388 OA
HETATM   17  H   LIG     1      -3.216   0.545   0.987  1.00  0.00     0.210 HD
ENDBRANCH   6  16
TORSDOF 6
