MODEL 1
REMARK VINA RESULT:      -7.2      0.000      0.000
REMARK  4 active torsions:
REMARK  status: ('A' for Active; 'I' for Inactive)
REMARK    1  A    between atoms: C_2  and  C_4 
REMARK    2  A    between atoms: C_2  and  O_3 
REMARK    3  A    between atoms: C_4  and  C_5 
REMARK    4  A    between atoms: C_5  and  C_6 
ROOT
HETATM    1  C   LIG     1      17.255  36.318  24.173  1.00  0.00    -0.058 A 
HETATM    2  C   LIG     1      17.296  35.027  24.729  1.00  0.00     0.007 A 
HETATM    3  C   LIG     1      17.832  34.826  26.004  1.00  0.00     0.001 A 
HETATM    4  C   LIG     1      18.334  35.908  26.732  1.00  0.00     0.000 A 
HETATM    5  C   LIG     1      18.303  37.193  26.185  1.00  0.00     0.001 A 
HETATM    6  C   LIG     1      17.767  37.400  24.910  1.00  0.00     0.007 A 
ENDROOT
BRANCH   1   7
HETATM    7  C   LIG     1      16.682  36.532  22.796  1.00  0.00     0.049 C 
BRANCH   7   8
HETATM    8  C   LIG     1      16.737  35.243  21.971  1.00  0.00     0.114 C 
BRANCH   8   9
HETATM    9  C   LIG     1      15.703  35.269  20.886  1.00  0.00     0.139 C 
HETATM   10  O   LIG     1      16.001  34.888  19.724  1.00  0.00    -0.650 OA
BRANCH   9  11
HETATM   11  O   LIG     1      14.399  35.673  21.162  1.00  0.00    -0.776 OA
HETATM   12  H   LIG     1      14.097  35.850  22.112  1.00  0.00     0.167 HD
ENDBRANCH   9  11
ENDBRANCH   8   9
ENDBRANCH   7   8
ENDBRANCH   1   7
TORSDOF 4
ENDMDL
MODEL 2
REMARK VINA RESULT:      -7.0      2.457      2.820
REMARK  4 active torsions:
REMARK  status: ('A' for Active; 'I' for Inactive)
REMARK    1  A    between atoms: C_2  and  C_4 
REMARK    2  A    between atoms: C_2  and  O_3 
REMARK    3  A    between atoms: C_4  and  C_5 
REMARK    4  A    between atoms: C_5  and  C_6 
ROOT
HETATM    1  C   LIG     1      17.188  36.829  24.274  1.00  0.00    -0.058 A 
HETATM    2  C   LIG     1      17.080  35.434  24.411  1.00  0.00     0.007 A 
HETATM    3  C   LIG     1      17.643  34.790  25.517  1.00  0.00     0.001 A 
HETATM    4  C   LIG     1      18.319  35.529  26.491  1.00  0.00     0.000 A 
HETATM    5  C   LIG     1      18.436  36.915  26.359  1.00  0.00     0.001 A 
HETATM    6  C   LIG     1      17.874  37.565  25.256  1.00  0.00     0.007 A 
ENDROOT
BRANCH   1   7
HETATM    7  C   LIG     1      16.586  37.522  23.079  1.00  0.00     0.049 C 
BRANCH   7   8
HETATM    8  C   LIG     1      17.280  38.862  22.814  1.00  0.00     0.114 C 
BRANCH   8   9
HETATM    9  C   LIG     1      18.161  38.766  21.606  1.00  0.00     0.139 C 
HETATM   10  O   LIG     1      18.179  37.710  20.922  1.00  0.00    -0.650 OA
BRANCH   9  11
HETATM   11  O   LIG     1      18.934  39.854  21.207  1.00  0.00    -0.776 OA
HETATM   12  H   LIG     1      19.204  39.976  20.239  1.00  0.00     0.167 HD
ENDBRANCH   9  11
ENDBRANCH   8   9
ENDBRANCH   7   8
ENDBRANCH   1   7
TORSDOF 4
ENDMDL
MODEL 3
REMARK VINA RESULT:      -7.0      3.690      5.273
REMARK  4 active torsions:
REMARK  status: ('A' for Active; 'I' for Inactive)
REMARK    1  A    between atoms: C_2  and  C_4 
REMARK    2  A    between atoms: C_2  and  O_3 
REMARK    3  A    between atoms: C_4  and  C_5 
REMARK    4  A    between atoms: C_5  and  C_6 
ROOT
HETATM    1  C   LIG     1      17.613  37.836  21.645  1.00  0.00    -0.058 A 
HETATM    2  C   LIG     1      17.868  36.768  20.767  1.00  0.00     0.007 A 
HETATM    3  C   LIG     1      18.825  36.900  19.757  1.00  0.00     0.001 A 
HETATM    4  C   LIG     1      19.531  38.097  19.612  1.00  0.00     0.000 A 
HETATM    5  C   LIG     1      19.280  39.165  20.476  1.00  0.00     0.001 A 
HETATM    6  C   LIG     1      18.324  39.038  21.489  1.00  0.00     0.007 A 
ENDROOT
BRANCH   1   7
HETATM    7  C   LIG     1      16.577  37.695  22.731  1.00  0.00     0.049 C 
BRANCH   7   8
HETATM    8  C   LIG     1      17.116  36.863  23.899  1.00  0.00     0.114 C 
BRANCH   8   9
HETATM    9  C   LIG     1      17.639  37.757  24.981  1.00  0.00     0.139 C 
HETATM   10  O   LIG     1      17.028  38.817  25.272  1.00  0.00    -0.650 OA
BRANCH   9  11
HETATM   11  O   LIG     1      18.778  37.402  25.702  1.00  0.00    -0.776 OA
HETATM   12  H   LIG     1      19.007  37.860  26.575  1.00  0.00     0.167 HD
ENDBRANCH   9  11
ENDBRANCH   8   9
ENDBRANCH   7   8
ENDBRANCH   1   7
TORSDOF 4
ENDMDL
MODEL 4
REMARK VINA RESULT:      -6.9      2.895      4.196
REMARK  4 active torsions:
REMARK  status: ('A' for Active; 'I' for Inactive)
REMARK    1  A    between atoms: C_2  and  C_4 
REMARK    2  A    between atoms: C_2  and  O_3 
REMARK    3  A    between atoms: C_4  and  C_5 
REMARK    4  A    between atoms: C_5  and  C_6 
ROOT
HETATM    1  C   LIG     1      17.649  37.329  21.245  1.00  0.00    -0.058 A 
HETATM    2  C   LIG     1      18.324  36.693  20.189  1.00  0.00     0.007 A 
HETATM    3  C   LIG     1      19.303  37.379  19.464  1.00  0.00     0.001 A 
HETATM    4  C   LIG     1      19.613  38.703  19.784  1.00  0.00     0.000 A 
HETATM    5  C   LIG     1      18.943  39.345  20.829  1.00  0.00     0.001 A 
HETATM    6  C   LIG     1      17.963  38.663  21.557  1.00  0.00     0.007 A 
ENDROOT
BRANCH   1   7
HETATM    7  C   LIG     1      16.590  36.590  22.022  1.00  0.00     0.049 C 
BRANCH   7   8
HETATM    8  C   LIG     1      16.760  35.075  21.878  1.00  0.00     0.114 C 
BRANCH   8   9
HETATM    9  C   LIG     1      15.634  34.495  21.077  1.00  0.00     0.139 C 
HETATM   10  O   LIG     1      15.871  33.915  19.986  1.00  0.00    -0.650 OA
BRANCH   9  11
HETATM   11  O   LIG     1      14.326  34.552  21.553  1.00  0.00    -0.776 OA
HETATM   12  H   LIG     1      13.789  33.709  21.708  1.00  0.00     0.167 HD
ENDBRANCH   9  11
ENDBRANCH   8   9
ENDBRANCH   7   8
ENDBRANCH   1   7
TORSDOF 4
ENDMDL
MODEL 5
REMARK VINA RESULT:      -6.4      3.204      4.124
REMARK  4 active torsions:
REMARK  status: ('A' for Active; 'I' for Inactive)
REMARK    1  A    between atoms: C_2  and  C_4 
REMARK    2  A    between atoms: C_2  and  O_3 
REMARK    3  A    between atoms: C_4  and  C_5 
REMARK    4  A    between atoms: C_5  and  C_6 
ROOT
HETATM    1  C   LIG     1      17.495  37.747  22.425  1.00  0.00    -0.058 A 
HETATM    2  C   LIG     1      17.633  38.008  23.799  1.00  0.00     0.007 A 
HETATM    3  C   LIG     1      17.449  36.984  24.733  1.00  0.00     0.001 A 
HETATM    4  C   LIG     1      17.123  35.695  24.304  1.00  0.00     0.000 A 
HETATM    5  C   LIG     1      16.979  35.428  22.940  1.00  0.00     0.001 A 
HETATM    6  C   LIG     1      17.162  36.449  22.002  1.00  0.00     0.007 A 
ENDROOT
BRANCH   1   7
HETATM    7  C   LIG     1      17.688  38.853  21.420  1.00  0.00     0.049 C 
BRANCH   7   8
HETATM    8  C   LIG     1      19.176  39.150  21.209  1.00  0.00     0.114 C 
BRANCH   8   9
HETATM    9  C   LIG     1      19.600  38.754  19.828  1.00  0.00     0.139 C 
HETATM   10  O   LIG     1      19.041  37.784  19.252  1.00  0.00    -0.650 OA
BRANCH   9  11
HETATM   11  O   LIG     1      20.581  39.478  19.154  1.00  0.00    -0.776 OA
HETATM   12  H   LIG     1      21.058  39.089  18.351  1.00  0.00     0.167 HD
ENDBRANCH   9  11
ENDBRANCH   8   9
ENDBRANCH   7   8
ENDBRANCH   1   7
TORSDOF 4
ENDMDL
MODEL 6
REMARK VINA RESULT:      -6.3      3.267      5.128
REMARK  4 active torsions:
REMARK  status: ('A' for Active; 'I' for Inactive)
REMARK    1  A    between atoms: C_2  and  C_4 
REMARK    2  A    between atoms: C_2  and  O_3 
REMARK    3  A    between atoms: C_4  and  C_5 
REMARK    4  A    between atoms: C_5  and  C_6 
ROOT
HETATM    1  C   LIG     1      17.276  37.675  22.564  1.00  0.00    -0.058 A 
HETATM    2  C   LIG     1      18.053  38.793  22.213  1.00  0.00     0.007 A 
HETATM    3  C   LIG     1      18.760  38.810  21.007  1.00  0.00     0.001 A 
HETATM    4  C   LIG     1      18.701  37.712  20.145  1.00  0.00     0.000 A 
HETATM    5  C   LIG     1      17.936  36.594  20.488  1.00  0.00     0.001 A 
HETATM    6  C   LIG     1      17.226  36.573  21.693  1.00  0.00     0.007 A 
ENDROOT
BRANCH   1   7
HETATM    7  C   LIG     1      16.519  37.657  23.866  1.00  0.00     0.049 C 
BRANCH   7   8
HETATM    8  C   LIG     1      17.467  37.839  25.056  1.00  0.00     0.114 C 
BRANCH   8   9
HETATM    9  C   LIG     1      17.757  36.519  25.703  1.00  0.00     0.139 C 
HETATM   10  O   LIG     1      18.301  36.480  26.837  1.00  0.00    -0.650 OA
BRANCH   9  11
HETATM   11  O   LIG     1      17.390  35.329  25.077  1.00  0.00    -0.776 OA
HETATM   12  H   LIG     1      16.571  34.814  25.375  1.00  0.00     0.167 HD
ENDBRANCH   9  11
ENDBRANCH   8   9
ENDBRANCH   7   8
ENDBRANCH   1   7
TORSDOF 4
ENDMDL
MODEL 7
REMARK VINA RESULT:      -6.2      3.222      4.943
REMARK  4 active torsions:
REMARK  status: ('A' for Active; 'I' for Inactive)
REMARK    1  A    between atoms: C_2  and  C_4 
REMARK    2  A    between atoms: C_2  and  O_3 
REMARK    3  A    between atoms: C_4  and  C_5 
REMARK    4  A    between atoms: C_5  and  C_6 
ROOT
HETATM    1  C   LIG     1      17.726  37.767  21.296  1.00  0.00    -0.058 A 
HETATM    2  C   LIG     1      18.372  39.015  21.289  1.00  0.00     0.007 A 
HETATM    3  C   LIG     1      19.415  39.265  20.392  1.00  0.00     0.001 A 
HETATM    4  C   LIG     1      19.823  38.271  19.499  1.00  0.00     0.000 A 
HETATM    5  C   LIG     1      19.191  37.025  19.502  1.00  0.00     0.001 A 
HETATM    6  C   LIG     1      18.147  36.771  20.397  1.00  0.00     0.007 A 
ENDROOT
BRANCH   1   7
HETATM    7  C   LIG     1      16.606  37.497  22.267  1.00  0.00     0.049 C 
BRANCH   7   8
HETATM    8  C   LIG     1      17.145  36.940  23.587  1.00  0.00     0.114 C 
BRANCH   8   9
HETATM    9  C   LIG     1      16.985  35.451  23.633  1.00  0.00     0.139 C 
HETATM   10  O   LIG     1      17.340  34.811  24.656  1.00  0.00    -0.650 OA
BRANCH   9  11
HETATM   11  O   LIG     1      16.405  34.769  22.565  1.00  0.00    -0.776 OA
HETATM   12  H   LIG     1      15.449  34.441  22.613  1.00  0.00     0.167 HD
ENDBRANCH   9  11
ENDBRANCH   8   9
ENDBRANCH   7   8
ENDBRANCH   1   7
TORSDOF 4
ENDMDL
MODEL 8
REMARK VINA RESULT:      -6.1      2.992      3.984
REMARK  4 active torsions:
REMARK  status: ('A' for Active; 'I' for Inactive)
REMARK    1  A    between atoms: C_2  and  C_4 
REMARK    2  A    between atoms: C_2  and  O_3 
REMARK    3  A    between atoms: C_4  and  C_5 
REMARK    4  A    between atoms: C_5  and  C_6 
ROOT
HETATM    1  C   LIG     1      17.759  37.067  20.929  1.00  0.00    -0.058 A 
HETATM    2  C   LIG     1      17.273  37.754  22.055  1.00  0.00     0.007 A 
HETATM    3  C   LIG     1      17.761  39.025  22.370  1.00  0.00     0.001 A 
HETATM    4  C   LIG     1      18.739  39.619  21.568  1.00  0.00     0.000 A 
HETATM    5  C   LIG     1      19.232  38.942  20.450  1.00  0.00     0.001 A 
HETATM    6  C   LIG     1      18.746  37.670  20.130  1.00  0.00     0.007 A 
ENDROOT
BRANCH   1   7
HETATM    7  C   LIG     1      17.235  35.694  20.594  1.00  0.00     0.049 C 
BRANCH   7   8
HETATM    8  C   LIG     1      16.460  35.099  21.773  1.00  0.00     0.114 C 
BRANCH   8   9
HETATM    9  C   LIG     1      15.001  35.001  21.446  1.00  0.00     0.139 C 
HETATM   10  O   LIG     1      14.358  36.034  21.124  1.00  0.00    -0.650 OA
BRANCH   9  11
HETATM   11  O   LIG     1      14.357  33.766  21.453  1.00  0.00    -0.776 OA
HETATM   12  H   LIG     1      14.806  32.940  21.078  1.00  0.00     0.167 HD
ENDBRANCH   9  11
ENDBRANCH   8   9
ENDBRANCH   7   8
ENDBRANCH   1   7
TORSDOF 4
ENDMDL
MODEL 9
REMARK VINA RESULT:      -6.0      6.317      9.814
REMARK  4 active torsions:
REMARK  status: ('A' for Active; 'I' for Inactive)
REMARK    1  A    between atoms: C_2  and  C_4 
REMARK    2  A    between atoms: C_2  and  O_3 
REMARK    3  A    between atoms: C_4  and  C_5 
REMARK    4  A    between atoms: C_5  and  C_6 
ROOT
HETATM    1  C   LIG     1      14.169  31.377  16.002  1.00  0.00    -0.058 A 
HETATM    2  C   LIG     1      13.293  30.359  15.587  1.00  0.00     0.007 A 
HETATM    3  C   LIG     1      13.598  29.580  14.467  1.00  0.00     0.001 A 
HETATM    4  C   LIG     1      14.774  29.813  13.751  1.00  0.00     0.000 A 
HETATM    5  C   LIG     1      15.648  30.827  14.152  1.00  0.00     0.001 A 
HETATM    6  C   LIG     1      15.348  31.608  15.273  1.00  0.00     0.007 A 
ENDROOT
BRANCH   1   7
HETATM    7  C   LIG     1      13.836  32.220  17.207  1.00  0.00     0.049 C 
BRANCH   7   8
HETATM    8  C   LIG     1      15.106  32.790  17.846  1.00  0.00     0.114 C 
BRANCH   8   9
HETATM    9  C   LIG     1      15.131  32.499  19.315  1.00  0.00     0.139 C 
HETATM   10  O   LIG     1      15.900  33.146  20.072  1.00  0.00    -0.650 OA
BRANCH   9  11
HETATM   11  O   LIG     1      14.276  31.544  19.861  1.00  0.00    -0.776 OA
HETATM   12  H   LIG     1      13.954  30.756  19.312  1.00  0.00     0.167 HD
ENDBRANCH   9  11
ENDBRANCH   8   9
ENDBRANCH   7   8
ENDBRANCH   1   7
TORSDOF 4
ENDMDL
MODEL 10
REMARK VINA RESULT:      -6.0      1.186      1.630
REMARK  4 active torsions:
REMARK  status: ('A' for Active; 'I' for Inactive)
REMARK    1  A    between atoms: C_2  and  C_4 
REMARK    2  A    between atoms: C_2  and  O_3 
REMARK    3  A    between atoms: C_4  and  C_5 
REMARK    4  A    between atoms: C_5  and  C_6 
ROOT
HETATM    1  C   LIG     1      17.071  36.010  23.003  1.00  0.00    -0.058 A 
HETATM    2  C   LIG     1      17.235  35.039  24.006  1.00  0.00     0.007 A 
HETATM    3  C   LIG     1      17.496  35.425  25.324  1.00  0.00     0.001 A 
HETATM    4  C   LIG     1      17.599  36.779  25.651  1.00  0.00     0.000 A 
HETATM    5  C   LIG     1      17.443  37.751  24.659  1.00  0.00     0.001 A 
HETATM    6  C   LIG     1      17.181  37.370  23.339  1.00  0.00     0.007 A 
ENDROOT
BRANCH   1   7
HETATM    7  C   LIG     1      16.795  35.593  21.581  1.00  0.00     0.049 C 
BRANCH   7   8
HETATM    8  C   LIG     1      15.822  34.411  21.535  1.00  0.00     0.114 C 
BRANCH   8   9
HETATM    9  C   LIG     1      15.610  33.961  20.122  1.00  0.00     0.139 C 
HETATM   10  O   LIG     1      15.436  32.740  19.869  1.00  0.00    -0.650 OA
BRANCH   9  11
HETATM   11  O   LIG     1      15.561  34.889  19.084  1.00  0.00    -0.776 OA
HETATM   12  H   LIG     1      15.961  34.681  18.178  1.00  0.00     0.167 HD
ENDBRANCH   9  11
ENDBRANCH   8   9
ENDBRANCH   7   8
ENDBRANCH   1   7
TORSDOF 4
ENDMDL
MODEL 11
REMARK VINA RESULT:      -6.0      6.338      9.909
REMARK  4 active torsions:
REMARK  status: ('A' for Active; 'I' for Inactive)
REMARK    1  A    between atoms: C_2  and  C_4 
REMARK    2  A    between atoms: C_2  and  O_3 
REMARK    3  A    between atoms: C_4  and  C_5 
REMARK    4  A    between atoms: C_5  and  C_6 
ROOT
HETATM    1  C   LIG     1      14.159  31.388  15.961  1.00  0.00    -0.058 A 
HETATM    2  C   LIG     1      15.350  31.645  15.261  1.00  0.00     0.007 A 
HETATM    3  C   LIG     1      15.690  30.878  14.142  1.00  0.00     0.001 A 
HETATM    4  C   LIG     1      14.848  29.848  13.717  1.00  0.00     0.000 A 
HETATM    5  C   LIG     1      13.664  29.581  14.410  1.00  0.00     0.001 A 
HETATM    6  C   LIG     1      13.319  30.347  15.529  1.00  0.00     0.007 A 
ENDROOT
BRANCH   1   7
HETATM    7  C   LIG     1      13.796  32.212  17.169  1.00  0.00     0.049 C 
BRANCH   7   8
HETATM    8  C   LIG     1      15.046  32.814  17.818  1.00  0.00     0.114 C 
BRANCH   8   9
HETATM    9  C   LIG     1      15.118  32.438  19.266  1.00  0.00     0.139 C 
HETATM   10  O   LIG     1      15.882  33.068  20.043  1.00  0.00    -0.650 OA
BRANCH   9  11
HETATM   11  O   LIG     1      14.312  31.421  19.773  1.00  0.00    -0.776 OA
HETATM   12  H   LIG     1      13.960  31.457  20.721  1.00  0.00     0.167 HD
ENDBRANCH   9  11
ENDBRANCH   8   9
ENDBRANCH   7   8
ENDBRANCH   1   7
TORSDOF 4
ENDMDL
MODEL 12
REMARK VINA RESULT:      -5.9      1.398      2.419
REMARK  4 active torsions:
REMARK  status: ('A' for Active; 'I' for Inactive)
REMARK    1  A    between atoms: C_2  and  C_4 
REMARK    2  A    between atoms: C_2  and  O_3 
REMARK    3  A    between atoms: C_4  and  C_5 
REMARK    4  A    between atoms: C_5  and  C_6 
ROOT
HETATM    1  C   LIG     1      16.969  36.021  23.044  1.00  0.00    -0.058 A 
HETATM    2  C   LIG     1      17.005  37.342  22.567  1.00  0.00     0.007 A 
HETATM    3  C   LIG     1      17.302  38.397  23.435  1.00  0.00     0.001 A 
HETATM    4  C   LIG     1      17.561  38.143  24.784  1.00  0.00     0.000 A 
HETATM    5  C   LIG     1      17.521  36.833  25.268  1.00  0.00     0.001 A 
HETATM    6  C   LIG     1      17.226  35.774  24.403  1.00  0.00     0.007 A 
ENDROOT
BRANCH   1   7
HETATM    7  C   LIG     1      16.643  34.885  22.108  1.00  0.00     0.049 C 
BRANCH   7   8
HETATM    8  C   LIG     1      15.697  35.345  20.995  1.00  0.00     0.114 C 
BRANCH   8   9
HETATM    9  C   LIG     1      15.697  34.360  19.866  1.00  0.00     0.139 C 
HETATM   10  O   LIG     1      15.882  33.137  20.097  1.00  0.00    -0.650 OA
BRANCH   9  11
HETATM   11  O   LIG     1      15.451  34.781  18.561  1.00  0.00    -0.776 OA
HETATM   12  H   LIG     1      16.110  34.589  17.817  1.00  0.00     0.167 HD
ENDBRANCH   9  11
ENDBRANCH   8   9
ENDBRANCH   7   8
ENDBRANCH   1   7
TORSDOF 4
ENDMDL
MODEL 13
REMARK VINA RESULT:      -5.9      6.831      9.911
REMARK  4 active torsions:
REMARK  status: ('A' for Active; 'I' for Inactive)
REMARK    1  A    between atoms: C_2  and  C_4 
REMARK    2  A    between atoms: C_2  and  O_3 
REMARK    3  A    between atoms: C_4  and  C_5 
REMARK    4  A    between atoms: C_5  and  C_6 
ROOT
HETATM    1  C   LIG     1      14.062  31.271  15.921  1.00  0.00    -0.058 A 
HETATM    2  C   LIG     1      13.148  30.283  15.514  1.00  0.00     0.007 A 
HETATM    3  C   LIG     1      13.458  29.432  14.449  1.00  0.00     0.001 A 
HETATM    4  C   LIG     1      14.678  29.561  13.781  1.00  0.00     0.000 A 
HETATM    5  C   LIG     1      15.590  30.544  14.175  1.00  0.00     0.001 A 
HETATM    6  C   LIG     1      15.285  31.397  15.240  1.00  0.00     0.007 A 
ENDROOT
BRANCH   1   7
HETATM    7  C   LIG     1      13.725  32.191  17.066  1.00  0.00     0.049 C 
BRANCH   7   8
HETATM    8  C   LIG     1      14.987  32.603  17.830  1.00  0.00     0.114 C 
BRANCH   8   9
HETATM    9  C   LIG     1      15.218  34.078  17.704  1.00  0.00     0.139 C 
HETATM   10  O   LIG     1      15.105  34.639  16.583  1.00  0.00    -0.650 OA
BRANCH   9  11
HETATM   11  O   LIG     1      15.517  34.845  18.827  1.00  0.00    -0.776 OA
HETATM   12  H   LIG     1      16.171  35.615  18.775  1.00  0.00     0.167 HD
ENDBRANCH   9  11
ENDBRANCH   8   9
ENDBRANCH   7   8
ENDBRANCH   1   7
TORSDOF 4
ENDMDL
MODEL 14
REMARK VINA RESULT:      -5.9      8.952     10.196
REMARK  4 active torsions:
REMARK  status: ('A' for Active; 'I' for Inactive)
REMARK    1  A    between atoms: C_2  and  C_4 
REMARK    2  A    between atoms: C_2  and  O_3 
REMARK    3  A    between atoms: C_4  and  C_5 
REMARK    4  A    between atoms: C_5  and  C_6 
ROOT
HETATM    1  C   LIG     1      15.703  32.147  15.317  1.00  0.00    -0.058 A 
HETATM    2  C   LIG     1      15.235  31.050  14.573  1.00  0.00     0.007 A 
HETATM    3  C   LIG     1      14.090  30.359  14.981  1.00  0.00     0.001 A 
HETATM    4  C   LIG     1      13.407  30.753  16.134  1.00  0.00     0.000 A 
HETATM    5  C   LIG     1      13.869  31.838  16.883  1.00  0.00     0.001 A 
HETATM    6  C   LIG     1      15.013  32.534  16.478  1.00  0.00     0.007 A 
ENDROOT
BRANCH   1   7
HETATM    7  C   LIG     1      16.940  32.888  14.879  1.00  0.00     0.049 C 
BRANCH   7   8
HETATM    8  C   LIG     1      17.040  32.935  13.351  1.00  0.00     0.114 C 
BRANCH   8   9
HETATM    9  C   LIG     1      17.782  34.160  12.911  1.00  0.00     0.139 C 
HETATM   10  O   LIG     1      18.982  34.325  13.254  1.00  0.00    -0.650 OA
BRANCH   9  11
HETATM   11  O   LIG     1      17.169  35.101  12.088  1.00  0.00    -0.776 OA
HETATM   12  H   LIG     1      16.876  36.000  12.449  1.00  0.00     0.167 HD
ENDBRANCH   9  11
ENDBRANCH   8   9
ENDBRANCH   7   8
ENDBRANCH   1   7
TORSDOF 4
ENDMDL
MODEL 15
REMARK VINA RESULT:      -5.7      9.057     10.972
REMARK  4 active torsions:
REMARK  status: ('A' for Active; 'I' for Inactive)
REMARK    1  A    between atoms: C_2  and  C_4 
REMARK    2  A    between atoms: C_2  and  O_3 
REMARK    3  A    between atoms: C_4  and  C_5 
REMARK    4  A    between atoms: C_5  and  C_6 
ROOT
HETATM    1  C   LIG     1      14.550  30.830  15.156  1.00  0.00    -0.058 A 
HETATM    2  C   LIG     1      15.573  31.789  15.049  1.00  0.00     0.007 A 
HETATM    3  C   LIG     1      15.677  32.817  15.990  1.00  0.00     0.001 A 
HETATM    4  C   LIG     1      14.761  32.900  17.042  1.00  0.00     0.000 A 
HETATM    5  C   LIG     1      13.738  31.955  17.153  1.00  0.00     0.001 A 
HETATM    6  C   LIG     1      13.630  30.923  16.215  1.00  0.00     0.007 A 
ENDROOT
BRANCH   1   7
HETATM    7  C   LIG     1      14.436  29.725  14.138  1.00  0.00     0.049 C 
BRANCH   7   8
HETATM    8  C   LIG     1      13.094  28.999  14.264  1.00  0.00     0.114 C 
BRANCH   8   9
HETATM    9  C   LIG     1      13.166  27.648  13.620  1.00  0.00     0.139 C 
HETATM   10  O   LIG     1      12.132  26.935  13.535  1.00  0.00    -0.650 OA
BRANCH   9  11
HETATM   11  O   LIG     1      14.362  27.188  13.074  1.00  0.00    -0.776 OA
HETATM   12  H   LIG     1      15.255  27.494  13.440  1.00  0.00     0.167 HD
ENDBRANCH   9  11
ENDBRANCH   8   9
ENDBRANCH   7   8
ENDBRANCH   1   7
TORSDOF 4
ENDMDL
MODEL 16
REMARK VINA RESULT:      -5.6      9.363     11.123
REMARK  4 active torsions:
REMARK  status: ('A' for Active; 'I' for Inactive)
REMARK    1  A    between atoms: C_2  and  C_4 
REMARK    2  A    between atoms: C_2  and  O_3 
REMARK    3  A    between atoms: C_4  and  C_5 
REMARK    4  A    between atoms: C_5  and  C_6 
ROOT
HETATM    1  C   LIG     1      14.787  30.837  14.799  1.00  0.00    -0.058 A 
HETATM    2  C   LIG     1      13.584  30.515  15.450  1.00  0.00     0.007 A 
HETATM    3  C   LIG     1      13.167  31.251  16.564  1.00  0.00     0.001 A 
HETATM    4  C   LIG     1      13.947  32.308  17.037  1.00  0.00     0.000 A 
HETATM    5  C   LIG     1      15.148  32.632  16.399  1.00  0.00     0.001 A 
HETATM    6  C   LIG     1      15.569  31.900  15.284  1.00  0.00     0.007 A 
ENDROOT
BRANCH   1   7
HETATM    7  C   LIG     1      15.238  30.040  13.602  1.00  0.00     0.049 C 
BRANCH   7   8
HETATM    8  C   LIG     1      15.617  28.611  14.004  1.00  0.00     0.114 C 
BRANCH   8   9
HETATM    9  C   LIG     1      14.787  27.617  13.252  1.00  0.00     0.139 C 
HETATM   10  O   LIG     1      13.650  27.291  13.683  1.00  0.00    -0.650 OA
BRANCH   9  11
HETATM   11  O   LIG     1      15.245  27.078  12.051  1.00  0.00    -0.776 OA
HETATM   12  H   LIG     1      15.722  27.653  11.369  1.00  0.00     0.167 HD
ENDBRANCH   9  11
ENDBRANCH   8   9
ENDBRANCH   7   8
ENDBRANCH   1   7
TORSDOF 4
ENDMDL
MODEL 17
REMARK VINA RESULT:      -5.3      8.641     10.298
REMARK  4 active torsions:
REMARK  status: ('A' for Active; 'I' for Inactive)
REMARK    1  A    between atoms: C_2  and  C_4 
REMARK    2  A    between atoms: C_2  and  O_3 
REMARK    3  A    between atoms: C_4  and  C_5 
REMARK    4  A    between atoms: C_5  and  C_6 
ROOT
HETATM    1  C   LIG     1      15.021  31.308  15.250  1.00  0.00    -0.058 A 
HETATM    2  C   LIG     1      15.010  32.320  16.224  1.00  0.00     0.007 A 
HETATM    3  C   LIG     1      13.920  32.454  17.090  1.00  0.00     0.001 A 
HETATM    4  C   LIG     1      12.833  31.582  16.987  1.00  0.00     0.000 A 
HETATM    5  C   LIG     1      12.833  30.576  16.017  1.00  0.00     0.001 A 
HETATM    6  C   LIG     1      13.922  30.438  15.150  1.00  0.00     0.007 A 
ENDROOT
BRANCH   1   7
HETATM    7  C   LIG     1      16.195  31.168  14.314  1.00  0.00     0.049 C 
BRANCH   7   8
HETATM    8  C   LIG     1      16.099  32.171  13.160  1.00  0.00     0.114 C 
BRANCH   8   9
HETATM    9  C   LIG     1      17.273  33.100  13.172  1.00  0.00     0.139 C 
HETATM   10  O   LIG     1      17.336  34.023  14.025  1.00  0.00    -0.650 OA
BRANCH   9  11
HETATM   11  O   LIG     1      18.323  32.925  12.273  1.00  0.00    -0.776 OA
HETATM   12  H   LIG     1      19.275  32.807  12.598  1.00  0.00     0.167 HD
ENDBRANCH   9  11
ENDBRANCH   8   9
ENDBRANCH   7   8
ENDBRANCH   1   7
TORSDOF 4
ENDMDL
MODEL 18
REMARK VINA RESULT:      -5.0      9.491     11.180
REMARK  4 active torsions:
REMARK  status: ('A' for Active; 'I' for Inactive)
REMARK    1  A    between atoms: C_2  and  C_4 
REMARK    2  A    between atoms: C_2  and  O_3 
REMARK    3  A    between atoms: C_4  and  C_5 
REMARK    4  A    between atoms: C_5  and  C_6 
ROOT
HETATM    1  C   LIG     1      14.763  30.761  15.002  1.00  0.00    -0.058 A 
HETATM    2  C   LIG     1      13.402  30.442  15.147  1.00  0.00     0.007 A 
HETATM    3  C   LIG     1      12.898  29.250  14.619  1.00  0.00     0.001 A 
HETATM    4  C   LIG     1      13.745  28.370  13.941  1.00  0.00     0.000 A 
HETATM    5  C   LIG     1      15.099  28.682  13.788  1.00  0.00     0.001 A 
HETATM    6  C   LIG     1      15.608  29.873  14.315  1.00  0.00     0.007 A 
ENDROOT
BRANCH   1   7
HETATM    7  C   LIG     1      15.304  32.050  15.567  1.00  0.00     0.049 C 
BRANCH   7   8
HETATM    8  C   LIG     1      16.804  32.187  15.285  1.00  0.00     0.114 C 
BRANCH   8   9
HETATM    9  C   LIG     1      17.043  33.190  14.198  1.00  0.00     0.139 C 
HETATM   10  O   LIG     1      17.921  34.080  14.346  1.00  0.00    -0.650 OA
BRANCH   9  11
HETATM   11  O   LIG     1      16.331  33.121  13.003  1.00  0.00    -0.776 OA
HETATM   12  H   LIG     1      15.648  33.828  12.761  1.00  0.00     0.167 HD
ENDBRANCH   9  11
ENDBRANCH   8   9
ENDBRANCH   7   8
ENDBRANCH   1   7
TORSDOF 4
ENDMDL
MODEL 19
REMARK VINA RESULT:      -5.0      5.804      7.607
REMARK  4 active torsions:
REMARK  status: ('A' for Active; 'I' for Inactive)
REMARK    1  A    between atoms: C_2  and  C_4 
REMARK    2  A    between atoms: C_2  and  O_3 
REMARK    3  A    between atoms: C_4  and  C_5 
REMARK    4  A    between atoms: C_5  and  C_6 
ROOT
HETATM    1  C   LIG     1      15.157  32.980  17.764  1.00  0.00    -0.058 A 
HETATM    2  C   LIG     1      15.416  34.337  18.022  1.00  0.00     0.007 A 
HETATM    3  C   LIG     1      15.580  34.786  19.336  1.00  0.00     0.001 A 
HETATM    4  C   LIG     1      15.482  33.888  20.401  1.00  0.00     0.000 A 
HETATM    5  C   LIG     1      15.218  32.538  20.154  1.00  0.00     0.001 A 
HETATM    6  C   LIG     1      15.055  32.083  18.841  1.00  0.00     0.007 A 
ENDROOT
BRANCH   1   7
HETATM    7  C   LIG     1      14.976  32.498  16.347  1.00  0.00     0.049 C 
BRANCH   7   8
HETATM    8  C   LIG     1      16.179  32.881  15.479  1.00  0.00     0.114 C 
BRANCH   8   9
HETATM    9  C   LIG     1      16.143  32.140  14.178  1.00  0.00     0.139 C 
HETATM   10  O   LIG     1      16.029  30.887  14.170  1.00  0.00    -0.650 OA
BRANCH   9  11
HETATM   11  O   LIG     1      16.192  32.832  12.969  1.00  0.00    -0.776 OA
HETATM   12  H   LIG     1      16.844  33.593  12.829  1.00  0.00     0.167 HD
ENDBRANCH   9  11
ENDBRANCH   8   9
ENDBRANCH   7   8
ENDBRANCH   1   7
TORSDOF 4
ENDMDL
MODEL 20
REMARK VINA RESULT:      -4.9      3.299      6.141
REMARK  4 active torsions:
REMARK  status: ('A' for Active; 'I' for Inactive)
REMARK    1  A    between atoms: C_2  and  C_4 
REMARK    2  A    between atoms: C_2  and  O_3 
REMARK    3  A    between atoms: C_4  and  C_5 
REMARK    4  A    between atoms: C_5  and  C_6 
ROOT
HETATM    1  C   LIG     1      15.659  34.083  20.120  1.00  0.00    -0.058 A 
HETATM    2  C   LIG     1      15.599  34.839  18.937  1.00  0.00     0.007 A 
HETATM    3  C   LIG     1      15.243  34.232  17.729  1.00  0.00     0.001 A 
HETATM    4  C   LIG     1      14.949  32.867  17.692  1.00  0.00     0.000 A 
HETATM    5  C   LIG     1      15.012  32.106  18.862  1.00  0.00     0.001 A 
HETATM    6  C   LIG     1      15.366  32.709  20.073  1.00  0.00     0.007 A 
ENDROOT
BRANCH   1   7
HETATM    7  C   LIG     1      16.048  34.738  21.420  1.00  0.00     0.049 C 
BRANCH   7   8
HETATM    8  C   LIG     1      17.172  35.757  21.208  1.00  0.00     0.114 C 
BRANCH   8   9
HETATM    9  C   LIG     1      16.853  37.044  21.904  1.00  0.00     0.139 C 
HETATM   10  O   LIG     1      17.709  37.965  21.947  1.00  0.00    -0.650 OA
BRANCH   9  11
HETATM   11  O   LIG     1      15.596  37.249  22.469  1.00  0.00    -0.776 OA
HETATM   12  H   LIG     1      15.164  38.164  22.465  1.00  0.00     0.167 HD
ENDBRANCH   9  11
ENDBRANCH   8   9
ENDBRANCH   7   8
ENDBRANCH   1   7
TORSDOF 4
ENDMDL
