REMARK  4 active torsions:
REMARK  status: ('A' for Active; 'I' for Inactive)
REMARK    1  A    between atoms: C_2  and  C_4 
REMARK    2  A    between atoms: C_2  and  O_3 
REMARK    3  A    between atoms: C_4  and  C_5 
REMARK    4  A    between atoms: C_5  and  C_6 
ROOT
HETATM    1  C   LIG     1      -0.535  -0.213  -0.390  1.00  0.00    -0.058 A 
HETATM    2  C   LIG     1      -1.008   1.109  -0.455  1.00  0.00     0.007 A 
HETATM    3  C   LIG     1      -2.331   1.402  -0.111  1.00  0.00     0.001 A 
HETATM    4  C   LIG     1      -3.192   0.380   0.296  1.00  0.00     0.000 A 
HETATM    5  C   LIG     1      -2.732  -0.938   0.358  1.00  0.00     0.001 A 
HETATM    6  C   LIG     1      -1.409  -1.236   0.016  1.00  0.00     0.007 A 
ENDROOT
BRANCH   1   7
HETATM    7  C   LIG     1       0.890  -0.528  -0.766  1.00  0.00     0.049 C 
BRANCH   7   8
HETATM    8  C   LIG     1       1.867   0.012   0.283  1.00  0.00     0.114 C 
BRANCH   8   9
HETATM    9  C   LIG     1       3.278  -0.324  -0.092  1.00  0.00     0.139 C 
HETATM   10  O   LIG     1       3.828  -1.351   0.384  1.00  0.00    -0.650 OA
BRANCH   9  11
HETATM   11  O   LIG     1       3.976   0.469  -1.000  1.00  0.00    -0.776 OA
HETATM   12  H   LIG     1       3.550   1.289  -1.413  1.00  0.00     0.167 HD
ENDBRANCH   9  11
ENDBRANCH   8   9
ENDBRANCH   7   8
ENDBRANCH   1   7
TORSDOF 4
