MODEL 1
REMARK VINA RESULT:      -6.2      0.000      0.000
REMARK  6 active torsions:
REMARK  status: ('A' for Active; 'I' for Inactive)
REMARK    1  A    between atoms: C_2  and  C_3 
REMARK    2  A    between atoms: C_3  and  C_4 
REMARK    3  A    between atoms: C_4  and  C_5 
REMARK    4  A    between atoms: C_5  and  C_6 
REMARK    5  A    between atoms: C_6  and  C_7 
REMARK    6  A    between atoms: C_7  and  C_8 
ROOT
HETATM    1  C   LIG     1      17.000  38.091  23.646  1.00  0.00     0.127 C 
HETATM    2  O   LIG     1      15.844  38.022  24.034  1.00  0.00    -0.298 OA
ENDROOT
BRANCH   1   3
HETATM    3  C   LIG     1      17.289  38.224  22.171  1.00  0.00     0.078 C 
BRANCH   3   4
HETATM    4  C   LIG     1      18.563  39.039  21.881  1.00  0.00     0.007 C 
BRANCH   4   5
HETATM    5  C   LIG     1      18.759  39.437  20.407  1.00  0.00    -0.004 C 
HETATM    6  C   LIG     1      20.024  38.843  19.789  1.00  0.00     0.005 C 
ENDBRANCH   4   5
ENDBRANCH   3   4
ENDBRANCH   1   3
BRANCH   1   7
HETATM    7  C   LIG     1      18.120  38.022  24.649  1.00  0.00     0.078 C 
BRANCH   7   8
HETATM    8  C   LIG     1      17.631  37.418  25.973  1.00  0.00     0.007 C 
BRANCH   8   9
HETATM    9  C   LIG     1      18.400  36.144  26.359  1.00  0.00    -0.004 C 
HETATM   10  C   LIG     1      17.649  34.866  25.989  1.00  0.00     0.005 C 
ENDBRANCH   8   9
ENDBRANCH   7   8
ENDBRANCH   1   7
TORSDOF 6
ENDMDL
MODEL 2
REMARK VINA RESULT:      -6.2      0.419      5.074
REMARK  6 active torsions:
REMARK  status: ('A' for Active; 'I' for Inactive)
REMARK    1  A    between atoms: C_2  and  C_3 
REMARK    2  A    between atoms: C_3  and  C_4 
REMARK    3  A    between atoms: C_4  and  C_5 
REMARK    4  A    between atoms: C_5  and  C_6 
REMARK    5  A    between atoms: C_6  and  C_7 
REMARK    6  A    between atoms: C_7  and  C_8 
ROOT
HETATM    1  C   LIG     1      16.914  38.244  23.697  1.00  0.00     0.127 C 
HETATM    2  O   LIG     1      15.779  37.984  24.064  1.00  0.00    -0.298 OA
ENDROOT
BRANCH   1   3
HETATM    3  C   LIG     1      18.082  37.939  24.602  1.00  0.00     0.078 C 
BRANCH   3   4
HETATM    4  C   LIG     1      17.650  37.427  25.988  1.00  0.00     0.007 C 
BRANCH   4   5
HETATM    5  C   LIG     1      18.531  36.308  26.572  1.00  0.00    -0.004 C 
HETATM    6  C   LIG     1      18.074  34.908  26.162  1.00  0.00     0.005 C 
ENDBRANCH   4   5
ENDBRANCH   3   4
ENDBRANCH   1   3
BRANCH   1   7
HETATM    7  C   LIG     1      17.126  38.884  22.351  1.00  0.00     0.078 C 
BRANCH   7   8
HETATM    8  C   LIG     1      18.623  39.039  22.050  1.00  0.00     0.007 C 
BRANCH   8   9
HETATM    9  C   LIG     1      18.896  39.379  20.577  1.00  0.00    -0.004 C 
HETATM   10  C   LIG     1      19.404  38.179  19.779  1.00  0.00     0.005 C 
ENDBRANCH   8   9
ENDBRANCH   7   8
ENDBRANCH   1   7
TORSDOF 6
ENDMDL
MODEL 3
REMARK VINA RESULT:      -6.1      2.006      2.976
REMARK  6 active torsions:
REMARK  status: ('A' for Active; 'I' for Inactive)
REMARK    1  A    between atoms: C_2  and  C_3 
REMARK    2  A    between atoms: C_3  and  C_4 
REMARK    3  A    between atoms: C_4  and  C_5 
REMARK    4  A    between atoms: C_5  and  C_6 
REMARK    5  A    between atoms: C_6  and  C_7 
REMARK    6  A    between atoms: C_7  and  C_8 
ROOT
HETATM    1  C   LIG     1      16.818  37.677  23.646  1.00  0.00     0.127 C 
HETATM    2  O   LIG     1      15.674  37.987  23.939  1.00  0.00    -0.298 OA
ENDROOT
BRANCH   1   3
HETATM    3  C   LIG     1      17.090  36.952  22.351  1.00  0.00     0.078 C 
BRANCH   3   4
HETATM    4  C   LIG     1      16.995  35.421  22.490  1.00  0.00     0.007 C 
BRANCH   4   5
HETATM    5  C   LIG     1      15.964  34.747  21.567  1.00  0.00    -0.004 C 
HETATM    6  C   LIG     1      14.793  35.660  21.206  1.00  0.00     0.005 C 
ENDBRANCH   4   5
ENDBRANCH   3   4
ENDBRANCH   1   3
BRANCH   1   7
HETATM    7  C   LIG     1      17.938  38.011  24.594  1.00  0.00     0.078 C 
BRANCH   7   8
HETATM    8  C   LIG     1      17.658  37.441  25.992  1.00  0.00     0.007 C 
BRANCH   8   9
HETATM    9  C   LIG     1      18.458  36.160  26.278  1.00  0.00    -0.004 C 
HETATM   10  C   LIG     1      17.633  34.891  26.073  1.00  0.00     0.005 C 
ENDBRANCH   8   9
ENDBRANCH   7   8
ENDBRANCH   1   7
TORSDOF 6
ENDMDL
MODEL 4
REMARK VINA RESULT:      -5.7      2.181      4.709
REMARK  6 active torsions:
REMARK  status: ('A' for Active; 'I' for Inactive)
REMARK    1  A    between atoms: C_2  and  C_3 
REMARK    2  A    between atoms: C_3  and  C_4 
REMARK    3  A    between atoms: C_4  and  C_5 
REMARK    4  A    between atoms: C_5  and  C_6 
REMARK    5  A    between atoms: C_6  and  C_7 
REMARK    6  A    between atoms: C_7  and  C_8 
ROOT
HETATM    1  C   LIG     1      16.934  37.956  23.313  1.00  0.00     0.127 C 
HETATM    2  O   LIG     1      16.870  39.174  23.260  1.00  0.00    -0.298 OA
ENDROOT
BRANCH   1   3
HETATM    3  C   LIG     1      16.862  37.260  24.650  1.00  0.00     0.078 C 
BRANCH   3   4
HETATM    4  C   LIG     1      18.157  37.402  25.470  1.00  0.00     0.007 C 
BRANCH   4   5
HETATM    5  C   LIG     1      18.450  36.236  26.431  1.00  0.00    -0.004 C 
HETATM    6  C   LIG     1      17.775  34.930  26.014  1.00  0.00     0.005 C 
ENDBRANCH   4   5
ENDBRANCH   3   4
ENDBRANCH   1   3
BRANCH   1   7
HETATM    7  C   LIG     1      17.101  37.169  22.041  1.00  0.00     0.078 C 
BRANCH   7   8
HETATM    8  C   LIG     1      16.887  35.670  22.294  1.00  0.00     0.007 C 
BRANCH   8   9
HETATM    9  C   LIG     1      15.595  35.142  21.651  1.00  0.00    -0.004 C 
HETATM   10  C   LIG     1      15.859  34.090  20.575  1.00  0.00     0.005 C 
ENDBRANCH   8   9
ENDBRANCH   7   8
ENDBRANCH   1   7
TORSDOF 6
ENDMDL
MODEL 5
REMARK VINA RESULT:      -5.4      2.004      4.569
REMARK  6 active torsions:
REMARK  status: ('A' for Active; 'I' for Inactive)
REMARK    1  A    between atoms: C_2  and  C_3 
REMARK    2  A    between atoms: C_3  and  C_4 
REMARK    3  A    between atoms: C_4  and  C_5 
REMARK    4  A    between atoms: C_5  and  C_6 
REMARK    5  A    between atoms: C_6  and  C_7 
REMARK    6  A    between atoms: C_7  and  C_8 
ROOT
HETATM    1  C   LIG     1      16.674  37.704  23.356  1.00  0.00     0.127 C 
HETATM    2  O   LIG     1      16.050  38.050  24.348  1.00  0.00    -0.298 OA
ENDROOT
BRANCH   1   3
HETATM    3  C   LIG     1      17.187  36.289  23.249  1.00  0.00     0.078 C 
BRANCH   3   4
HETATM    4  C   LIG     1      17.162  35.750  21.807  1.00  0.00     0.007 C 
BRANCH   4   5
HETATM    5  C   LIG     1      15.975  34.828  21.478  1.00  0.00    -0.004 C 
HETATM    6  C   LIG     1      14.690  35.594  21.164  1.00  0.00     0.005 C 
ENDBRANCH   4   5
ENDBRANCH   3   4
ENDBRANCH   1   3
BRANCH   1   7
HETATM    7  C   LIG     1      16.935  38.705  22.263  1.00  0.00     0.078 C 
BRANCH   7   8
HETATM    8  C   LIG     1      18.440  38.964  22.108  1.00  0.00     0.007 C 
BRANCH   8   9
HETATM    9  C   LIG     1      18.828  39.346  20.671  1.00  0.00    -0.004 C 
HETATM   10  C   LIG     1      19.281  38.144  19.843  1.00  0.00     0.005 C 
ENDBRANCH   8   9
ENDBRANCH   7   8
ENDBRANCH   1   7
TORSDOF 6
ENDMDL
MODEL 6
REMARK VINA RESULT:      -5.4      1.653      1.922
REMARK  6 active torsions:
REMARK  status: ('A' for Active; 'I' for Inactive)
REMARK    1  A    between atoms: C_2  and  C_3 
REMARK    2  A    between atoms: C_3  and  C_4 
REMARK    3  A    between atoms: C_4  and  C_5 
REMARK    4  A    between atoms: C_5  and  C_6 
REMARK    5  A    between atoms: C_6  and  C_7 
REMARK    6  A    between atoms: C_7  and  C_8 
ROOT
HETATM    1  C   LIG     1      16.600  36.361  21.995  1.00  0.00     0.127 C 
HETATM    2  O   LIG     1      15.464  36.808  22.016  1.00  0.00    -0.298 OA
ENDROOT
BRANCH   1   3
HETATM    3  C   LIG     1      17.575  36.840  20.947  1.00  0.00     0.078 C 
BRANCH   3   4
HETATM    4  C   LIG     1      18.253  38.171  21.323  1.00  0.00     0.007 C 
BRANCH   4   5
HETATM    5  C   LIG     1      18.686  39.040  20.129  1.00  0.00    -0.004 C 
HETATM    6  C   LIG     1      20.167  38.892  19.785  1.00  0.00     0.005 C 
ENDBRANCH   4   5
ENDBRANCH   3   4
ENDBRANCH   1   3
BRANCH   1   7
HETATM    7  C   LIG     1      17.004  35.322  23.007  1.00  0.00     0.078 C 
BRANCH   7   8
HETATM    8  C   LIG     1      17.169  35.950  24.397  1.00  0.00     0.007 C 
BRANCH   8   9
HETATM    9  C   LIG     1      17.543  34.916  25.471  1.00  0.00    -0.004 C 
HETATM   10  C   LIG     1      18.396  35.510  26.591  1.00  0.00     0.005 C 
ENDBRANCH   8   9
ENDBRANCH   7   8
ENDBRANCH   1   7
TORSDOF 6
ENDMDL
MODEL 7
REMARK VINA RESULT:      -5.3      1.962      2.571
REMARK  6 active torsions:
REMARK  status: ('A' for Active; 'I' for Inactive)
REMARK    1  A    between atoms: C_2  and  C_3 
REMARK    2  A    between atoms: C_3  and  C_4 
REMARK    3  A    between atoms: C_4  and  C_5 
REMARK    4  A    between atoms: C_5  and  C_6 
REMARK    5  A    between atoms: C_6  and  C_7 
REMARK    6  A    between atoms: C_7  and  C_8 
ROOT
HETATM    1  C   LIG     1      17.937  38.601  22.599  1.00  0.00     0.127 C 
HETATM    2  O   LIG     1      18.910  38.885  23.280  1.00  0.00    -0.298 OA
ENDROOT
BRANCH   1   3
HETATM    3  C   LIG     1      17.922  38.950  21.131  1.00  0.00     0.078 C 
BRANCH   3   4
HETATM    4  C   LIG     1      19.323  39.262  20.575  1.00  0.00     0.007 C 
BRANCH   4   5
HETATM    5  C   LIG     1      19.881  38.216  19.592  1.00  0.00    -0.004 C 
HETATM    6  C   LIG     1      19.042  36.940  19.535  1.00  0.00     0.005 C 
ENDBRANCH   4   5
ENDBRANCH   3   4
ENDBRANCH   1   3
BRANCH   1   7
HETATM    7  C   LIG     1      16.759  37.920  23.243  1.00  0.00     0.078 C 
BRANCH   7   8
HETATM    8  C   LIG     1      16.220  36.797  22.346  1.00  0.00     0.007 C 
BRANCH   8   9
HETATM    9  C   LIG     1      16.986  35.477  22.530  1.00  0.00    -0.004 C 
HETATM   10  C   LIG     1      17.119  35.071  23.997  1.00  0.00     0.005 C 
ENDBRANCH   8   9
ENDBRANCH   7   8
ENDBRANCH   1   7
TORSDOF 6
ENDMDL
MODEL 8
REMARK VINA RESULT:      -5.0      8.861     10.546
REMARK  6 active torsions:
REMARK  status: ('A' for Active; 'I' for Inactive)
REMARK    1  A    between atoms: C_2  and  C_3 
REMARK    2  A    between atoms: C_3  and  C_4 
REMARK    3  A    between atoms: C_4  and  C_5 
REMARK    4  A    between atoms: C_5  and  C_6 
REMARK    5  A    between atoms: C_6  and  C_7 
REMARK    6  A    between atoms: C_7  and  C_8 
ROOT
HETATM    1  C   LIG     1      15.725  33.396  16.132  1.00  0.00     0.127 C 
HETATM    2  O   LIG     1      16.207  34.518  16.124  1.00  0.00    -0.298 OA
ENDROOT
BRANCH   1   3
HETATM    3  C   LIG     1      14.400  33.155  16.812  1.00  0.00     0.078 C 
BRANCH   3   4
HETATM    4  C   LIG     1      14.433  31.960  17.783  1.00  0.00     0.007 C 
BRANCH   4   5
HETATM    5  C   LIG     1      15.132  32.233  19.127  1.00  0.00    -0.004 C 
HETATM    6  C   LIG     1      14.869  31.149  20.171  1.00  0.00     0.005 C 
ENDBRANCH   4   5
ENDBRANCH   3   4
ENDBRANCH   1   3
BRANCH   1   7
HETATM    7  C   LIG     1      16.473  32.266  15.475  1.00  0.00     0.078 C 
BRANCH   7   8
HETATM    8  C   LIG     1      16.335  32.335  13.948  1.00  0.00     0.007 C 
BRANCH   8   9
HETATM    9  C   LIG     1      15.465  31.202  13.383  1.00  0.00    -0.004 C 
HETATM   10  C   LIG     1      15.312  30.033  14.356  1.00  0.00     0.005 C 
ENDBRANCH   8   9
ENDBRANCH   7   8
ENDBRANCH   1   7
TORSDOF 6
ENDMDL
MODEL 9
REMARK VINA RESULT:      -4.9      3.001      4.100
REMARK  6 active torsions:
REMARK  status: ('A' for Active; 'I' for Inactive)
REMARK    1  A    between atoms: C_2  and  C_3 
REMARK    2  A    between atoms: C_3  and  C_4 
REMARK    3  A    between atoms: C_4  and  C_5 
REMARK    4  A    between atoms: C_5  and  C_6 
REMARK    5  A    between atoms: C_6  and  C_7 
REMARK    6  A    between atoms: C_7  and  C_8 
ROOT
HETATM    1  C   LIG     1      16.679  36.781  22.186  1.00  0.00     0.127 C 
HETATM    2  O   LIG     1      15.807  37.381  22.793  1.00  0.00    -0.298 OA
ENDROOT
BRANCH   1   3
HETATM    3  C   LIG     1      17.691  37.550  21.372  1.00  0.00     0.078 C 
BRANCH   3   4
HETATM    4  C   LIG     1      18.296  36.719  20.226  1.00  0.00     0.007 C 
BRANCH   4   5
HETATM    5  C   LIG     1      19.453  37.398  19.471  1.00  0.00    -0.004 C 
HETATM    6  C   LIG     1      19.622  38.873  19.832  1.00  0.00     0.005 C 
ENDBRANCH   4   5
ENDBRANCH   3   4
ENDBRANCH   1   3
BRANCH   1   7
HETATM    7  C   LIG     1      16.719  35.278  22.245  1.00  0.00     0.078 C 
BRANCH   7   8
HETATM    8  C   LIG     1      15.448  34.673  21.633  1.00  0.00     0.007 C 
BRANCH   8   9
HETATM    9  C   LIG     1      15.731  33.892  20.339  1.00  0.00    -0.004 C 
HETATM   10  C   LIG     1      15.521  34.736  19.083  1.00  0.00     0.005 C 
ENDBRANCH   8   9
ENDBRANCH   7   8
ENDBRANCH   1   7
TORSDOF 6
ENDMDL
MODEL 10
REMARK VINA RESULT:      -4.9      5.730      6.744
REMARK  6 active torsions:
REMARK  status: ('A' for Active; 'I' for Inactive)
REMARK    1  A    between atoms: C_2  and  C_3 
REMARK    2  A    between atoms: C_3  and  C_4 
REMARK    3  A    between atoms: C_4  and  C_5 
REMARK    4  A    between atoms: C_5  and  C_6 
REMARK    5  A    between atoms: C_6  and  C_7 
REMARK    6  A    between atoms: C_7  and  C_8 
ROOT
HETATM    1  C   LIG     1      15.244  33.813  20.733  1.00  0.00     0.127 C 
HETATM    2  O   LIG     1      14.361  33.647  21.560  1.00  0.00    -0.298 OA
ENDROOT
BRANCH   1   3
HETATM    3  C   LIG     1      15.762  35.203  20.459  1.00  0.00     0.078 C 
BRANCH   3   4
HETATM    4  C   LIG     1      17.083  35.506  21.188  1.00  0.00     0.007 C 
BRANCH   4   5
HETATM    5  C   LIG     1      17.703  36.879  20.870  1.00  0.00    -0.004 C 
HETATM    6  C   LIG     1      18.787  36.813  19.794  1.00  0.00     0.005 C 
ENDBRANCH   4   5
ENDBRANCH   3   4
ENDBRANCH   1   3
BRANCH   1   7
HETATM    7  C   LIG     1      15.789  32.625  19.988  1.00  0.00     0.078 C 
BRANCH   7   8
HETATM    8  C   LIG     1      14.672  31.900  19.224  1.00  0.00     0.007 C 
BRANCH   8   9
HETATM    9  C   LIG     1      14.638  32.272  17.734  1.00  0.00    -0.004 C 
HETATM   10  C   LIG     1      13.658  31.416  16.933  1.00  0.00     0.005 C 
ENDBRANCH   8   9
ENDBRANCH   7   8
ENDBRANCH   1   7
TORSDOF 6
ENDMDL
MODEL 11
REMARK VINA RESULT:      -4.8      8.772      9.699
REMARK  6 active torsions:
REMARK  status: ('A' for Active; 'I' for Inactive)
REMARK    1  A    between atoms: C_2  and  C_3 
REMARK    2  A    between atoms: C_3  and  C_4 
REMARK    3  A    between atoms: C_4  and  C_5 
REMARK    4  A    between atoms: C_5  and  C_6 
REMARK    5  A    between atoms: C_6  and  C_7 
REMARK    6  A    between atoms: C_7  and  C_8 
ROOT
HETATM    1  C   LIG     1      15.928  33.528  16.202  1.00  0.00     0.127 C 
HETATM    2  O   LIG     1      16.427  34.581  15.835  1.00  0.00    -0.298 OA
ENDROOT
BRANCH   1   3
HETATM    3  C   LIG     1      16.408  32.225  15.612  1.00  0.00     0.078 C 
BRANCH   3   4
HETATM    4  C   LIG     1      15.786  31.924  14.236  1.00  0.00     0.007 C 
BRANCH   4   5
HETATM    5  C   LIG     1      15.361  30.461  14.020  1.00  0.00    -0.004 C 
HETATM    6  C   LIG     1      14.045  30.109  14.712  1.00  0.00     0.005 C 
ENDBRANCH   4   5
ENDBRANCH   3   4
ENDBRANCH   1   3
BRANCH   1   7
HETATM    7  C   LIG     1      14.827  33.552  17.227  1.00  0.00     0.078 C 
BRANCH   7   8
HETATM    8  C   LIG     1      14.536  32.138  17.749  1.00  0.00     0.007 C 
BRANCH   8   9
HETATM    9  C   LIG     1      15.069  31.914  19.173  1.00  0.00    -0.004 C 
HETATM   10  C   LIG     1      15.443  33.218  19.876  1.00  0.00     0.005 C 
ENDBRANCH   8   9
ENDBRANCH   7   8
ENDBRANCH   1   7
TORSDOF 6
ENDMDL
MODEL 12
REMARK VINA RESULT:      -4.8      3.753      4.615
REMARK  6 active torsions:
REMARK  status: ('A' for Active; 'I' for Inactive)
REMARK    1  A    between atoms: C_2  and  C_3 
REMARK    2  A    between atoms: C_3  and  C_4 
REMARK    3  A    between atoms: C_4  and  C_5 
REMARK    4  A    between atoms: C_5  and  C_6 
REMARK    5  A    between atoms: C_6  and  C_7 
REMARK    6  A    between atoms: C_7  and  C_8 
ROOT
HETATM    1  C   LIG     1      16.970  36.303  21.531  1.00  0.00     0.127 C 
HETATM    2  O   LIG     1      17.860  36.614  20.754  1.00  0.00    -0.298 OA
ENDROOT
BRANCH   1   3
HETATM    3  C   LIG     1      16.465  34.882  21.561  1.00  0.00     0.078 C 
BRANCH   3   4
HETATM    4  C   LIG     1      15.722  34.482  20.273  1.00  0.00     0.007 C 
BRANCH   4   5
HETATM    5  C   LIG     1      15.487  32.971  20.100  1.00  0.00    -0.004 C 
HETATM    6  C   LIG     1      15.216  32.568  18.651  1.00  0.00     0.005 C 
ENDBRANCH   4   5
ENDBRANCH   3   4
ENDBRANCH   1   3
BRANCH   1   7
HETATM    7  C   LIG     1      16.380  37.352  22.435  1.00  0.00     0.078 C 
BRANCH   7   8
HETATM    8  C   LIG     1      17.486  38.135  23.157  1.00  0.00     0.007 C 
BRANCH   8   9
HETATM    9  C   LIG     1      17.336  38.093  24.686  1.00  0.00    -0.004 C 
HETATM   10  C   LIG     1      17.649  36.717  25.272  1.00  0.00     0.005 C 
ENDBRANCH   8   9
ENDBRANCH   7   8
ENDBRANCH   1   7
TORSDOF 6
ENDMDL
MODEL 13
REMARK VINA RESULT:      -4.6      1.963      5.917
REMARK  6 active torsions:
REMARK  status: ('A' for Active; 'I' for Inactive)
REMARK    1  A    between atoms: C_2  and  C_3 
REMARK    2  A    between atoms: C_3  and  C_4 
REMARK    3  A    between atoms: C_4  and  C_5 
REMARK    4  A    between atoms: C_5  and  C_6 
REMARK    5  A    between atoms: C_6  and  C_7 
REMARK    6  A    between atoms: C_7  and  C_8 
ROOT
HETATM    1  C   LIG     1      18.925  38.964  21.542  1.00  0.00     0.127 C 
HETATM    2  O   LIG     1      19.455  39.180  22.620  1.00  0.00    -0.298 OA
ENDROOT
BRANCH   1   3
HETATM    3  C   LIG     1      17.492  38.494  21.491  1.00  0.00     0.078 C 
BRANCH   3   4
HETATM    4  C   LIG     1      17.193  37.371  22.501  1.00  0.00     0.007 C 
BRANCH   4   5
HETATM    5  C   LIG     1      16.371  37.802  23.729  1.00  0.00    -0.004 C 
HETATM    6  C   LIG     1      17.197  37.865  25.012  1.00  0.00     0.005 C 
ENDBRANCH   4   5
ENDBRANCH   3   4
ENDBRANCH   1   3
BRANCH   1   7
HETATM    7  C   LIG     1      19.720  39.155  20.278  1.00  0.00     0.078 C 
BRANCH   7   8
HETATM    8  C   LIG     1      18.966  38.587  19.067  1.00  0.00     0.007 C 
BRANCH   8   9
HETATM    9  C   LIG     1      18.463  39.685  18.117  1.00  0.00    -0.004 C 
HETATM   10  C   LIG     1      18.867  39.438  16.664  1.00  0.00     0.005 C 
ENDBRANCH   8   9
ENDBRANCH   7   8
ENDBRANCH   1   7
TORSDOF 6
ENDMDL
MODEL 14
REMARK VINA RESULT:      -4.5      2.853      4.139
REMARK  6 active torsions:
REMARK  status: ('A' for Active; 'I' for Inactive)
REMARK    1  A    between atoms: C_2  and  C_3 
REMARK    2  A    between atoms: C_3  and  C_4 
REMARK    3  A    between atoms: C_4  and  C_5 
REMARK    4  A    between atoms: C_5  and  C_6 
REMARK    5  A    between atoms: C_6  and  C_7 
REMARK    6  A    between atoms: C_7  and  C_8 
ROOT
HETATM    1  C   LIG     1      18.715  36.963  19.860  1.00  0.00     0.127 C 
HETATM    2  O   LIG     1      19.617  36.250  19.449  1.00  0.00    -0.298 OA
ENDROOT
BRANCH   1   3
HETATM    3  C   LIG     1      18.921  38.456  19.947  1.00  0.00     0.078 C 
BRANCH   3   4
HETATM    4  C   LIG     1      19.420  39.070  18.626  1.00  0.00     0.007 C 
BRANCH   4   5
HETATM    5  C   LIG     1      18.332  39.746  17.772  1.00  0.00    -0.004 C 
HETATM    6  C   LIG     1      18.678  39.788  16.284  1.00  0.00     0.005 C 
ENDBRANCH   4   5
ENDBRANCH   3   4
ENDBRANCH   1   3
BRANCH   1   7
HETATM    7  C   LIG     1      17.416  36.336  20.291  1.00  0.00     0.078 C 
BRANCH   7   8
HETATM    8  C   LIG     1      17.327  36.263  21.822  1.00  0.00     0.007 C 
BRANCH   8   9
HETATM    9  C   LIG     1      16.677  37.513  22.435  1.00  0.00    -0.004 C 
HETATM   10  C   LIG     1      16.724  37.513  23.962  1.00  0.00     0.005 C 
ENDBRANCH   8   9
ENDBRANCH   7   8
ENDBRANCH   1   7
TORSDOF 6
ENDMDL
MODEL 15
REMARK VINA RESULT:      -4.5      9.649     11.573
REMARK  6 active torsions:
REMARK  status: ('A' for Active; 'I' for Inactive)
REMARK    1  A    between atoms: C_2  and  C_3 
REMARK    2  A    between atoms: C_3  and  C_4 
REMARK    3  A    between atoms: C_4  and  C_5 
REMARK    4  A    between atoms: C_5  and  C_6 
REMARK    5  A    between atoms: C_6  and  C_7 
REMARK    6  A    between atoms: C_7  and  C_8 
ROOT
HETATM    1  C   LIG     1      16.701  33.450  15.340  1.00  0.00     0.127 C 
HETATM    2  O   LIG     1      16.475  34.561  15.793  1.00  0.00    -0.298 OA
ENDROOT
BRANCH   1   3
HETATM    3  C   LIG     1      15.728  32.325  15.593  1.00  0.00     0.078 C 
BRANCH   3   4
HETATM    4  C   LIG     1      15.503  31.436  14.356  1.00  0.00     0.007 C 
BRANCH   4   5
HETATM    5  C   LIG     1      14.765  30.114  14.631  1.00  0.00    -0.004 C 
HETATM    6  C   LIG     1      13.400  30.314  15.288  1.00  0.00     0.005 C 
ENDBRANCH   4   5
ENDBRANCH   3   4
ENDBRANCH   1   3
BRANCH   1   7
HETATM    7  C   LIG     1      17.960  33.217  14.548  1.00  0.00     0.078 C 
BRANCH   7   8
HETATM    8  C   LIG     1      17.933  34.009  13.234  1.00  0.00     0.007 C 
BRANCH   8   9
HETATM    9  C   LIG     1      19.008  33.540  12.241  1.00  0.00    -0.004 C 
HETATM   10  C   LIG     1      20.423  33.899  12.690  1.00  0.00     0.005 C 
ENDBRANCH   8   9
ENDBRANCH   7   8
ENDBRANCH   1   7
TORSDOF 6
ENDMDL
MODEL 16
REMARK VINA RESULT:      -4.5     10.698     11.980
REMARK  6 active torsions:
REMARK  status: ('A' for Active; 'I' for Inactive)
REMARK    1  A    between atoms: C_2  and  C_3 
REMARK    2  A    between atoms: C_3  and  C_4 
REMARK    3  A    between atoms: C_4  and  C_5 
REMARK    4  A    between atoms: C_5  and  C_6 
REMARK    5  A    between atoms: C_6  and  C_7 
REMARK    6  A    between atoms: C_7  and  C_8 
ROOT
HETATM    1  C   LIG     1      16.005  31.966  14.088  1.00  0.00     0.127 C 
HETATM    2  O   LIG     1      16.063  32.912  13.317  1.00  0.00    -0.298 OA
ENDROOT
BRANCH   1   3
HETATM    3  C   LIG     1      16.353  32.163  15.543  1.00  0.00     0.078 C 
BRANCH   3   4
HETATM    4  C   LIG     1      15.304  32.996  16.303  1.00  0.00     0.007 C 
BRANCH   4   5
HETATM    5  C   LIG     1      14.489  32.216  17.351  1.00  0.00    -0.004 C 
HETATM    6  C   LIG     1      13.039  31.981  16.931  1.00  0.00     0.005 C 
ENDBRANCH   4   5
ENDBRANCH   3   4
ENDBRANCH   1   3
BRANCH   1   7
HETATM    7  C   LIG     1      15.603  30.613  13.567  1.00  0.00     0.078 C 
BRANCH   7   8
HETATM    8  C   LIG     1      14.397  30.065  14.343  1.00  0.00     0.007 C 
BRANCH   8   9
HETATM    9  C   LIG     1      14.081  28.604  13.988  1.00  0.00    -0.004 C 
HETATM   10  C   LIG     1      15.329  27.804  13.616  1.00  0.00     0.005 C 
ENDBRANCH   8   9
ENDBRANCH   7   8
ENDBRANCH   1   7
TORSDOF 6
ENDMDL
MODEL 17
REMARK VINA RESULT:      -4.4      9.814     11.070
REMARK  6 active torsions:
REMARK  status: ('A' for Active; 'I' for Inactive)
REMARK    1  A    between atoms: C_2  and  C_3 
REMARK    2  A    between atoms: C_3  and  C_4 
REMARK    3  A    between atoms: C_4  and  C_5 
REMARK    4  A    between atoms: C_5  and  C_6 
REMARK    5  A    between atoms: C_6  and  C_7 
REMARK    6  A    between atoms: C_7  and  C_8 
ROOT
HETATM    1  C   LIG     1      16.915  33.506  15.078  1.00  0.00     0.127 C 
HETATM    2  O   LIG     1      16.691  34.567  15.639  1.00  0.00    -0.298 OA
ENDROOT
BRANCH   1   3
HETATM    3  C   LIG     1      18.097  33.386  14.147  1.00  0.00     0.078 C 
BRANCH   3   4
HETATM    4  C   LIG     1      17.929  34.205  12.854  1.00  0.00     0.007 C 
BRANCH   4   5
HETATM    5  C   LIG     1      19.010  33.964  11.786  1.00  0.00    -0.004 C 
HETATM    6  C   LIG     1      18.896  34.912  10.593  1.00  0.00     0.005 C 
ENDBRANCH   4   5
ENDBRANCH   3   4
ENDBRANCH   1   3
BRANCH   1   7
HETATM    7  C   LIG     1      15.994  32.339  15.311  1.00  0.00     0.078 C 
BRANCH   7   8
HETATM    8  C   LIG     1      15.759  31.560  14.010  1.00  0.00     0.007 C 
BRANCH   8   9
HETATM    9  C   LIG     1      14.980  30.255  14.236  1.00  0.00    -0.004 C 
HETATM   10  C   LIG     1      13.829  30.418  15.227  1.00  0.00     0.005 C 
ENDBRANCH   8   9
ENDBRANCH   7   8
ENDBRANCH   1   7
TORSDOF 6
ENDMDL
MODEL 18
REMARK VINA RESULT:      -4.4      7.866      8.676
REMARK  6 active torsions:
REMARK  status: ('A' for Active; 'I' for Inactive)
REMARK    1  A    between atoms: C_2  and  C_3 
REMARK    2  A    between atoms: C_3  and  C_4 
REMARK    3  A    between atoms: C_4  and  C_5 
REMARK    4  A    between atoms: C_5  and  C_6 
REMARK    5  A    between atoms: C_6  and  C_7 
REMARK    6  A    between atoms: C_7  and  C_8 
ROOT
HETATM    1  C   LIG     1      15.003  33.250  17.513  1.00  0.00     0.127 C 
HETATM    2  O   LIG     1      15.218  33.623  16.371  1.00  0.00    -0.298 OA
ENDROOT
BRANCH   1   3
HETATM    3  C   LIG     1      14.281  31.946  17.751  1.00  0.00     0.078 C 
BRANCH   3   4
HETATM    4  C   LIG     1      13.075  31.749  16.816  1.00  0.00     0.007 C 
BRANCH   4   5
HETATM    5  C   LIG     1      13.154  30.511  15.904  1.00  0.00    -0.004 C 
HETATM    6  C   LIG     1      14.389  30.507  15.004  1.00  0.00     0.005 C 
ENDBRANCH   4   5
ENDBRANCH   3   4
ENDBRANCH   1   3
BRANCH   1   7
HETATM    7  C   LIG     1      15.446  34.108  18.667  1.00  0.00     0.078 C 
BRANCH   7   8
HETATM    8  C   LIG     1      15.388  33.324  19.985  1.00  0.00     0.007 C 
BRANCH   8   9
HETATM    9  C   LIG     1      15.332  34.242  21.216  1.00  0.00    -0.004 C 
HETATM   10  C   LIG     1      16.646  34.983  21.461  1.00  0.00     0.005 C 
ENDBRANCH   8   9
ENDBRANCH   7   8
ENDBRANCH   1   7
TORSDOF 6
ENDMDL
MODEL 19
REMARK VINA RESULT:      -4.3     12.470     13.722
REMARK  6 active torsions:
REMARK  status: ('A' for Active; 'I' for Inactive)
REMARK    1  A    between atoms: C_2  and  C_3 
REMARK    2  A    between atoms: C_3  and  C_4 
REMARK    3  A    between atoms: C_4  and  C_5 
REMARK    4  A    between atoms: C_5  and  C_6 
REMARK    5  A    between atoms: C_6  and  C_7 
REMARK    6  A    between atoms: C_7  and  C_8 
ROOT
HETATM    1  C   LIG     1      14.276  29.327  14.243  1.00  0.00     0.127 C 
HETATM    2  O   LIG     1      13.212  28.733  14.167  1.00  0.00    -0.298 OA
ENDROOT
BRANCH   1   3
HETATM    3  C   LIG     1      14.343  30.658  14.949  1.00  0.00     0.078 C 
BRANCH   3   4
HETATM    4  C   LIG     1      13.325  30.779  16.098  1.00  0.00     0.007 C 
BRANCH   4   5
HETATM    5  C   LIG     1      13.830  31.540  17.338  1.00  0.00    -0.004 C 
HETATM    6  C   LIG     1      14.494  32.872  16.994  1.00  0.00     0.005 C 
ENDBRANCH   4   5
ENDBRANCH   3   4
ENDBRANCH   1   3
BRANCH   1   7
HETATM    7  C   LIG     1      15.503  28.726  13.611  1.00  0.00     0.078 C 
BRANCH   7   8
HETATM    8  C   LIG     1      15.191  27.345  13.017  1.00  0.00     0.007 C 
BRANCH   8   9
HETATM    9  C   LIG     1      16.120  26.983  11.848  1.00  0.00    -0.004 C 
HETATM   10  C   LIG     1      15.400  26.218  10.738  1.00  0.00     0.005 C 
ENDBRANCH   8   9
ENDBRANCH   7   8
ENDBRANCH   1   7
TORSDOF 6
ENDMDL
MODEL 20
REMARK VINA RESULT:      -4.3      8.664     10.022
REMARK  6 active torsions:
REMARK  status: ('A' for Active; 'I' for Inactive)
REMARK    1  A    between atoms: C_2  and  C_3 
REMARK    2  A    between atoms: C_3  and  C_4 
REMARK    3  A    between atoms: C_4  and  C_5 
REMARK    4  A    between atoms: C_5  and  C_6 
REMARK    5  A    between atoms: C_6  and  C_7 
REMARK    6  A    between atoms: C_7  and  C_8 
ROOT
HETATM    1  C   LIG     1      14.262  32.057  17.251  1.00  0.00     0.127 C 
HETATM    2  O   LIG     1      13.131  32.133  16.797  1.00  0.00    -0.298 OA
ENDROOT
BRANCH   1   3
HETATM    3  C   LIG     1      14.465  31.656  18.691  1.00  0.00     0.078 C 
BRANCH   3   4
HETATM    4  C   LIG     1      15.598  32.440  19.379  1.00  0.00     0.007 C 
BRANCH   4   5
HETATM    5  C   LIG     1      15.162  33.291  20.585  1.00  0.00    -0.004 C 
HETATM    6  C   LIG     1      16.045  34.518  20.804  1.00  0.00     0.005 C 
ENDBRANCH   4   5
ENDBRANCH   3   4
ENDBRANCH   1   3
BRANCH   1   7
HETATM    7  C   LIG     1      15.436  32.385  16.368  1.00  0.00     0.078 C 
BRANCH   7   8
HETATM    8  C   LIG     1      15.189  31.905  14.931  1.00  0.00     0.007 C 
BRANCH   8   9
HETATM    9  C   LIG     1      15.329  30.381  14.786  1.00  0.00    -0.004 C 
HETATM   10  C   LIG     1      14.020  29.705  14.379  1.00  0.00     0.005 C 
ENDBRANCH   8   9
ENDBRANCH   7   8
ENDBRANCH   1   7
TORSDOF 6
ENDMDL
