REMARK  6 active torsions:
REMARK  status: ('A' for Active; 'I' for Inactive)
REMARK    1  A    between atoms: C_2  and  C_3 
REMARK    2  A    between atoms: C_3  and  C_4 
REMARK    3  A    between atoms: C_4  and  C_5 
REMARK    4  A    between atoms: C_5  and  C_6 
REMARK    5  A    between atoms: C_6  and  C_7 
REMARK    6  A    between atoms: C_7  and  C_8 
ROOT
HETATM    1  C   LIG     1      -0.315   0.629   0.789  1.00  0.00     0.127 C 
HETATM    2  O   LIG     1      -0.932   1.681   0.729  1.00  0.00    -0.298 OA
ENDROOT
BRANCH   1   3
HETATM    3  C   LIG     1      -1.065  -0.672   0.936  1.00  0.00     0.078 C 
BRANCH   3   4
HETATM    4  C   LIG     1      -1.786  -1.098  -0.356  1.00  0.00     0.007 C 
BRANCH   4   5
HETATM    5  C   LIG     1      -2.939  -0.176  -0.792  1.00  0.00    -0.004 C 
HETATM    6  C   LIG     1      -4.077  -0.116   0.226  1.00  0.00     0.005 C 
ENDBRANCH   4   5
ENDBRANCH   3   4
ENDBRANCH   1   3
BRANCH   1   7
HETATM    7  C   LIG     1       1.189   0.651   0.733  1.00  0.00     0.078 C 
BRANCH   7   8
HETATM    8  C   LIG     1       1.692   0.145  -0.626  1.00  0.00     0.007 C 
BRANCH   8   9
HETATM    9  C   LIG     1       3.210   0.316  -0.794  1.00  0.00    -0.004 C 
HETATM   10  C   LIG     1       4.013  -0.626   0.102  1.00  0.00     0.005 C 
ENDBRANCH   8   9
ENDBRANCH   7   8
ENDBRANCH   1   7
TORSDOF 6
