MODEL 1
REMARK VINA RESULT:      -4.5      0.000      0.000
REMARK  1 active torsions:
REMARK  status: ('A' for Active; 'I' for Inactive)
REMARK    1  A    between atoms: C_9  and  O_10 
ROOT
HETATM    1  C   LIG     1      15.323  36.264  21.644  1.00  0.00     0.016 C 
HETATM    2  C   LIG     1      16.539  36.664  22.536  1.00  0.00    -0.034 C 
HETATM    3  C   LIG     1      17.135  35.323  23.068  1.00  0.00     0.016 C 
HETATM    4  C   LIG     1      16.188  37.669  23.647  1.00  0.00    -0.004 C 
HETATM    5  C   LIG     1      15.758  38.932  22.861  1.00  0.00     0.006 C 
HETATM    6  C   LIG     1      16.692  38.907  21.634  1.00  0.00     0.013 C 
HETATM    7  C   LIG     1      17.552  37.638  21.890  1.00  0.00    -0.011 C 
HETATM    8  C   LIG     1      18.261  37.119  20.633  1.00  0.00     0.018 C 
HETATM    9  C   LIG     1      18.523  37.959  23.070  1.00  0.00     0.127 C 
HETATM   10  C   LIG     1      17.563  38.002  24.280  1.00  0.00     0.038 C 
ENDROOT
BRANCH   9  11
HETATM   11  O   LIG     1      19.184  39.189  22.916  1.00  0.00    -0.395 OA
HETATM   12  H   LIG     1      19.064  39.457  21.967  1.00  0.00     0.210 HD
ENDBRANCH   9  11
TORSDOF 1
ENDMDL
MODEL 2
REMARK VINA RESULT:      -4.2     17.694     19.060
REMARK  1 active torsions:
REMARK  status: ('A' for Active; 'I' for Inactive)
REMARK    1  A    between atoms: C_9  and  O_10 
ROOT
HETATM    1  C   LIG     1      29.093  31.307  35.351  1.00  0.00     0.016 C 
HETATM    2  C   LIG     1      28.360  30.385  36.375  1.00  0.00    -0.034 C 
HETATM    3  C   LIG     1      29.459  29.898  37.371  1.00  0.00     0.016 C 
HETATM    4  C   LIG     1      27.568  29.241  35.721  1.00  0.00    -0.004 C 
HETATM    5  C   LIG     1      26.478  29.982  34.907  1.00  0.00     0.006 C 
HETATM    6  C   LIG     1      26.153  31.197  35.798  1.00  0.00     0.013 C 
HETATM    7  C   LIG     1      27.087  30.981  37.020  1.00  0.00    -0.011 C 
HETATM    8  C   LIG     1      27.300  32.249  37.857  1.00  0.00     0.018 C 
HETATM    9  C   LIG     1      26.520  29.778  37.839  1.00  0.00     0.127 C 
HETATM   10  C   LIG     1      26.836  28.578  36.917  1.00  0.00     0.038 C 
ENDROOT
BRANCH   9  11
HETATM   11  O   LIG     1      25.138  29.877  38.069  1.00  0.00    -0.395 OA
HETATM   12  H   LIG     1      24.833  30.701  37.605  1.00  0.00     0.210 HD
ENDBRANCH   9  11
TORSDOF 1
ENDMDL
MODEL 3
REMARK VINA RESULT:      -4.0     18.796     20.290
REMARK  1 active torsions:
REMARK  status: ('A' for Active; 'I' for Inactive)
REMARK    1  A    between atoms: C_9  and  O_10 
ROOT
HETATM    1  C   LIG     1      22.441  20.684  33.711  1.00  0.00     0.016 C 
HETATM    2  C   LIG     1      21.765  21.350  34.950  1.00  0.00    -0.034 C 
HETATM    3  C   LIG     1      21.975  20.356  36.134  1.00  0.00     0.016 C 
HETATM    4  C   LIG     1      20.294  21.735  34.719  1.00  0.00    -0.004 C 
HETATM    5  C   LIG     1      20.377  22.809  33.606  1.00  0.00     0.006 C 
HETATM    6  C   LIG     1      21.684  23.553  33.945  1.00  0.00     0.013 C 
HETATM    7  C   LIG     1      22.170  22.817  35.225  1.00  0.00    -0.011 C 
HETATM    8  C   LIG     1      23.654  23.048  35.534  1.00  0.00     0.018 C 
HETATM    9  C   LIG     1      21.216  23.225  36.392  1.00  0.00     0.127 C 
HETATM   10  C   LIG     1      19.909  22.489  36.018  1.00  0.00     0.038 C 
ENDROOT
BRANCH   9  11
HETATM   11  O   LIG     1      21.001  24.611  36.464  1.00  0.00    -0.395 OA
HETATM   12  H   LIG     1      21.878  25.021  36.687  1.00  0.00     0.210 HD
ENDBRANCH   9  11
TORSDOF 1
ENDMDL
MODEL 4
REMARK VINA RESULT:      -4.0     18.916     20.223
REMARK  1 active torsions:
REMARK  status: ('A' for Active; 'I' for Inactive)
REMARK    1  A    between atoms: C_9  and  O_10 
ROOT
HETATM    1  C   LIG     1      19.515  20.165  35.072  1.00  0.00     0.016 C 
HETATM    2  C   LIG     1      20.491  21.273  35.577  1.00  0.00    -0.034 C 
HETATM    3  C   LIG     1      21.254  20.649  36.786  1.00  0.00     0.016 C 
HETATM    4  C   LIG     1      19.797  22.606  35.905  1.00  0.00    -0.004 C 
HETATM    5  C   LIG     1      19.245  23.068  34.533  1.00  0.00     0.006 C 
HETATM    6  C   LIG     1      20.331  22.589  33.549  1.00  0.00     0.013 C 
HETATM    7  C   LIG     1      21.376  21.930  34.492  1.00  0.00    -0.011 C 
HETATM    8  C   LIG     1      22.344  20.987  33.766  1.00  0.00     0.018 C 
HETATM    9  C   LIG     1      22.089  23.077  35.277  1.00  0.00     0.127 C 
HETATM   10  C   LIG     1      20.976  23.556  36.237  1.00  0.00     0.038 C 
ENDROOT
BRANCH   9  11
HETATM   11  O   LIG     1      22.513  24.127  34.446  1.00  0.00    -0.395 OA
HETATM   12  H   LIG     1      22.776  23.714  33.581  1.00  0.00     0.210 HD
ENDBRANCH   9  11
TORSDOF 1
ENDMDL
MODEL 5
REMARK VINA RESULT:      -3.9     17.772     19.147
REMARK  1 active torsions:
REMARK  status: ('A' for Active; 'I' for Inactive)
REMARK    1  A    between atoms: C_9  and  O_10 
ROOT
HETATM    1  C   LIG     1      29.586  30.106  35.433  1.00  0.00     0.016 C 
HETATM    2  C   LIG     1      28.126  30.550  35.760  1.00  0.00    -0.034 C 
HETATM    3  C   LIG     1      27.524  31.057  34.412  1.00  0.00     0.016 C 
HETATM    4  C   LIG     1      28.032  31.574  36.903  1.00  0.00    -0.004 C 
HETATM    5  C   LIG     1      28.561  30.789  38.129  1.00  0.00     0.006 C 
HETATM    6  C   LIG     1      28.046  29.360  37.868  1.00  0.00     0.013 C 
HETATM    7  C   LIG     1      27.269  29.519  36.531  1.00  0.00    -0.011 C 
HETATM    8  C   LIG     1      27.023  28.189  35.807  1.00  0.00     0.018 C 
HETATM    9  C   LIG     1      25.963  30.317  36.839  1.00  0.00     0.127 C 
HETATM   10  C   LIG     1      26.506  31.736  37.120  1.00  0.00     0.038 C 
ENDROOT
BRANCH   9  11
HETATM   11  O   LIG     1      25.269  29.821  37.954  1.00  0.00    -0.395 OA
HETATM   12  H   LIG     1      24.301  29.931  37.757  1.00  0.00     0.210 HD
ENDBRANCH   9  11
TORSDOF 1
ENDMDL
MODEL 6
REMARK VINA RESULT:      -3.8     18.927     20.741
REMARK  1 active torsions:
REMARK  status: ('A' for Active; 'I' for Inactive)
REMARK    1  A    between atoms: C_9  and  O_10 
ROOT
HETATM    1  C   LIG     1      22.461  23.657  34.918  1.00  0.00     0.016 C 
HETATM    2  C   LIG     1      21.277  22.758  35.393  1.00  0.00    -0.034 C 
HETATM    3  C   LIG     1      20.322  23.700  36.191  1.00  0.00     0.016 C 
HETATM    4  C   LIG     1      21.722  21.515  36.182  1.00  0.00    -0.004 C 
HETATM    5  C   LIG     1      22.529  20.702  35.141  1.00  0.00     0.006 C 
HETATM    6  C   LIG     1      21.769  20.976  33.828  1.00  0.00     0.013 C 
HETATM    7  C   LIG     1      20.608  21.898  34.295  1.00  0.00    -0.011 C 
HETATM    8  C   LIG     1      19.951  22.679  33.151  1.00  0.00     0.018 C 
HETATM    9  C   LIG     1      19.607  21.018  35.110  1.00  0.00     0.127 C 
HETATM   10  C   LIG     1      20.400  20.737  36.407  1.00  0.00     0.038 C 
ENDROOT
BRANCH   9  11
HETATM   11  O   LIG     1      19.280  19.817  34.458  1.00  0.00    -0.395 OA
HETATM   12  H   LIG     1      18.343  19.605  34.711  1.00  0.00     0.210 HD
ENDBRANCH   9  11
TORSDOF 1
ENDMDL
MODEL 7
REMARK VINA RESULT:      -3.6     15.894     17.597
REMARK  1 active torsions:
REMARK  status: ('A' for Active; 'I' for Inactive)
REMARK    1  A    between atoms: C_9  and  O_10 
ROOT
HETATM    1  C   LIG     1      22.046  23.040  21.292  1.00  0.00     0.016 C 
HETATM    2  C   LIG     1      23.090  21.939  20.926  1.00  0.00    -0.034 C 
HETATM    3  C   LIG     1      22.894  21.657  19.404  1.00  0.00     0.016 C 
HETATM    4  C   LIG     1      22.996  20.681  21.806  1.00  0.00    -0.004 C 
HETATM    5  C   LIG     1      23.355  21.206  23.218  1.00  0.00     0.006 C 
HETATM    6  C   LIG     1      24.418  22.283  22.922  1.00  0.00     0.013 C 
HETATM    7  C   LIG     1      24.543  22.219  21.375  1.00  0.00    -0.011 C 
HETATM    8  C   LIG     1      25.196  23.466  20.763  1.00  0.00     0.018 C 
HETATM    9  C   LIG     1      25.277  20.888  21.017  1.00  0.00     0.127 C 
HETATM   10  C   LIG     1      24.203  19.825  21.343  1.00  0.00     0.038 C 
ENDROOT
BRANCH   9  11
HETATM   11  O   LIG     1      26.433  20.678  21.785  1.00  0.00    -0.395 OA
HETATM   12  H   LIG     1      27.193  20.632  21.147  1.00  0.00     0.210 HD
ENDBRANCH   9  11
TORSDOF 1
ENDMDL
MODEL 8
REMARK VINA RESULT:      -3.6     17.573     18.960
REMARK  1 active torsions:
REMARK  status: ('A' for Active; 'I' for Inactive)
REMARK    1  A    between atoms: C_9  and  O_10 
ROOT
HETATM    1  C   LIG     1      27.934  32.167  37.691  1.00  0.00     0.016 C 
HETATM    2  C   LIG     1      28.165  31.115  36.562  1.00  0.00    -0.034 C 
HETATM    3  C   LIG     1      29.696  31.148  36.258  1.00  0.00     0.016 C 
HETATM    4  C   LIG     1      27.283  31.335  35.321  1.00  0.00    -0.004 C 
HETATM    5  C   LIG     1      25.848  31.122  35.862  1.00  0.00     0.006 C 
HETATM    6  C   LIG     1      26.039  30.009  36.911  1.00  0.00     0.013 C 
HETATM    7  C   LIG     1      27.562  29.714  36.819  1.00  0.00    -0.011 C 
HETATM    8  C   LIG     1      28.114  28.969  38.040  1.00  0.00     0.018 C 
HETATM    9  C   LIG     1      27.816  28.976  35.466  1.00  0.00     0.127 C 
HETATM   10  C   LIG     1      27.596  30.104  34.432  1.00  0.00     0.038 C 
ENDROOT
BRANCH   9  11
HETATM   11  O   LIG     1      26.921  27.918  35.244  1.00  0.00    -0.395 OA
HETATM   12  H   LIG     1      27.268  27.142  35.758  1.00  0.00     0.210 HD
ENDBRANCH   9  11
TORSDOF 1
ENDMDL
MODEL 9
REMARK VINA RESULT:      -3.6     15.825     17.640
REMARK  1 active torsions:
REMARK  status: ('A' for Active; 'I' for Inactive)
REMARK    1  A    between atoms: C_9  and  O_10 
ROOT
HETATM    1  C   LIG     1      22.733  20.846  22.520  1.00  0.00     0.016 C 
HETATM    2  C   LIG     1      23.099  21.705  21.269  1.00  0.00    -0.034 C 
HETATM    3  C   LIG     1      22.153  22.945  21.313  1.00  0.00     0.016 C 
HETATM    4  C   LIG     1      23.036  20.926  19.944  1.00  0.00    -0.004 C 
HETATM    5  C   LIG     1      24.142  19.854  20.108  1.00  0.00     0.006 C 
HETATM    6  C   LIG     1      25.225  20.601  20.912  1.00  0.00     0.013 C 
HETATM    7  C   LIG     1      24.603  22.014  21.086  1.00  0.00    -0.011 C 
HETATM    8  C   LIG     1      25.252  22.832  22.211  1.00  0.00     0.018 C 
HETATM    9  C   LIG     1      24.643  22.721  19.694  1.00  0.00     0.127 C 
HETATM   10  C   LIG     1      23.570  21.941  18.901  1.00  0.00     0.038 C 
ENDROOT
BRANCH   9  11
HETATM   11  O   LIG     1      25.895  22.619  19.066  1.00  0.00    -0.395 OA
HETATM   12  H   LIG     1      26.568  22.518  19.790  1.00  0.00     0.210 HD
ENDBRANCH   9  11
TORSDOF 1
ENDMDL
MODEL 10
REMARK VINA RESULT:      -3.5     15.551     17.073
REMARK  1 active torsions:
REMARK  status: ('A' for Active; 'I' for Inactive)
REMARK    1  A    between atoms: C_9  and  O_10 
ROOT
HETATM    1  C   LIG     1      23.277  21.832  18.991  1.00  0.00     0.016 C 
HETATM    2  C   LIG     1      23.876  21.472  20.386  1.00  0.00    -0.034 C 
HETATM    3  C   LIG     1      24.874  20.300  20.130  1.00  0.00     0.016 C 
HETATM    4  C   LIG     1      22.814  21.158  21.453  1.00  0.00    -0.004 C 
HETATM    5  C   LIG     1      22.058  22.501  21.609  1.00  0.00     0.006 C 
HETATM    6  C   LIG     1      23.175  23.547  21.421  1.00  0.00     0.013 C 
HETATM    7  C   LIG     1      24.434  22.662  21.202  1.00  0.00    -0.011 C 
HETATM    8  C   LIG     1      25.605  23.416  20.558  1.00  0.00     0.018 C 
HETATM    9  C   LIG     1      24.790  22.003  22.572  1.00  0.00     0.127 C 
HETATM   10  C   LIG     1      23.646  20.979  22.749  1.00  0.00     0.038 C 
ENDROOT
BRANCH   9  11
HETATM   11  O   LIG     1      24.802  22.923  23.634  1.00  0.00    -0.395 OA
HETATM   12  H   LIG     1      25.021  23.807  23.239  1.00  0.00     0.210 HD
ENDBRANCH   9  11
TORSDOF 1
ENDMDL
MODEL 11
REMARK VINA RESULT:      -3.5     17.181     18.412
REMARK  1 active torsions:
REMARK  status: ('A' for Active; 'I' for Inactive)
REMARK    1  A    between atoms: C_9  and  O_10 
ROOT
HETATM    1  C   LIG     1      26.837  28.514  37.344  1.00  0.00     0.016 C 
HETATM    2  C   LIG     1      27.777  29.322  36.395  1.00  0.00    -0.034 C 
HETATM    3  C   LIG     1      29.061  28.450  36.226  1.00  0.00     0.016 C 
HETATM    4  C   LIG     1      28.061  30.754  36.877  1.00  0.00    -0.004 C 
HETATM    5  C   LIG     1      26.668  31.429  36.829  1.00  0.00     0.006 C 
HETATM    6  C   LIG     1      26.014  30.777  35.594  1.00  0.00     0.013 C 
HETATM    7  C   LIG     1      27.131  29.825  35.083  1.00  0.00    -0.011 C 
HETATM    8  C   LIG     1      26.616  28.733  34.137  1.00  0.00     0.018 C 
HETATM    9  C   LIG     1      28.257  30.712  34.463  1.00  0.00     0.127 C 
HETATM   10  C   LIG     1      28.880  31.372  35.714  1.00  0.00     0.038 C 
ENDROOT
BRANCH   9  11
HETATM   11  O   LIG     1      27.761  31.688  33.582  1.00  0.00    -0.395 OA
HETATM   12  H   LIG     1      28.477  32.370  33.484  1.00  0.00     0.210 HD
ENDBRANCH   9  11
TORSDOF 1
ENDMDL
MODEL 12
REMARK VINA RESULT:      -3.5     15.727     17.423
REMARK  1 active torsions:
REMARK  status: ('A' for Active; 'I' for Inactive)
REMARK    1  A    between atoms: C_9  and  O_10 
ROOT
HETATM    1  C   LIG     1      22.766  20.566  22.804  1.00  0.00     0.016 C 
HETATM    2  C   LIG     1      23.919  21.120  21.910  1.00  0.00    -0.034 C 
HETATM    3  C   LIG     1      25.171  20.249  22.243  1.00  0.00     0.016 C 
HETATM    4  C   LIG     1      24.156  22.631  22.072  1.00  0.00    -0.004 C 
HETATM    5  C   LIG     1      22.835  23.255  21.560  1.00  0.00     0.006 C 
HETATM    6  C   LIG     1      22.429  22.307  20.414  1.00  0.00     0.013 C 
HETATM    7  C   LIG     1      23.587  21.271  20.407  1.00  0.00    -0.011 C 
HETATM    8  C   LIG     1      23.237  19.970  19.673  1.00  0.00     0.018 C 
HETATM    9  C   LIG     1      24.855  21.987  19.844  1.00  0.00     0.127 C 
HETATM   10  C   LIG     1      25.228  22.946  20.997  1.00  0.00     0.038 C 
ENDROOT
BRANCH   9  11
HETATM   11  O   LIG     1      24.599  22.704  18.664  1.00  0.00    -0.395 OA
HETATM   12  H   LIG     1      25.388  23.289  18.512  1.00  0.00     0.210 HD
ENDBRANCH   9  11
TORSDOF 1
ENDMDL
MODEL 13
REMARK VINA RESULT:      -3.5     16.236     17.953
REMARK  1 active torsions:
REMARK  status: ('A' for Active; 'I' for Inactive)
REMARK    1  A    between atoms: C_9  and  O_10 
ROOT
HETATM    1  C   LIG     1      22.085  22.799  21.243  1.00  0.00     0.016 C 
HETATM    2  C   LIG     1      23.532  22.214  21.220  1.00  0.00    -0.034 C 
HETATM    3  C   LIG     1      24.209  22.703  22.539  1.00  0.00     0.016 C 
HETATM    4  C   LIG     1      24.323  22.570  19.950  1.00  0.00    -0.004 C 
HETATM    5  C   LIG     1      23.524  21.868  18.824  1.00  0.00     0.006 C 
HETATM    6  C   LIG     1      23.034  20.575  19.507  1.00  0.00     0.013 C 
HETATM    7  C   LIG     1      23.636  20.698  20.934  1.00  0.00    -0.011 C 
HETATM    8  C   LIG     1      22.960  19.782  21.963  1.00  0.00     0.018 C 
HETATM    9  C   LIG     1      25.178  20.475  20.815  1.00  0.00     0.127 C 
HETATM   10  C   LIG     1      25.641  21.768  20.108  1.00  0.00     0.038 C 
ENDROOT
BRANCH   9  11
HETATM   11  O   LIG     1      25.509  19.345  20.049  1.00  0.00    -0.395 OA
HETATM   12  H   LIG     1      25.981  19.679  19.242  1.00  0.00     0.210 HD
ENDBRANCH   9  11
TORSDOF 1
ENDMDL
MODEL 14
REMARK VINA RESULT:      -3.4     16.217     17.590
REMARK  1 active torsions:
REMARK  status: ('A' for Active; 'I' for Inactive)
REMARK    1  A    between atoms: C_9  and  O_10 
ROOT
HETATM    1  C   LIG     1      25.224  23.508  20.242  1.00  0.00     0.016 C 
HETATM    2  C   LIG     1      24.835  22.081  20.740  1.00  0.00    -0.034 C 
HETATM    3  C   LIG     1      26.175  21.287  20.843  1.00  0.00     0.016 C 
HETATM    4  C   LIG     1      23.772  21.390  19.869  1.00  0.00    -0.004 C 
HETATM    5  C   LIG     1      22.527  22.294  20.043  1.00  0.00     0.006 C 
HETATM    6  C   LIG     1      22.640  22.754  21.510  1.00  0.00     0.013 C 
HETATM    7  C   LIG     1      23.929  22.034  21.993  1.00  0.00    -0.011 C 
HETATM    8  C   LIG     1      24.528  22.642  23.267  1.00  0.00     0.018 C 
HETATM    9  C   LIG     1      23.598  20.513  22.121  1.00  0.00     0.127 C 
HETATM   10  C   LIG     1      23.466  20.081  20.642  1.00  0.00     0.038 C 
ENDROOT
BRANCH   9  11
HETATM   11  O   LIG     1      22.403  20.270  22.817  1.00  0.00    -0.395 OA
HETATM   12  H   LIG     1      21.845  21.086  22.713  1.00  0.00     0.210 HD
ENDBRANCH   9  11
TORSDOF 1
ENDMDL
MODEL 15
REMARK VINA RESULT:      -3.3     15.742     17.553
REMARK  1 active torsions:
REMARK  status: ('A' for Active; 'I' for Inactive)
REMARK    1  A    between atoms: C_9  and  O_10 
ROOT
HETATM    1  C   LIG     1      22.707  20.143  22.894  1.00  0.00     0.016 C 
HETATM    2  C   LIG     1      23.556  20.703  21.711  1.00  0.00    -0.034 C 
HETATM    3  C   LIG     1      23.120  19.890  20.452  1.00  0.00     0.016 C 
HETATM    4  C   LIG     1      25.072  20.677  21.970  1.00  0.00    -0.004 C 
HETATM    5  C   LIG     1      25.246  21.649  23.163  1.00  0.00     0.006 C 
HETATM    6  C   LIG     1      24.181  22.728  22.885  1.00  0.00     0.013 C 
HETATM    7  C   LIG     1      23.548  22.242  21.551  1.00  0.00    -0.011 C 
HETATM    8  C   LIG     1      22.179  22.870  21.262  1.00  0.00     0.018 C 
HETATM    9  C   LIG     1      24.597  22.477  20.419  1.00  0.00     0.127 C 
HETATM   10  C   LIG     1      25.663  21.402  20.733  1.00  0.00     0.038 C 
ENDROOT
BRANCH   9  11
HETATM   11  O   LIG     1      25.162  23.762  20.455  1.00  0.00    -0.395 OA
HETATM   12  H   LIG     1      24.448  24.376  20.770  1.00  0.00     0.210 HD
ENDBRANCH   9  11
TORSDOF 1
ENDMDL
MODEL 16
REMARK VINA RESULT:      -3.3     17.281     18.596
REMARK  1 active torsions:
REMARK  status: ('A' for Active; 'I' for Inactive)
REMARK    1  A    between atoms: C_9  and  O_10 
ROOT
HETATM    1  C   LIG     1      29.878  29.081  35.057  1.00  0.00     0.016 C 
HETATM    2  C   LIG     1      28.842  29.989  35.791  1.00  0.00    -0.034 C 
HETATM    3  C   LIG     1      29.678  31.097  36.504  1.00  0.00     0.016 C 
HETATM    4  C   LIG     1      27.903  29.218  36.734  1.00  0.00    -0.004 C 
HETATM    5  C   LIG     1      27.111  28.297  35.774  1.00  0.00     0.006 C 
HETATM    6  C   LIG     1      26.953  29.170  34.513  1.00  0.00     0.013 C 
HETATM    7  C   LIG     1      27.662  30.491  34.926  1.00  0.00    -0.011 C 
HETATM    8  C   LIG     1      28.044  31.376  33.733  1.00  0.00     0.018 C 
HETATM    9  C   LIG     1      26.749  31.207  35.971  1.00  0.00     0.127 C 
HETATM   10  C   LIG     1      26.904  30.302  37.214  1.00  0.00     0.038 C 
ENDROOT
BRANCH   9  11
HETATM   11  O   LIG     1      25.405  31.273  35.569  1.00  0.00    -0.395 OA
HETATM   12  H   LIG     1      25.326  32.065  34.975  1.00  0.00     0.210 HD
ENDBRANCH   9  11
TORSDOF 1
ENDMDL
MODEL 17
REMARK VINA RESULT:      -3.3     17.004     18.570
REMARK  1 active torsions:
REMARK  status: ('A' for Active; 'I' for Inactive)
REMARK    1  A    between atoms: C_9  and  O_10 
ROOT
HETATM    1  C   LIG     1      25.437  22.897  19.430  1.00  0.00     0.016 C 
HETATM    2  C   LIG     1      24.741  21.621  18.859  1.00  0.00    -0.034 C 
HETATM    3  C   LIG     1      25.671  21.105  17.718  1.00  0.00     0.016 C 
HETATM    4  C   LIG     1      23.288  21.856  18.415  1.00  0.00    -0.004 C 
HETATM    5  C   LIG     1      22.566  22.223  19.735  1.00  0.00     0.006 C 
HETATM    6  C   LIG     1      23.285  21.342  20.775  1.00  0.00     0.013 C 
HETATM    7  C   LIG     1      24.315  20.566  19.907  1.00  0.00    -0.011 C 
HETATM    8  C   LIG     1      25.456  19.945  20.723  1.00  0.00     0.018 C 
HETATM    9  C   LIG     1      23.522  19.530  19.049  1.00  0.00     0.127 C 
HETATM   10  C   LIG     1      22.793  20.437  18.033  1.00  0.00     0.038 C 
ENDROOT
BRANCH   9  11
HETATM   11  O   LIG     1      22.598  18.788  19.804  1.00  0.00    -0.395 OA
HETATM   12  H   LIG     1      22.761  19.020  20.756  1.00  0.00     0.210 HD
ENDBRANCH   9  11
TORSDOF 1
ENDMDL
MODEL 18
REMARK VINA RESULT:      -3.3     16.546     17.723
REMARK  1 active torsions:
REMARK  status: ('A' for Active; 'I' for Inactive)
REMARK    1  A    between atoms: C_9  and  O_10 
ROOT
HETATM    1  C   LIG     1      25.423  22.554  22.718  1.00  0.00     0.016 C 
HETATM    2  C   LIG     1      24.616  22.483  21.384  1.00  0.00    -0.034 C 
HETATM    3  C   LIG     1      25.208  23.600  20.469  1.00  0.00     0.016 C 
HETATM    4  C   LIG     1      23.093  22.583  21.575  1.00  0.00    -0.004 C 
HETATM    5  C   LIG     1      22.753  21.309  22.389  1.00  0.00     0.006 C 
HETATM    6  C   LIG     1      23.739  20.268  21.824  1.00  0.00     0.013 C 
HETATM    7  C   LIG     1      24.506  21.079  20.743  1.00  0.00    -0.011 C 
HETATM    8  C   LIG     1      25.834  20.436  20.324  1.00  0.00     0.018 C 
HETATM    9  C   LIG     1      23.524  21.321  19.553  1.00  0.00     0.127 C 
HETATM   10  C   LIG     1      22.533  22.346  20.149  1.00  0.00     0.038 C 
ENDROOT
BRANCH   9  11
HETATM   11  O   LIG     1      22.850  20.154  19.154  1.00  0.00    -0.395 OA
HETATM   12  H   LIG     1      23.474  19.398  19.319  1.00  0.00     0.210 HD
ENDBRANCH   9  11
TORSDOF 1
ENDMDL
MODEL 19
REMARK VINA RESULT:      -3.2     15.919     17.552
REMARK  1 active torsions:
REMARK  status: ('A' for Active; 'I' for Inactive)
REMARK    1  A    between atoms: C_9  and  O_10 
ROOT
HETATM    1  C   LIG     1      23.156  19.381  20.440  1.00  0.00     0.016 C 
HETATM    2  C   LIG     1      23.572  20.720  21.125  1.00  0.00    -0.034 C 
HETATM    3  C   LIG     1      23.684  20.402  22.648  1.00  0.00     0.016 C 
HETATM    4  C   LIG     1      22.633  21.896  20.805  1.00  0.00    -0.004 C 
HETATM    5  C   LIG     1      22.806  22.085  19.278  1.00  0.00     0.006 C 
HETATM    6  C   LIG     1      24.296  21.758  19.059  1.00  0.00     0.013 C 
HETATM    7  C   LIG     1      24.788  21.442  20.499  1.00  0.00    -0.011 C 
HETATM    8  C   LIG     1      26.110  20.664  20.535  1.00  0.00     0.018 C 
HETATM    9  C   LIG     1      24.832  22.790  21.287  1.00  0.00     0.127 C 
HETATM   10  C   LIG     1      23.331  23.108  21.473  1.00  0.00     0.038 C 
ENDROOT
BRANCH   9  11
HETATM   11  O   LIG     1      25.474  23.817  20.577  1.00  0.00    -0.395 OA
HETATM   12  H   LIG     1      24.811  24.168  19.926  1.00  0.00     0.210 HD
ENDBRANCH   9  11
TORSDOF 1
ENDMDL
MODEL 20
REMARK VINA RESULT:      -3.2     16.144     17.726
REMARK  1 active torsions:
REMARK  status: ('A' for Active; 'I' for Inactive)
REMARK    1  A    between atoms: C_9  and  O_10 
ROOT
HETATM    1  C   LIG     1      25.299  21.616  18.775  1.00  0.00     0.016 C 
HETATM    2  C   LIG     1      24.103  21.799  19.761  1.00  0.00    -0.034 C 
HETATM    3  C   LIG     1      22.819  21.808  18.874  1.00  0.00     0.016 C 
HETATM    4  C   LIG     1      24.235  23.032  20.671  1.00  0.00    -0.004 C 
HETATM    5  C   LIG     1      25.489  22.714  21.522  1.00  0.00     0.006 C 
HETATM    6  C   LIG     1      25.392  21.188  21.719  1.00  0.00     0.013 C 
HETATM    7  C   LIG     1      24.078  20.833  20.969  1.00  0.00    -0.011 C 
HETATM    8  C   LIG     1      23.955  19.344  20.623  1.00  0.00     0.018 C 
HETATM    9  C   LIG     1      22.888  21.379  21.821  1.00  0.00     0.127 C 
HETATM   10  C   LIG     1      23.021  22.906  21.628  1.00  0.00     0.038 C 
ENDROOT
BRANCH   9  11
HETATM   11  O   LIG     1      22.988  21.039  23.180  1.00  0.00    -0.395 OA
HETATM   12  H   LIG     1      23.471  21.786  23.623  1.00  0.00     0.210 HD
ENDBRANCH   9  11
TORSDOF 1
ENDMDL
