MODEL 1
REMARK VINA RESULT:      -4.5      0.000      0.000
REMARK  1 active torsions:
REMARK  status: ('A' for Active; 'I' for Inactive)
REMARK    1  A    between atoms: C_2  and  C_3 
ROOT
HETATM    1  C   LIG     1      16.516  36.271  21.985  1.00  0.00     0.046 C 
HETATM    2  C   LIG     1      17.517  36.320  20.815  1.00  0.00     0.034 C 
HETATM    3 CL   LIG     1      14.914  35.795  21.332  1.00  0.00    -0.118 Cl
HETATM    4  C   LIG     1      16.972  35.179  22.971  1.00  0.00     0.034 C 
ENDROOT
BRANCH   1   5
HETATM    5  C   LIG     1      16.429  37.651  22.713  1.00  0.00     0.101 C 
HETATM    6 CL   LIG     1      17.457  38.887  21.915  1.00  0.00    -0.123 Cl
HETATM    7  C   LIG     1      16.813  37.596  24.198  1.00  0.00     0.028 C 
ENDBRANCH   1   5
TORSDOF 1
ENDMDL
MODEL 2
REMARK VINA RESULT:      -4.3      2.021      2.804
REMARK  1 active torsions:
REMARK  status: ('A' for Active; 'I' for Inactive)
REMARK    1  A    between atoms: C_2  and  C_3 
ROOT
HETATM    1  C   LIG     1      16.887  37.183  23.087  1.00  0.00     0.046 C 
HETATM    2  C   LIG     1      15.445  37.674  22.857  1.00  0.00     0.034 C 
HETATM    3 CL   LIG     1      17.229  35.878  21.904  1.00  0.00    -0.118 Cl
HETATM    4  C   LIG     1      17.849  38.351  22.800  1.00  0.00     0.034 C 
ENDROOT
BRANCH   1   5
HETATM    5  C   LIG     1      17.083  36.670  24.550  1.00  0.00     0.101 C 
HETATM    6 CL   LIG     1      18.458  37.491  25.360  1.00  0.00    -0.123 Cl
HETATM    7  C   LIG     1      17.303  35.154  24.653  1.00  0.00     0.028 C 
ENDBRANCH   1   5
TORSDOF 1
ENDMDL
MODEL 3
REMARK VINA RESULT:      -4.2      1.983      2.785
REMARK  1 active torsions:
REMARK  status: ('A' for Active; 'I' for Inactive)
REMARK    1  A    between atoms: C_2  and  C_3 
ROOT
HETATM    1  C   LIG     1      16.915  37.290  22.707  1.00  0.00     0.046 C 
HETATM    2  C   LIG     1      15.439  37.717  22.826  1.00  0.00     0.034 C 
HETATM    3 CL   LIG     1      17.750  37.733  24.232  1.00  0.00    -0.118 Cl
HETATM    4  C   LIG     1      16.967  35.757  22.562  1.00  0.00     0.034 C 
ENDROOT
BRANCH   1   5
HETATM    5  C   LIG     1      17.604  37.971  21.481  1.00  0.00     0.101 C 
HETATM    6 CL   LIG     1      18.337  36.761  20.377  1.00  0.00    -0.123 Cl
HETATM    7  C   LIG     1      18.687  38.989  21.863  1.00  0.00     0.028 C 
ENDBRANCH   1   5
TORSDOF 1
ENDMDL
MODEL 4
REMARK VINA RESULT:      -4.2      1.844      2.301
REMARK  1 active torsions:
REMARK  status: ('A' for Active; 'I' for Inactive)
REMARK    1  A    between atoms: C_2  and  C_3 
ROOT
HETATM    1  C   LIG     1      16.797  36.448  22.243  1.00  0.00     0.046 C 
HETATM    2  C   LIG     1      15.293  36.545  21.927  1.00  0.00     0.034 C 
HETATM    3 CL   LIG     1      17.072  34.960  23.208  1.00  0.00    -0.118 Cl
HETATM    4  C   LIG     1      17.565  36.303  20.916  1.00  0.00     0.034 C 
ENDROOT
BRANCH   1   5
HETATM    5  C   LIG     1      17.295  37.710  23.018  1.00  0.00     0.101 C 
HETATM    6 CL   LIG     1      16.919  37.604  24.769  1.00  0.00    -0.123 Cl
HETATM    7  C   LIG     1      16.724  39.032  22.485  1.00  0.00     0.028 C 
ENDBRANCH   1   5
TORSDOF 1
ENDMDL
MODEL 5
REMARK VINA RESULT:      -4.2      1.392      3.329
REMARK  1 active torsions:
REMARK  status: ('A' for Active; 'I' for Inactive)
REMARK    1  A    between atoms: C_2  and  C_3 
ROOT
HETATM    1  C   LIG     1      17.140  37.927  22.665  1.00  0.00     0.046 C 
HETATM    2  C   LIG     1      15.931  38.879  22.594  1.00  0.00     0.034 C 
HETATM    3 CL   LIG     1      18.532  38.728  21.864  1.00  0.00    -0.118 Cl
HETATM    4  C   LIG     1      17.503  37.712  24.147  1.00  0.00     0.034 C 
ENDROOT
BRANCH   1   5
HETATM    5  C   LIG     1      16.822  36.558  21.984  1.00  0.00     0.101 C 
HETATM    6 CL   LIG     1      17.076  35.183  23.110  1.00  0.00    -0.123 Cl
HETATM    7  C   LIG     1      17.639  36.291  20.712  1.00  0.00     0.028 C 
ENDBRANCH   1   5
TORSDOF 1
ENDMDL
MODEL 6
REMARK VINA RESULT:      -4.0      1.348      3.028
REMARK  1 active torsions:
REMARK  status: ('A' for Active; 'I' for Inactive)
REMARK    1  A    between atoms: C_2  and  C_3 
ROOT
HETATM    1  C   LIG     1      16.947  37.651  22.500  1.00  0.00     0.046 C 
HETATM    2  C   LIG     1      17.955  38.411  21.617  1.00  0.00     0.034 C 
HETATM    3 CL   LIG     1      17.625  37.544  24.158  1.00  0.00    -0.118 Cl
HETATM    4  C   LIG     1      15.646  38.473  22.569  1.00  0.00     0.034 C 
ENDROOT
BRANCH   1   5
HETATM    5  C   LIG     1      16.655  36.227  21.928  1.00  0.00     0.101 C 
HETATM    6 CL   LIG     1      14.932  36.041  21.463  1.00  0.00    -0.123 Cl
HETATM    7  C   LIG     1      17.017  35.085  22.888  1.00  0.00     0.028 C 
ENDBRANCH   1   5
TORSDOF 1
ENDMDL
MODEL 7
REMARK VINA RESULT:      -4.0      1.696      2.888
REMARK  1 active torsions:
REMARK  status: ('A' for Active; 'I' for Inactive)
REMARK    1  A    between atoms: C_2  and  C_3 
ROOT
HETATM    1  C   LIG     1      16.958  37.469  22.704  1.00  0.00     0.046 C 
HETATM    2  C   LIG     1      17.461  37.426  24.159  1.00  0.00     0.034 C 
HETATM    3 CL   LIG     1      15.185  37.741  22.732  1.00  0.00    -0.118 Cl
HETATM    4  C   LIG     1      17.613  38.672  21.999  1.00  0.00     0.034 C 
ENDROOT
BRANCH   1   5
HETATM    5  C   LIG     1      17.304  36.148  21.946  1.00  0.00     0.101 C 
HETATM    6 CL   LIG     1      18.037  36.476  20.341  1.00  0.00    -0.123 Cl
HETATM    7  C   LIG     1      16.101  35.216  21.740  1.00  0.00     0.028 C 
ENDBRANCH   1   5
TORSDOF 1
ENDMDL
MODEL 8
REMARK VINA RESULT:      -3.9      1.206      2.536
REMARK  1 active torsions:
REMARK  status: ('A' for Active; 'I' for Inactive)
REMARK    1  A    between atoms: C_2  and  C_3 
ROOT
HETATM    1  C   LIG     1      16.788  36.774  22.801  1.00  0.00     0.046 C 
HETATM    2  C   LIG     1      17.208  36.938  24.274  1.00  0.00     0.034 C 
HETATM    3 CL   LIG     1      16.512  35.029  22.489  1.00  0.00    -0.118 Cl
HETATM    4  C   LIG     1      15.453  37.513  22.591  1.00  0.00     0.034 C 
ENDROOT
BRANCH   1   5
HETATM    5  C   LIG     1      17.876  37.344  21.836  1.00  0.00     0.101 C 
HETATM    6 CL   LIG     1      17.640  39.097  21.532  1.00  0.00    -0.123 Cl
HETATM    7  C   LIG     1      17.941  36.627  20.480  1.00  0.00     0.028 C 
ENDBRANCH   1   5
TORSDOF 1
ENDMDL
MODEL 9
REMARK VINA RESULT:      -3.6      7.027      8.411
REMARK  1 active torsions:
REMARK  status: ('A' for Active; 'I' for Inactive)
REMARK    1  A    between atoms: C_2  and  C_3 
ROOT
HETATM    1  C   LIG     1      14.255  32.233  16.954  1.00  0.00     0.046 C 
HETATM    2  C   LIG     1      14.728  33.696  16.858  1.00  0.00     0.034 C 
HETATM    3 CL   LIG     1      14.585  31.645  18.617  1.00  0.00    -0.118 Cl
HETATM    4  C   LIG     1      12.731  32.199  16.730  1.00  0.00     0.034 C 
ENDROOT
BRANCH   1   5
HETATM    5  C   LIG     1      14.974  31.335  15.896  1.00  0.00     0.101 C 
HETATM    6 CL   LIG     1      15.918  32.316  14.727  1.00  0.00    -0.123 Cl
HETATM    7  C   LIG     1      14.023  30.428  15.102  1.00  0.00     0.028 C 
ENDBRANCH   1   5
TORSDOF 1
ENDMDL
MODEL 10
REMARK VINA RESULT:      -3.5     10.543     11.942
REMARK  1 active torsions:
REMARK  status: ('A' for Active; 'I' for Inactive)
REMARK    1  A    between atoms: C_2  and  C_3 
ROOT
HETATM    1  C   LIG     1      19.734  33.888  11.465  1.00  0.00     0.046 C 
HETATM    2  C   LIG     1      19.312  33.875  12.947  1.00  0.00     0.034 C 
HETATM    3 CL   LIG     1      19.490  32.240  10.799  1.00  0.00    -0.118 Cl
HETATM    4  C   LIG     1      18.805  34.852  10.704  1.00  0.00     0.034 C 
ENDROOT
BRANCH   1   5
HETATM    5  C   LIG     1      21.222  34.335  11.305  1.00  0.00     0.101 C 
HETATM    6 CL   LIG     1      21.918  34.892  12.863  1.00  0.00    -0.123 Cl
HETATM    7  C   LIG     1      21.429  35.445  10.264  1.00  0.00     0.028 C 
ENDBRANCH   1   5
TORSDOF 1
ENDMDL
MODEL 11
REMARK VINA RESULT:      -3.4     10.524     11.863
REMARK  1 active torsions:
REMARK  status: ('A' for Active; 'I' for Inactive)
REMARK    1  A    between atoms: C_2  and  C_3 
ROOT
HETATM    1  C   LIG     1      20.600  33.836  11.325  1.00  0.00     0.046 C 
HETATM    2  C   LIG     1      21.386  34.055  12.632  1.00  0.00     0.034 C 
HETATM    3 CL   LIG     1      21.040  35.145  10.180  1.00  0.00    -0.118 Cl
HETATM    4  C   LIG     1      21.044  32.495  10.710  1.00  0.00     0.034 C 
ENDROOT
BRANCH   1   5
HETATM    5  C   LIG     1      19.059  33.823  11.587  1.00  0.00     0.101 C 
HETATM    6 CL   LIG     1      18.235  35.183  10.754  1.00  0.00    -0.123 Cl
HETATM    7  C   LIG     1      18.681  33.873  13.074  1.00  0.00     0.028 C 
ENDBRANCH   1   5
TORSDOF 1
ENDMDL
MODEL 12
REMARK VINA RESULT:      -3.3      6.990      8.149
REMARK  1 active torsions:
REMARK  status: ('A' for Active; 'I' for Inactive)
REMARK    1  A    between atoms: C_2  and  C_3 
ROOT
HETATM    1  C   LIG     1      14.635  32.684  16.804  1.00  0.00     0.046 C 
HETATM    2  C   LIG     1      15.334  32.060  18.027  1.00  0.00     0.034 C 
HETATM    3 CL   LIG     1      12.905  32.211  16.846  1.00  0.00    -0.118 Cl
HETATM    4  C   LIG     1      14.713  34.218  16.930  1.00  0.00     0.034 C 
ENDROOT
BRANCH   1   5
HETATM    5  C   LIG     1      15.305  32.219  15.471  1.00  0.00     0.101 C 
HETATM    6 CL   LIG     1      14.791  30.561  15.016  1.00  0.00    -0.123 Cl
HETATM    7  C   LIG     1      16.839  32.254  15.501  1.00  0.00     0.028 C 
ENDBRANCH   1   5
TORSDOF 1
ENDMDL
MODEL 13
REMARK VINA RESULT:      -3.2     18.837     19.597
REMARK  1 active torsions:
REMARK  status: ('A' for Active; 'I' for Inactive)
REMARK    1  A    between atoms: C_2  and  C_3 
ROOT
HETATM    1  C   LIG     1      15.948  18.958  14.649  1.00  0.00     0.046 C 
HETATM    2  C   LIG     1      17.049  17.977  14.203  1.00  0.00     0.034 C 
HETATM    3 CL   LIG     1      16.696  20.189  15.720  1.00  0.00    -0.118 Cl
HETATM    4  C   LIG     1      15.405  19.679  13.402  1.00  0.00     0.034 C 
ENDROOT
BRANCH   1   5
HETATM    5  C   LIG     1      14.791  18.212  15.388  1.00  0.00     0.101 C 
HETATM    6 CL   LIG     1      13.207  18.495  14.592  1.00  0.00    -0.123 Cl
HETATM    7  C   LIG     1      14.655  18.587  16.870  1.00  0.00     0.028 C 
ENDBRANCH   1   5
TORSDOF 1
ENDMDL
MODEL 14
REMARK VINA RESULT:      -3.1      6.762      7.856
REMARK  1 active torsions:
REMARK  status: ('A' for Active; 'I' for Inactive)
REMARK    1  A    between atoms: C_2  and  C_3 
ROOT
HETATM    1  C   LIG     1      13.995  31.866  16.735  1.00  0.00     0.046 C 
HETATM    2  C   LIG     1      14.335  31.453  18.179  1.00  0.00     0.034 C 
HETATM    3 CL   LIG     1      14.188  30.427  15.680  1.00  0.00    -0.118 Cl
HETATM    4  C   LIG     1      12.516  32.296  16.688  1.00  0.00     0.034 C 
ENDROOT
BRANCH   1   5
HETATM    5  C   LIG     1      14.910  33.036  16.250  1.00  0.00     0.101 C 
HETATM    6 CL   LIG     1      16.504  32.437  15.683  1.00  0.00    -0.123 Cl
HETATM    7  C   LIG     1      15.154  34.116  17.312  1.00  0.00     0.028 C 
ENDBRANCH   1   5
TORSDOF 1
ENDMDL
MODEL 15
REMARK VINA RESULT:      -3.0      7.084      7.870
REMARK  1 active torsions:
REMARK  status: ('A' for Active; 'I' for Inactive)
REMARK    1  A    between atoms: C_2  and  C_3 
ROOT
HETATM    1  C   LIG     1      14.080  31.747  16.768  1.00  0.00     0.046 C 
HETATM    2  C   LIG     1      14.025  30.602  15.738  1.00  0.00     0.034 C 
HETATM    3 CL   LIG     1      12.583  32.722  16.603  1.00  0.00    -0.118 Cl
HETATM    4  C   LIG     1      14.095  31.130  18.179  1.00  0.00     0.034 C 
ENDROOT
BRANCH   1   5
HETATM    5  C   LIG     1      15.347  32.637  16.556  1.00  0.00     0.101 C 
HETATM    6 CL   LIG     1      14.999  34.369  16.873  1.00  0.00    -0.123 Cl
HETATM    7  C   LIG     1      15.961  32.520  15.154  1.00  0.00     0.028 C 
ENDBRANCH   1   5
TORSDOF 1
ENDMDL
MODEL 16
REMARK VINA RESULT:      -3.0     18.129     19.284
REMARK  1 active torsions:
REMARK  status: ('A' for Active; 'I' for Inactive)
REMARK    1  A    between atoms: C_2  and  C_3 
ROOT
HETATM    1  C   LIG     1      20.518  22.567  33.842  1.00  0.00     0.046 C 
HETATM    2  C   LIG     1      20.985  21.156  33.436  1.00  0.00     0.034 C 
HETATM    3 CL   LIG     1      21.971  23.592  34.077  1.00  0.00    -0.118 Cl
HETATM    4  C   LIG     1      19.699  23.161  32.680  1.00  0.00     0.034 C 
ENDROOT
BRANCH   1   5
HETATM    5  C   LIG     1      19.654  22.524  35.143  1.00  0.00     0.101 C 
HETATM    6 CL   LIG     1      20.154  23.791  36.311  1.00  0.00    -0.123 Cl
HETATM    7  C   LIG     1      19.683  21.169  35.864  1.00  0.00     0.028 C 
ENDBRANCH   1   5
TORSDOF 1
ENDMDL
MODEL 17
REMARK VINA RESULT:      -3.0     18.674     19.425
REMARK  1 active torsions:
REMARK  status: ('A' for Active; 'I' for Inactive)
REMARK    1  A    between atoms: C_2  and  C_3 
ROOT
HETATM    1  C   LIG     1      15.872  18.847  15.772  1.00  0.00     0.046 C 
HETATM    2  C   LIG     1      14.924  18.613  16.964  1.00  0.00     0.034 C 
HETATM    3 CL   LIG     1      16.436  20.549  15.830  1.00  0.00    -0.118 Cl
HETATM    4  C   LIG     1      17.100  17.933  15.941  1.00  0.00     0.034 C 
ENDROOT
BRANCH   1   5
HETATM    5  C   LIG     1      15.159  18.545  14.415  1.00  0.00     0.101 C 
HETATM    6 CL   LIG     1      15.497  19.815  13.193  1.00  0.00    -0.123 Cl
HETATM    7  C   LIG     1      13.637  18.388  14.534  1.00  0.00     0.028 C 
ENDBRANCH   1   5
TORSDOF 1
ENDMDL
MODEL 18
REMARK VINA RESULT:      -2.8     17.838     18.620
REMARK  1 active torsions:
REMARK  status: ('A' for Active; 'I' for Inactive)
REMARK    1  A    between atoms: C_2  and  C_3 
ROOT
HETATM    1  C   LIG     1      27.140  30.710  35.732  1.00  0.00     0.046 C 
HETATM    2  C   LIG     1      26.920  29.185  35.704  1.00  0.00     0.034 C 
HETATM    3 CL   LIG     1      27.919  31.192  34.189  1.00  0.00    -0.118 Cl
HETATM    4  C   LIG     1      25.764  31.398  35.807  1.00  0.00     0.034 C 
ENDROOT
BRANCH   1   5
HETATM    5  C   LIG     1      28.020  31.131  36.952  1.00  0.00     0.101 C 
HETATM    6 CL   LIG     1      27.246  32.439  37.907  1.00  0.00    -0.123 Cl
HETATM    7  C   LIG     1      29.434  31.591  36.570  1.00  0.00     0.028 C 
ENDBRANCH   1   5
TORSDOF 1
ENDMDL
MODEL 19
REMARK VINA RESULT:      -2.8     18.163     18.948
REMARK  1 active torsions:
REMARK  status: ('A' for Active; 'I' for Inactive)
REMARK    1  A    between atoms: C_2  and  C_3 
ROOT
HETATM    1  C   LIG     1      26.808  31.031  36.857  1.00  0.00     0.046 C 
HETATM    2  C   LIG     1      26.847  32.160  37.905  1.00  0.00     0.034 C 
HETATM    3 CL   LIG     1      26.243  29.534  37.669  1.00  0.00    -0.118 Cl
HETATM    4  C   LIG     1      25.777  31.406  35.776  1.00  0.00     0.034 C 
ENDROOT
BRANCH   1   5
HETATM    5  C   LIG     1      28.213  30.813  36.209  1.00  0.00     0.101 C 
HETATM    6 CL   LIG     1      29.465  31.843  36.978  1.00  0.00    -0.123 Cl
HETATM    7  C   LIG     1      28.245  31.070  34.695  1.00  0.00     0.028 C 
ENDBRANCH   1   5
TORSDOF 1
ENDMDL
MODEL 20
REMARK VINA RESULT:      -2.8     15.549     16.848
REMARK  1 active torsions:
REMARK  status: ('A' for Active; 'I' for Inactive)
REMARK    1  A    between atoms: C_2  and  C_3 
ROOT
HETATM    1  C   LIG     1      23.153  21.899  21.524  1.00  0.00     0.046 C 
HETATM    2  C   LIG     1      24.322  22.708  22.117  1.00  0.00     0.034 C 
HETATM    3 CL   LIG     1      22.608  20.716  22.758  1.00  0.00    -0.118 Cl
HETATM    4  C   LIG     1      21.987  22.865  21.241  1.00  0.00     0.034 C 
ENDROOT
BRANCH   1   5
HETATM    5  C   LIG     1      23.580  21.170  20.209  1.00  0.00     0.101 C 
HETATM    6 CL   LIG     1      22.829  21.921  18.762  1.00  0.00    -0.123 Cl
HETATM    7  C   LIG     1      23.251  19.671  20.195  1.00  0.00     0.028 C 
ENDBRANCH   1   5
TORSDOF 1
ENDMDL
