REMARK  1 active torsions:
REMARK  status: ('A' for Active; 'I' for Inactive)
REMARK    1  A    between atoms: C_9  and  O_10 
ROOT
HETATM    1  C   LIG     1       1.729  -0.176   1.408  1.00  0.00     0.016 C 
HETATM    2  C   LIG     1       0.880  -0.259   0.101  1.00  0.00    -0.034 C 
HETATM    3  C   LIG     1       1.470  -1.452  -0.714  1.00  0.00     0.016 C 
HETATM    4  C   LIG     1       0.825   1.061  -0.686  1.00  0.00    -0.004 C 
HETATM    5  C   LIG     1       0.090   2.022   0.281  1.00  0.00     0.006 C 
HETATM    6  C   LIG     1      -0.927   1.096   0.977  1.00  0.00     0.013 C 
HETATM    7  C   LIG     1      -0.654  -0.276   0.300  1.00  0.00    -0.011 C 
HETATM    8  C   LIG     1      -1.206  -1.468   1.092  1.00  0.00     0.018 C 
HETATM    9  C   LIG     1      -1.192  -0.193  -1.164  1.00  0.00     0.127 C 
HETATM   10  C   LIG     1      -0.173   0.757  -1.833  1.00  0.00     0.038 C 
ENDROOT
BRANCH   9  11
HETATM   11  O   LIG     1      -2.490   0.338  -1.240  1.00  0.00    -0.395 OA
HETATM   12  H   LIG     1      -3.107  -0.380  -0.939  1.00  0.00     0.210 HD
ENDBRANCH   9  11
TORSDOF 1
