REMARK  8 active torsions:
REMARK  status: ('A' for Active; 'I' for Inactive)
REMARK    1  A    between atoms: C_3  and  C_4 
REMARK    2  A    between atoms: C_3  and  O_15 
REMARK    3  A    between atoms: C_4  and  C_5 
REMARK    4  A    between atoms: C_5  and  O_6 
REMARK    5  A    between atoms: O_6  and  C_7 
REMARK    6  A    between atoms: C_7  and  C_8 
REMARK    7  A    between atoms: C_8  and  C_9 
REMARK    8  A    between atoms: C_19  and  O_20 
ROOT
HETATM    1  C   LIG     1      -0.840  -2.421  -0.907  1.00  0.00     0.019 C 
HETATM    2  C   LIG     1      -0.575  -0.888  -0.862  1.00  0.00     0.001 C 
HETATM    3  C   LIG     1       0.888  -0.572  -1.364  1.00  0.00     0.128 C 
HETATM    4  C   LIG     1       0.764   0.842  -1.936  1.00  0.00     0.047 C 
HETATM    5  C   LIG     1      -0.578   0.871  -2.639  1.00  0.00     0.009 C 
HETATM    6  C   LIG     1      -0.795  -0.385   0.608  1.00  0.00     0.045 C 
HETATM    7  C   LIG     1      -2.274  -0.230   1.086  1.00  0.00     0.124 C 
HETATM    8  C   LIG     1      -1.496  -0.099  -1.869  1.00  0.00     0.002 C 
HETATM    9  C   LIG     1      -2.687   0.663  -1.204  1.00  0.00    -0.002 C 
HETATM   10  C   LIG     1      -3.734   1.095  -2.236  1.00  0.00     0.010 C 
HETATM   11  C   LIG     1      -4.786   1.985  -1.576  1.00  0.00     0.035 C 
HETATM   12  C   LIG     1      -3.303  -0.213  -0.086  1.00  0.00     0.031 C 
HETATM   13  C   LIG     1      -4.847   0.062   0.257  1.00  0.00    -0.014 C 
HETATM   14  C   LIG     1      -5.148  -0.027   1.793  1.00  0.00     0.022 C 
HETATM   15  C   LIG     1      -6.606   0.288   2.150  1.00  0.00     0.084 C 
HETATM   16  C   LIG     1      -5.714  -1.029  -0.442  1.00  0.00     0.020 C 
HETATM   17  C   LIG     1      -5.324   1.418  -0.282  1.00  0.00    -0.068 C 
HETATM   18  C   LIG     1      -6.345   2.076   0.299  1.00  0.00     0.053 C 
HETATM   19  C   LIG     1      -7.062   1.542   1.468  1.00  0.00     0.149 C 
HETATM   20  O   LIG     1      -8.096   2.130   1.882  1.00  0.00    -0.293 OA
ENDROOT
BRANCH   3  21
HETATM   21  C   LIG     1       1.971  -0.681  -0.278  1.00  0.00     0.185 C 
HETATM   22  O   LIG     1       2.078  -1.729   0.344  1.00  0.00    -0.292 OA
BRANCH  21  23
HETATM   23  C   LIG     1       2.908   0.457   0.063  1.00  0.00     0.260 C 
BRANCH  23  24
HETATM   24  O   LIG     1       4.048  -0.005   0.787  1.00  0.00    -0.314 OA
BRANCH  24  25
HETATM   25  C   LIG     1       5.053  -0.792   0.213  1.00  0.00     0.259 C 
HETATM   26  O   LIG     1       4.997  -1.119  -1.005  1.00  0.00    -0.265 OA
BRANCH  25  27
HETATM   27  C   LIG     1       6.214  -1.239   1.054  1.00  0.00     0.119 C 
BRANCH  27  28
HETATM   28  C   LIG     1       7.424  -0.264   1.022  1.00  0.00    -0.043 C 
HETATM   29  C   LIG     1       8.526  -0.824   1.944  1.00  0.00     0.015 C 
HETATM   30  C   LIG     1       7.991  -0.142  -0.409  1.00  0.00     0.015 C 
HETATM   31  C   LIG     1       7.015   1.134   1.534  1.00  0.00     0.015 C 
ENDBRANCH  27  28
ENDBRANCH  25  27
ENDBRANCH  24  25
ENDBRANCH  23  24
ENDBRANCH  21  23
ENDBRANCH   3  21
BRANCH   3  32
HETATM   32  O   LIG     1       1.237  -1.407  -2.451  1.00  0.00    -0.381 OA
HETATM   33  H   LIG     1       1.528  -2.290  -2.104  1.00  0.00     0.211 HD
ENDBRANCH   3  32
BRANCH   7  34
HETATM   34  O   LIG     1      -2.357   0.968   1.817  1.00  0.00    -0.395 OA
HETATM   35  H   LIG     1      -1.952   0.790   2.706  1.00  0.00     0.210 HD
ENDBRANCH   7  34
TORSDOF 8
