MODEL 1
REMARK VINA RESULT:      -9.2      0.000      0.000
REMARK  2 active torsions:
REMARK  status: ('A' for Active; 'I' for Inactive)
REMARK    1  A    between atoms: C_6  and  C_14 
REMARK    2  A    between atoms: C_6  and  C_7 
ROOT
HETATM    1  O   LIG     1      17.189  34.941  26.440  1.00  0.00    -0.247 OA
HETATM    2  C   LIG     1      17.162  35.523  25.322  1.00  0.00     0.329 C 
HETATM    3  N   LIG     1      17.125  36.945  25.259  1.00  0.00    -0.278 N 
HETATM    4  N   LIG     1      17.193  34.760  24.121  1.00  0.00    -0.278 N 
HETATM    5  C   LIG     1      17.116  35.392  22.839  1.00  0.00     0.248 C 
HETATM    6  C   LIG     1      16.801  36.876  22.695  1.00  0.00     0.145 C 
HETATM    7  C   LIG     1      17.074  37.625  24.002  1.00  0.00     0.248 C 
HETATM    8  O   LIG     1      17.209  38.879  23.986  1.00  0.00    -0.271 OA
HETATM    9  O   LIG     1      17.234  34.678  21.806  1.00  0.00    -0.271 OA
HETATM   10  H   LIG     1      17.183  37.500  26.142  1.00  0.00     0.173 HD
HETATM   11  H   LIG     1      17.296  33.721  24.176  1.00  0.00     0.173 HD
ENDROOT
BRANCH   6  12
HETATM   12  C   LIG     1      15.270  36.978  22.416  1.00  0.00     0.029 C 
HETATM   13  C   LIG     1      14.736  35.985  21.371  1.00  0.00     0.007 C 
ENDBRANCH   6  12
BRANCH   6  14
HETATM   14  C   LIG     1      17.712  37.436  21.563  1.00  0.00    -0.057 C 
HETATM   15  C   LIG     1      17.796  38.948  21.309  1.00  0.00     0.036 C 
HETATM   16  C   LIG     1      19.160  39.427  20.795  1.00  0.00     0.004 C 
HETATM   17  C   LIG     1      19.270  39.354  19.263  1.00  0.00     0.001 C 
HETATM   18  C   LIG     1      18.721  38.051  18.661  1.00  0.00     0.004 C 
HETATM   19  C   LIG     1      19.115  36.824  19.485  1.00  0.00     0.027 C 
HETATM   20  C   LIG     1      18.179  36.543  20.639  1.00  0.00    -0.022 C 
ENDBRANCH   6  14
TORSDOF 2
ENDMDL
MODEL 2
REMARK VINA RESULT:      -6.5     15.059     16.796
REMARK  2 active torsions:
REMARK  status: ('A' for Active; 'I' for Inactive)
REMARK    1  A    between atoms: C_6  and  C_14 
REMARK    2  A    between atoms: C_6  and  C_7 
ROOT
HETATM    1  O   LIG     1      29.843  26.205  21.095  1.00  0.00    -0.247 OA
HETATM    2  C   LIG     1      28.892  25.502  20.660  1.00  0.00     0.329 C 
HETATM    3  N   LIG     1      28.969  24.082  20.718  1.00  0.00    -0.278 N 
HETATM    4  N   LIG     1      27.728  26.128  20.130  1.00  0.00    -0.278 N 
HETATM    5  C   LIG     1      26.653  25.355  19.586  1.00  0.00     0.248 C 
HETATM    6  C   LIG     1      26.778  23.852  19.364  1.00  0.00     0.145 C 
HETATM    7  C   LIG     1      27.911  23.265  20.211  1.00  0.00     0.248 C 
HETATM    8  O   LIG     1      27.945  22.023  20.431  1.00  0.00    -0.271 OA
HETATM    9  O   LIG     1      25.609  25.954  19.209  1.00  0.00    -0.271 OA
HETATM   10  H   LIG     1      29.791  23.631  21.180  1.00  0.00     0.173 HD
HETATM   11  H   LIG     1      27.648  27.169  20.160  1.00  0.00     0.173 HD
ENDROOT
BRANCH   6  12
HETATM   12  C   LIG     1      27.174  23.658  17.868  1.00  0.00     0.029 C 
HETATM   13  C   LIG     1      28.127  24.726  17.307  1.00  0.00     0.007 C 
ENDBRANCH   6  12
BRANCH   6  14
HETATM   14  C   LIG     1      25.421  23.208  19.772  1.00  0.00    -0.057 C 
HETATM   15  C   LIG     1      25.021  23.110  21.251  1.00  0.00     0.036 C 
HETATM   16  C   LIG     1      23.511  23.204  21.504  1.00  0.00     0.004 C 
HETATM   17  C   LIG     1      22.812  21.837  21.418  1.00  0.00     0.001 C 
HETATM   18  C   LIG     1      23.261  20.983  20.222  1.00  0.00     0.004 C 
HETATM   19  C   LIG     1      23.414  21.812  18.945  1.00  0.00     0.027 C 
HETATM   20  C   LIG     1      24.763  22.485  18.817  1.00  0.00    -0.022 C 
ENDBRANCH   6  14
TORSDOF 2
ENDMDL
MODEL 3
REMARK VINA RESULT:      -6.3     15.433     16.730
REMARK  2 active torsions:
REMARK  status: ('A' for Active; 'I' for Inactive)
REMARK    1  A    between atoms: C_6  and  C_14 
REMARK    2  A    between atoms: C_6  and  C_7 
ROOT
HETATM    1  O   LIG     1      22.802  19.061  22.783  1.00  0.00    -0.247 OA
HETATM    2  C   LIG     1      23.272  19.922  21.992  1.00  0.00     0.329 C 
HETATM    3  N   LIG     1      22.772  21.255  22.008  1.00  0.00    -0.278 N 
HETATM    4  N   LIG     1      24.321  19.568  21.096  1.00  0.00    -0.278 N 
HETATM    5  C   LIG     1      24.841  20.512  20.155  1.00  0.00     0.248 C 
HETATM    6  C   LIG     1      24.177  21.865  19.925  1.00  0.00     0.145 C 
HETATM    7  C   LIG     1      23.276  22.242  21.105  1.00  0.00     0.248 C 
HETATM    8  O   LIG     1      22.926  23.443  21.264  1.00  0.00    -0.271 OA
HETATM    9  O   LIG     1      25.827  20.175  19.443  1.00  0.00    -0.271 OA
HETATM   10  H   LIG     1      22.060  21.526  22.722  1.00  0.00     0.173 HD
HETATM   11  H   LIG     1      24.733  18.609  21.142  1.00  0.00     0.173 HD
ENDROOT
BRANCH   6  12
HETATM   12  C   LIG     1      23.255  21.699  18.678  1.00  0.00     0.029 C 
HETATM   13  C   LIG     1      22.705  20.280  18.465  1.00  0.00     0.007 C 
ENDBRANCH   6  12
BRANCH   6  14
HETATM   14  C   LIG     1      25.312  22.918  19.766  1.00  0.00    -0.057 C 
HETATM   15  C   LIG     1      26.076  23.431  20.996  1.00  0.00     0.036 C 
HETATM   16  C   LIG     1      27.540  23.797  20.722  1.00  0.00     0.004 C 
HETATM   17  C   LIG     1      27.705  25.250  20.248  1.00  0.00     0.001 C 
HETATM   18  C   LIG     1      26.674  25.681  19.192  1.00  0.00     0.004 C 
HETATM   19  C   LIG     1      26.428  24.591  18.148  1.00  0.00     0.027 C 
HETATM   20  C   LIG     1      25.392  23.572  18.568  1.00  0.00    -0.022 C 
ENDBRANCH   6  14
TORSDOF 2
ENDMDL
