REMARK  2 active torsions:
REMARK  status: ('A' for Active; 'I' for Inactive)
REMARK    1  A    between atoms: C_6  and  C_14 
REMARK    2  A    between atoms: C_6  and  C_7 
ROOT
HETATM    1  O   LIG     1       4.615  -1.235  -2.272  1.00  0.00    -0.247 OA
HETATM    2  C   LIG     1       3.565  -0.957  -1.633  1.00  0.00     0.329 C 
HETATM    3  N   LIG     1       3.343   0.370  -1.168  1.00  0.00    -0.278 N 
HETATM    4  N   LIG     1       2.588  -1.965  -1.395  1.00  0.00    -0.278 N 
HETATM    5  C   LIG     1       1.409  -1.689  -0.632  1.00  0.00     0.248 C 
HETATM    6  C   LIG     1       1.233  -0.378   0.125  1.00  0.00     0.145 C 
HETATM    7  C   LIG     1       2.169   0.703  -0.423  1.00  0.00     0.248 C 
HETATM    8  O   LIG     1       1.933   1.917  -0.175  1.00  0.00    -0.271 OA
HETATM    9  O   LIG     1       0.535  -2.592  -0.523  1.00  0.00    -0.271 OA
HETATM   10  H   LIG     1       4.026   1.121  -1.415  1.00  0.00     0.173 HD
HETATM   11  H   LIG     1       2.724  -2.917  -1.804  1.00  0.00     0.173 HD
ENDROOT
BRANCH   6  12
HETATM   12  C   LIG     1       1.664  -0.657   1.598  1.00  0.00     0.029 C 
HETATM   13  C   LIG     1       1.613   0.565   2.529  1.00  0.00     0.007 C 
ENDBRANCH   6  12
BRANCH   6  14
HETATM   14  C   LIG     1      -0.249   0.064  -0.051  1.00  0.00    -0.057 C 
HETATM   15  C   LIG     1      -1.312  -0.352   0.977  1.00  0.00     0.036 C 
HETATM   16  C   LIG     1      -2.441   0.669   1.166  1.00  0.00     0.004 C 
HETATM   17  C   LIG     1      -3.594   0.464   0.170  1.00  0.00     0.001 C 
HETATM   18  C   LIG     1      -3.132   0.202  -1.272  1.00  0.00     0.004 C 
HETATM   19  C   LIG     1      -1.964   1.104  -1.676  1.00  0.00     0.027 C 
HETATM   20  C   LIG     1      -0.611   0.561  -1.272  1.00  0.00    -0.022 C 
ENDBRANCH   6  14
TORSDOF 2
