MODEL 1
REMARK VINA RESULT:      -5.5      0.000      0.000
REMARK  0 active torsions:
REMARK  status: ('A' for Active; 'I' for Inactive)
ROOT
HETATM    1  O   LIG     1      16.879  39.185  24.134  1.00  0.00    -0.247 OA
HETATM    2  C   LIG     1      17.196  38.076  24.641  1.00  0.00     0.327 A 
HETATM    3  N   LIG     1      17.789  38.033  25.866  1.00  0.00    -0.316 N 
HETATM    4  C   LIG     1      18.139  36.847  26.429  1.00  0.00     0.140 A 
HETATM    5  C   LIG     1      17.890  35.655  25.751  1.00  0.00     0.199 A 
HETATM    6  F   LIG     1      18.235  34.465  26.304  1.00  0.00    -0.199 F 
HETATM    7  N   LIG     1      16.946  36.922  23.962  1.00  0.00    -0.273 N 
HETATM    8  C   LIG     1      17.282  35.715  24.495  1.00  0.00     0.289 A 
HETATM    9  O   LIG     1      17.044  34.655  23.858  1.00  0.00    -0.265 OA
HETATM   10  H   LIG     1      17.981  38.920  26.385  1.00  0.00     0.170 HD
HETATM   11  H   LIG     1      16.490  36.963  23.023  1.00  0.00     0.173 HD
ENDROOT
TORSDOF 0
ENDMDL
MODEL 2
REMARK VINA RESULT:      -5.5      4.541      4.949
REMARK  0 active torsions:
REMARK  status: ('A' for Active; 'I' for Inactive)
ROOT
HETATM    1  O   LIG     1      20.529  39.380  19.353  1.00  0.00    -0.247 OA
HETATM    2  C   LIG     1      19.613  38.877  20.057  1.00  0.00     0.327 A 
HETATM    3  N   LIG     1      19.148  39.547  21.148  1.00  0.00    -0.316 N 
HETATM    4  C   LIG     1      18.162  39.020  21.920  1.00  0.00     0.140 A 
HETATM    5  C   LIG     1      17.614  37.780  21.598  1.00  0.00     0.199 A 
HETATM    6  F   LIG     1      16.627  37.245  22.362  1.00  0.00    -0.199 F 
HETATM    7  N   LIG     1      19.090  37.664  19.727  1.00  0.00    -0.273 N 
HETATM    8  C   LIG     1      18.100  37.105  20.477  1.00  0.00     0.289 A 
HETATM    9  O   LIG     1      17.625  35.983  20.160  1.00  0.00    -0.265 OA
HETATM   10  H   LIG     1      19.551  40.478  21.401  1.00  0.00     0.170 HD
HETATM   11  H   LIG     1      19.452  37.156  18.888  1.00  0.00     0.173 HD
ENDROOT
TORSDOF 0
ENDMDL
MODEL 3
REMARK VINA RESULT:      -5.3      1.469      2.159
REMARK  0 active torsions:
REMARK  status: ('A' for Active; 'I' for Inactive)
ROOT
HETATM    1  O   LIG     1      16.851  39.260  23.572  1.00  0.00    -0.247 OA
HETATM    2  C   LIG     1      17.096  38.131  24.074  1.00  0.00     0.327 A 
HETATM    3  N   LIG     1      16.713  36.999  23.421  1.00  0.00    -0.316 N 
HETATM    4  C   LIG     1      16.967  35.772  23.948  1.00  0.00     0.140 A 
HETATM    5  C   LIG     1      17.628  35.663  25.170  1.00  0.00     0.199 A 
HETATM    6  F   LIG     1      17.887  34.442  25.704  1.00  0.00    -0.199 F 
HETATM    7  N   LIG     1      17.741  38.044  25.270  1.00  0.00    -0.273 N 
HETATM    8  C   LIG     1      18.013  36.832  25.828  1.00  0.00     0.289 A 
HETATM    9  O   LIG     1      18.612  36.766  26.934  1.00  0.00    -0.265 OA
HETATM   10  H   LIG     1      16.217  37.067  22.504  1.00  0.00     0.170 HD
HETATM   11  H   LIG     1      18.032  38.918  25.765  1.00  0.00     0.173 HD
ENDROOT
TORSDOF 0
ENDMDL
MODEL 4
REMARK VINA RESULT:      -5.3      4.565      5.394
REMARK  0 active torsions:
REMARK  status: ('A' for Active; 'I' for Inactive)
ROOT
HETATM    1  O   LIG     1      20.579  39.477  19.240  1.00  0.00    -0.247 OA
HETATM    2  C   LIG     1      19.693  38.834  19.864  1.00  0.00     0.327 A 
HETATM    3  N   LIG     1      19.373  37.568  19.477  1.00  0.00    -0.316 N 
HETATM    4  C   LIG     1      18.420  36.858  20.136  1.00  0.00     0.140 A 
HETATM    5  C   LIG     1      17.757  37.426  21.223  1.00  0.00     0.199 A 
HETATM    6  F   LIG     1      16.804  36.726  21.889  1.00  0.00    -0.199 F 
HETATM    7  N   LIG     1      19.055  39.405  20.923  1.00  0.00    -0.273 N 
HETATM    8  C   LIG     1      18.096  38.725  21.608  1.00  0.00     0.289 A 
HETATM    9  O   LIG     1      17.515  39.265  22.586  1.00  0.00    -0.265 OA
HETATM   10  H   LIG     1      19.862  37.131  18.663  1.00  0.00     0.170 HD
HETATM   11  H   LIG     1      19.307  40.378  21.214  1.00  0.00     0.173 HD
ENDROOT
TORSDOF 0
ENDMDL
MODEL 5
REMARK VINA RESULT:      -5.2      4.366      5.175
REMARK  0 active torsions:
REMARK  status: ('A' for Active; 'I' for Inactive)
ROOT
HETATM    1  O   LIG     1      16.859  39.231  23.240  1.00  0.00    -0.247 OA
HETATM    2  C   LIG     1      17.462  38.708  22.266  1.00  0.00     0.327 A 
HETATM    3  N   LIG     1      17.152  37.441  21.875  1.00  0.00    -0.316 N 
HETATM    4  C   LIG     1      17.792  36.859  20.827  1.00  0.00     0.140 A 
HETATM    5  C   LIG     1      18.779  37.562  20.138  1.00  0.00     0.199 A 
HETATM    6  F   LIG     1      19.424  36.991  19.089  1.00  0.00    -0.199 F 
HETATM    7  N   LIG     1      18.425  39.409  21.605  1.00  0.00    -0.273 N 
HETATM    8  C   LIG     1      19.087  38.860  20.550  1.00  0.00     0.289 A 
HETATM    9  O   LIG     1      19.973  39.520  19.948  1.00  0.00    -0.265 OA
HETATM   10  H   LIG     1      16.414  36.903  22.383  1.00  0.00     0.170 HD
HETATM   11  H   LIG     1      18.656  40.382  21.911  1.00  0.00     0.173 HD
ENDROOT
TORSDOF 0
ENDMDL
MODEL 6
REMARK VINA RESULT:      -5.2      2.524      3.130
REMARK  0 active torsions:
REMARK  status: ('A' for Active; 'I' for Inactive)
ROOT
HETATM    1  O   LIG     1      17.735  34.639  26.253  1.00  0.00    -0.247 OA
HETATM    2  C   LIG     1      17.508  35.648  25.535  1.00  0.00     0.327 A 
HETATM    3  N   LIG     1      17.537  36.894  26.084  1.00  0.00    -0.316 N 
HETATM    4  C   LIG     1      17.294  37.995  25.325  1.00  0.00     0.140 A 
HETATM    5  C   LIG     1      17.011  37.856  23.968  1.00  0.00     0.199 A 
HETATM    6  F   LIG     1      16.767  38.948  23.201  1.00  0.00    -0.199 F 
HETATM    7  N   LIG     1      17.233  35.492  24.210  1.00  0.00    -0.273 N 
HETATM    8  C   LIG     1      16.984  36.572  23.419  1.00  0.00     0.289 A 
HETATM    9  O   LIG     1      16.732  36.414  22.195  1.00  0.00    -0.265 OA
HETATM   10  H   LIG     1      17.748  37.012  27.101  1.00  0.00     0.170 HD
HETATM   11  H   LIG     1      17.213  34.533  23.796  1.00  0.00     0.173 HD
ENDROOT
TORSDOF 0
ENDMDL
MODEL 7
REMARK VINA RESULT:      -5.1      2.105      3.314
REMARK  0 active torsions:
REMARK  status: ('A' for Active; 'I' for Inactive)
ROOT
HETATM    1  O   LIG     1      16.856  34.751  22.077  1.00  0.00    -0.247 OA
HETATM    2  C   LIG     1      16.931  35.668  22.938  1.00  0.00     0.327 A 
HETATM    3  N   LIG     1      17.294  35.372  24.217  1.00  0.00    -0.316 N 
HETATM    4  C   LIG     1      17.379  36.347  25.160  1.00  0.00     0.140 A 
HETATM    5  C   LIG     1      17.093  37.668  24.822  1.00  0.00     0.199 A 
HETATM    6  F   LIG     1      17.176  38.650  25.756  1.00  0.00    -0.199 F 
HETATM    7  N   LIG     1      16.647  36.954  22.590  1.00  0.00    -0.273 N 
HETATM    8  C   LIG     1      16.722  37.956  23.507  1.00  0.00     0.289 A 
HETATM    9  O   LIG     1      16.458  39.141  23.171  1.00  0.00    -0.265 OA
HETATM   10  H   LIG     1      17.510  34.384  24.484  1.00  0.00     0.170 HD
HETATM   11  H   LIG     1      16.369  37.173  21.606  1.00  0.00     0.173 HD
ENDROOT
TORSDOF 0
ENDMDL
MODEL 8
REMARK VINA RESULT:      -5.0      3.764      4.188
REMARK  0 active torsions:
REMARK  status: ('A' for Active; 'I' for Inactive)
ROOT
HETATM    1  O   LIG     1      15.682  38.019  23.924  1.00  0.00    -0.247 OA
HETATM    2  C   LIG     1      16.499  37.991  22.965  1.00  0.00     0.327 A 
HETATM    3  N   LIG     1      17.325  39.051  22.744  1.00  0.00    -0.316 N 
HETATM    4  C   LIG     1      18.212  39.039  21.714  1.00  0.00     0.140 A 
HETATM    5  C   LIG     1      18.284  37.932  20.871  1.00  0.00     0.199 A 
HETATM    6  F   LIG     1      19.166  37.910  19.840  1.00  0.00    -0.199 F 
HETATM    7  N   LIG     1      16.554  36.901  22.150  1.00  0.00    -0.273 N 
HETATM    8  C   LIG     1      17.430  36.853  21.110  1.00  0.00     0.289 A 
HETATM    9  O   LIG     1      17.472  35.839  20.365  1.00  0.00    -0.265 OA
HETATM   10  H   LIG     1      17.281  39.887  23.369  1.00  0.00     0.170 HD
HETATM   11  H   LIG     1      15.917  36.091  22.327  1.00  0.00     0.173 HD
ENDROOT
TORSDOF 0
ENDMDL
MODEL 9
REMARK VINA RESULT:      -5.0      2.501      3.027
REMARK  0 active torsions:
REMARK  status: ('A' for Active; 'I' for Inactive)
ROOT
HETATM    1  O   LIG     1      16.732  34.802  21.856  1.00  0.00    -0.247 OA
HETATM    2  C   LIG     1      16.878  35.540  22.868  1.00  0.00     0.327 A 
HETATM    3  N   LIG     1      16.670  36.881  22.766  1.00  0.00    -0.316 N 
HETATM    4  C   LIG     1      16.823  37.694  23.845  1.00  0.00     0.140 A 
HETATM    5  C   LIG     1      17.196  37.153  25.074  1.00  0.00     0.199 A 
HETATM    6  F   LIG     1      17.351  37.955  26.159  1.00  0.00    -0.199 F 
HETATM    7  N   LIG     1      17.243  34.994  24.061  1.00  0.00    -0.273 N 
HETATM    8  C   LIG     1      17.405  35.776  25.163  1.00  0.00     0.289 A 
HETATM    9  O   LIG     1      17.742  35.258  26.261  1.00  0.00    -0.265 OA
HETATM   10  H   LIG     1      16.391  37.299  21.849  1.00  0.00     0.170 HD
HETATM   11  H   LIG     1      17.400  33.963  24.131  1.00  0.00     0.173 HD
ENDROOT
TORSDOF 0
ENDMDL
MODEL 10
REMARK VINA RESULT:      -4.9      9.592     10.441
REMARK  0 active torsions:
REMARK  status: ('A' for Active; 'I' for Inactive)
ROOT
HETATM    1  O   LIG     1      15.671  34.629  17.160  1.00  0.00    -0.247 OA
HETATM    2  C   LIG     1      15.238  33.536  16.706  1.00  0.00     0.327 A 
HETATM    3  N   LIG     1      15.931  32.882  15.733  1.00  0.00    -0.316 N 
HETATM    4  C   LIG     1      15.480  31.703  15.230  1.00  0.00     0.140 A 
HETATM    5  C   LIG     1      14.295  31.149  15.712  1.00  0.00     0.199 A 
HETATM    6  F   LIG     1      13.836  29.971  15.217  1.00  0.00    -0.199 F 
HETATM    7  N   LIG     1      14.078  33.010  17.188  1.00  0.00    -0.273 N 
HETATM    8  C   LIG     1      13.596  31.831  16.709  1.00  0.00     0.289 A 
HETATM    9  O   LIG     1      12.522  31.356  17.165  1.00  0.00    -0.265 OA
HETATM   10  H   LIG     1      16.821  33.287  15.362  1.00  0.00     0.170 HD
HETATM   11  H   LIG     1      13.552  33.519  17.936  1.00  0.00     0.173 HD
ENDROOT
TORSDOF 0
ENDMDL
MODEL 11
REMARK VINA RESULT:      -4.9      3.035      3.740
REMARK  0 active torsions:
REMARK  status: ('A' for Active; 'I' for Inactive)
ROOT
HETATM    1  O   LIG     1      17.183  38.562  25.374  1.00  0.00    -0.247 OA
HETATM    2  C   LIG     1      17.220  38.050  24.223  1.00  0.00     0.327 A 
HETATM    3  N   LIG     1      16.862  36.749  24.046  1.00  0.00    -0.316 N 
HETATM    4  C   LIG     1      16.897  36.179  22.813  1.00  0.00     0.140 A 
HETATM    5  C   LIG     1      17.302  36.929  21.711  1.00  0.00     0.199 A 
HETATM    6  F   LIG     1      17.340  36.370  20.475  1.00  0.00    -0.199 F 
HETATM    7  N   LIG     1      17.620  38.799  23.158  1.00  0.00    -0.273 N 
HETATM    8  C   LIG     1      17.667  38.263  21.908  1.00  0.00     0.289 A 
HETATM    9  O   LIG     1      18.037  38.967  20.932  1.00  0.00    -0.265 OA
HETATM   10  H   LIG     1      16.556  36.174  24.865  1.00  0.00     0.170 HD
HETATM   11  H   LIG     1      17.893  39.798  23.303  1.00  0.00     0.173 HD
ENDROOT
TORSDOF 0
ENDMDL
MODEL 12
REMARK VINA RESULT:      -4.9      7.397      8.416
REMARK  0 active torsions:
REMARK  status: ('A' for Active; 'I' for Inactive)
ROOT
HETATM    1  O   LIG     1      15.559  34.081  20.907  1.00  0.00    -0.247 OA
HETATM    2  C   LIG     1      15.283  33.621  19.767  1.00  0.00     0.327 A 
HETATM    3  N   LIG     1      14.779  32.362  19.645  1.00  0.00    -0.316 N 
HETATM    4  C   LIG     1      14.477  31.849  18.423  1.00  0.00     0.140 A 
HETATM    5  C   LIG     1      14.681  32.615  17.277  1.00  0.00     0.199 A 
HETATM    6  F   LIG     1      14.382  32.112  16.052  1.00  0.00    -0.199 F 
HETATM    7  N   LIG     1      15.490  34.384  18.658  1.00  0.00    -0.273 N 
HETATM    8  C   LIG     1      15.198  33.904  17.418  1.00  0.00     0.289 A 
HETATM    9  O   LIG     1      15.394  34.620  16.401  1.00  0.00    -0.265 OA
HETATM   10  H   LIG     1      14.622  31.777  20.497  1.00  0.00     0.170 HD
HETATM   11  H   LIG     1      15.877  35.350  18.760  1.00  0.00     0.173 HD
ENDROOT
TORSDOF 0
ENDMDL
MODEL 13
REMARK VINA RESULT:      -4.9      7.276      8.204
REMARK  0 active torsions:
REMARK  status: ('A' for Active; 'I' for Inactive)
ROOT
HETATM    1  O   LIG     1      16.121  35.354  19.593  1.00  0.00    -0.247 OA
HETATM    2  C   LIG     1      15.621  34.368  18.989  1.00  0.00     0.327 A 
HETATM    3  N   LIG     1      15.331  34.459  17.662  1.00  0.00    -0.316 N 
HETATM    4  C   LIG     1      14.790  33.406  16.994  1.00  0.00     0.140 A 
HETATM    5  C   LIG     1      14.528  32.215  17.668  1.00  0.00     0.199 A 
HETATM    6  F   LIG     1      13.989  31.157  17.010  1.00  0.00    -0.199 F 
HETATM    7  N   LIG     1      15.371  33.212  19.665  1.00  0.00    -0.273 N 
HETATM    8  C   LIG     1      14.831  32.137  19.029  1.00  0.00     0.289 A 
HETATM    9  O   LIG     1      14.605  31.074  19.665  1.00  0.00    -0.265 OA
HETATM   10  H   LIG     1      15.523  35.347  17.145  1.00  0.00     0.170 HD
HETATM   11  H   LIG     1      15.597  33.150  20.684  1.00  0.00     0.173 HD
ENDROOT
TORSDOF 0
ENDMDL
MODEL 14
REMARK VINA RESULT:      -4.8      6.996      8.087
REMARK  0 active torsions:
REMARK  status: ('A' for Active; 'I' for Inactive)
ROOT
HETATM    1  O   LIG     1      15.457  34.585  16.393  1.00  0.00    -0.247 OA
HETATM    2  C   LIG     1      15.252  33.785  17.344  1.00  0.00     0.327 A 
HETATM    3  N   LIG     1      14.697  32.566  17.100  1.00  0.00    -0.316 N 
HETATM    4  C   LIG     1      14.468  31.690  18.113  1.00  0.00     0.140 A 
HETATM    5  C   LIG     1      14.802  32.036  19.421  1.00  0.00     0.199 A 
HETATM    6  F   LIG     1      14.578  31.168  20.440  1.00  0.00    -0.199 F 
HETATM    7  N   LIG     1      15.585  34.141  18.616  1.00  0.00    -0.273 N 
HETATM    8  C   LIG     1      15.370  33.289  19.656  1.00  0.00     0.289 A 
HETATM    9  O   LIG     1      15.684  33.631  20.827  1.00  0.00    -0.265 OA
HETATM   10  H   LIG     1      14.441  32.294  16.124  1.00  0.00     0.170 HD
HETATM   11  H   LIG     1      16.011  35.079  18.795  1.00  0.00     0.173 HD
ENDROOT
TORSDOF 0
ENDMDL
MODEL 15
REMARK VINA RESULT:      -4.8      3.854      4.862
REMARK  0 active torsions:
REMARK  status: ('A' for Active; 'I' for Inactive)
ROOT
HETATM    1  O   LIG     1      16.390  34.584  20.488  1.00  0.00    -0.247 OA
HETATM    2  C   LIG     1      16.773  35.716  20.888  1.00  0.00     0.327 A 
HETATM    3  N   LIG     1      17.839  36.320  20.297  1.00  0.00    -0.316 N 
HETATM    4  C   LIG     1      18.268  37.541  20.715  1.00  0.00     0.140 A 
HETATM    5  C   LIG     1      17.612  38.187  21.761  1.00  0.00     0.199 A 
HETATM    6  F   LIG     1      18.032  39.406  22.186  1.00  0.00    -0.199 F 
HETATM    7  N   LIG     1      16.120  36.332  21.913  1.00  0.00    -0.273 N 
HETATM    8  C   LIG     1      16.521  37.554  22.358  1.00  0.00     0.289 A 
HETATM    9  O   LIG     1      15.907  38.113  23.305  1.00  0.00    -0.265 OA
HETATM   10  H   LIG     1      18.340  35.846  19.511  1.00  0.00     0.170 HD
HETATM   11  H   LIG     1      15.302  35.861  22.362  1.00  0.00     0.173 HD
ENDROOT
TORSDOF 0
ENDMDL
MODEL 16
REMARK VINA RESULT:      -4.7     10.525     11.489
REMARK  0 active torsions:
REMARK  status: ('A' for Active; 'I' for Inactive)
ROOT
HETATM    1  O   LIG     1      18.461  34.463  13.469  1.00  0.00    -0.247 OA
HETATM    2  C   LIG     1      17.593  33.640  13.866  1.00  0.00     0.327 A 
HETATM    3  N   LIG     1      16.972  32.823  12.971  1.00  0.00    -0.316 N 
HETATM    4  C   LIG     1      16.032  31.930  13.380  1.00  0.00     0.140 A 
HETATM    5  C   LIG     1      15.696  31.843  14.730  1.00  0.00     0.199 A 
HETATM    6  F   LIG     1      14.760  30.954  15.149  1.00  0.00    -0.199 F 
HETATM    7  N   LIG     1      17.277  33.570  15.189  1.00  0.00    -0.273 N 
HETATM    8  C   LIG     1      16.342  32.687  15.635  1.00  0.00     0.289 A 
HETATM    9  O   LIG     1      16.061  32.632  16.861  1.00  0.00    -0.265 OA
HETATM   10  H   LIG     1      17.214  32.879  11.956  1.00  0.00     0.170 HD
HETATM   11  H   LIG     1      17.760  34.200  15.869  1.00  0.00     0.173 HD
ENDROOT
TORSDOF 0
ENDMDL
MODEL 17
REMARK VINA RESULT:      -4.6      3.214      4.119
REMARK  0 active torsions:
REMARK  status: ('A' for Active; 'I' for Inactive)
ROOT
HETATM    1  O   LIG     1      18.045  36.256  19.570  1.00  0.00    -0.247 OA
HETATM    2  C   LIG     1      17.676  36.496  20.751  1.00  0.00     0.327 A 
HETATM    3  N   LIG     1      17.260  35.477  21.553  1.00  0.00    -0.316 N 
HETATM    4  C   LIG     1      16.857  35.716  22.829  1.00  0.00     0.140 A 
HETATM    5  C   LIG     1      16.869  37.017  23.330  1.00  0.00     0.199 A 
HETATM    6  F   LIG     1      16.470  37.266  24.603  1.00  0.00    -0.199 F 
HETATM    7  N   LIG     1      17.694  37.773  21.223  1.00  0.00    -0.273 N 
HETATM    8  C   LIG     1      17.299  38.050  22.496  1.00  0.00     0.289 A 
HETATM    9  O   LIG     1      17.321  39.236  22.920  1.00  0.00    -0.265 OA
HETATM   10  H   LIG     1      17.245  34.498  21.189  1.00  0.00     0.170 HD
HETATM   11  H   LIG     1      18.015  38.549  20.601  1.00  0.00     0.173 HD
ENDROOT
TORSDOF 0
ENDMDL
MODEL 18
REMARK VINA RESULT:      -4.5     10.029     10.952
REMARK  0 active torsions:
REMARK  status: ('A' for Active; 'I' for Inactive)
ROOT
HETATM    1  O   LIG     1      17.193  33.254  15.519  1.00  0.00    -0.247 OA
HETATM    2  C   LIG     1      16.165  32.562  15.751  1.00  0.00     0.327 A 
HETATM    3  N   LIG     1      15.473  32.742  16.909  1.00  0.00    -0.316 N 
HETATM    4  C   LIG     1      14.363  32.005  17.178  1.00  0.00     0.140 A 
HETATM    5  C   LIG     1      13.922  31.052  16.261  1.00  0.00     0.199 A 
HETATM    6  F   LIG     1      12.814  30.312  16.519  1.00  0.00    -0.199 F 
HETATM    7  N   LIG     1      15.750  31.635  14.844  1.00  0.00    -0.273 N 
HETATM    8  C   LIG     1      14.643  30.879  15.078  1.00  0.00     0.289 A 
HETATM    9  O   LIG     1      14.269  30.027  14.230  1.00  0.00    -0.265 OA
HETATM   10  H   LIG     1      15.793  33.453  17.605  1.00  0.00     0.170 HD
HETATM   11  H   LIG     1      16.287  31.504  13.957  1.00  0.00     0.173 HD
ENDROOT
TORSDOF 0
ENDMDL
MODEL 19
REMARK VINA RESULT:      -4.5      3.623      4.070
REMARK  0 active torsions:
REMARK  status: ('A' for Active; 'I' for Inactive)
ROOT
HETATM    1  O   LIG     1      18.238  39.612  22.450  1.00  0.00    -0.247 OA
HETATM    2  C   LIG     1      17.898  38.461  22.065  1.00  0.00     0.327 A 
HETATM    3  N   LIG     1      17.132  37.674  22.870  1.00  0.00    -0.316 N 
HETATM    4  C   LIG     1      16.757  36.430  22.473  1.00  0.00     0.140 A 
HETATM    5  C   LIG     1      17.156  35.947  21.228  1.00  0.00     0.199 A 
HETATM    6  F   LIG     1      16.786  34.706  20.821  1.00  0.00    -0.199 F 
HETATM    7  N   LIG     1      18.299  38.006  20.846  1.00  0.00    -0.273 N 
HETATM    8  C   LIG     1      17.942  36.765  20.414  1.00  0.00     0.289 A 
HETATM    9  O   LIG     1      18.318  36.357  19.284  1.00  0.00    -0.265 OA
HETATM   10  H   LIG     1      16.826  38.025  23.806  1.00  0.00     0.170 HD
HETATM   11  H   LIG     1      18.887  38.616  20.234  1.00  0.00     0.173 HD
ENDROOT
TORSDOF 0
ENDMDL
MODEL 20
REMARK VINA RESULT:      -4.5      4.532      5.464
REMARK  0 active torsions:
REMARK  status: ('A' for Active; 'I' for Inactive)
ROOT
HETATM    1  O   LIG     1      17.329  35.509  20.266  1.00  0.00    -0.247 OA
HETATM    2  C   LIG     1      17.658  36.669  20.632  1.00  0.00     0.327 A 
HETATM    3  N   LIG     1      17.061  37.234  21.718  1.00  0.00    -0.316 N 
HETATM    4  C   LIG     1      17.402  38.484  22.127  1.00  0.00     0.140 A 
HETATM    5  C   LIG     1      18.374  39.203  21.434  1.00  0.00     0.199 A 
HETATM    6  F   LIG     1      18.722  40.452  21.834  1.00  0.00    -0.199 F 
HETATM    7  N   LIG     1      18.609  37.356  19.941  1.00  0.00    -0.273 N 
HETATM    8  C   LIG     1      18.977  38.610  20.322  1.00  0.00     0.289 A 
HETATM    9  O   LIG     1      19.859  39.234  19.675  1.00  0.00    -0.265 OA
HETATM   10  H   LIG     1      16.330  36.706  22.247  1.00  0.00     0.170 HD
HETATM   11  H   LIG     1      19.063  36.915  19.109  1.00  0.00     0.173 HD
ENDROOT
TORSDOF 0
ENDMDL
