REMARK  0 active torsions:
REMARK  status: ('A' for Active; 'I' for Inactive)
ROOT
HETATM    1  O   LIG     1      -1.986   1.740   0.062  1.00  0.00    -0.247 OA
HETATM    2  C   LIG     1      -1.042   0.906   0.032  1.00  0.00     0.327 A 
HETATM    3  N   LIG     1      -1.314  -0.428   0.016  1.00  0.00    -0.316 N 
HETATM    4  C   LIG     1      -0.309  -1.343  -0.015  1.00  0.00     0.140 A 
HETATM    5  C   LIG     1       1.018  -0.918  -0.032  1.00  0.00     0.199 A 
HETATM    6  F   LIG     1       2.029  -1.823  -0.064  1.00  0.00    -0.199 F 
HETATM    7  N   LIG     1       0.249   1.340   0.017  1.00  0.00    -0.273 N 
HETATM    8  C   LIG     1       1.281   0.453  -0.015  1.00  0.00     0.289 A 
HETATM    9  O   LIG     1       2.470   0.868  -0.030  1.00  0.00    -0.265 OA
HETATM   10  H   LIG     1      -2.305  -0.760   0.029  1.00  0.00     0.170 HD
HETATM   11  H   LIG     1       0.449   2.366   0.029  1.00  0.00     0.173 HD
ENDROOT
TORSDOF 0
