REMARK  6 active torsions:
REMARK  status: ('A' for Active; 'I' for Inactive)
REMARK    1  A    between atoms: C_2  and  C_3 
REMARK    2  A    between atoms: C_2  and  O_12 
REMARK    3  A    between atoms: C_3  and  C_6 
REMARK    4  A    between atoms: C_3  and  C_4 
REMARK    5  A    between atoms: C_4  and  O_5 
REMARK    6  A    between atoms: O_12  and  C_13 
ROOT
HETATM    1  O   LIG     1       1.326  -0.049   1.257  1.00  0.00    -0.264 OA
HETATM    2  C   LIG     1       1.174   0.134   0.017  1.00  0.00     0.270 C 
ENDROOT
BRANCH   2   3
HETATM    3  C   LIG     1       2.310   0.669  -0.812  1.00  0.00     0.142 C 
BRANCH   3   4
HETATM    4  C   LIG     1       3.596  -0.101  -0.528  1.00  0.00    -0.043 A 
HETATM    5  C   LIG     1       3.644  -1.467  -0.868  1.00  0.00     0.008 A 
HETATM    6  C   LIG     1       4.795  -2.223  -0.631  1.00  0.00     0.001 A 
HETATM    7  C   LIG     1       5.917  -1.627  -0.053  1.00  0.00     0.000 A 
HETATM    8  C   LIG     1       5.890  -0.274   0.287  1.00  0.00     0.001 A 
HETATM    9  C   LIG     1       4.741   0.488   0.052  1.00  0.00     0.008 A 
ENDBRANCH   3   4
BRANCH   3  10
HETATM   10  C   LIG     1       2.399   2.200  -0.663  1.00  0.00     0.183 C 
BRANCH  10  11
HETATM   11  O   LIG     1       2.525   2.570   0.684  1.00  0.00    -0.400 OA
HETATM   12  H   LIG     1       2.590   3.560   0.693  1.00  0.00     0.209 HD
ENDBRANCH  10  11
ENDBRANCH   3  10
ENDBRANCH   2   3
BRANCH   2  13
HETATM   13  O   LIG     1      -0.057  -0.124  -0.596  1.00  0.00    -0.315 OA
BRANCH  13  14
HETATM   14  C   LIG     1      -1.216  -0.559   0.116  1.00  0.00     0.136 C 
HETATM   15  C   LIG     1      -2.254  -1.141  -0.901  1.00  0.00     0.071 C 
HETATM   16  C   LIG     1      -3.724  -0.895  -0.481  1.00  0.00     0.257 C 
HETATM   17  C   LIG     1      -4.155   0.468  -1.039  1.00  0.00     0.186 A 
HETATM   18  N   LIG     1      -3.734  -0.793   0.981  1.00  0.00     0.099 N 
HETATM   19  C   LIG     1      -3.876   1.428   0.034  1.00  0.00     0.186 A 
HETATM   20  O   LIG     1      -5.196   1.107  -0.338  1.00  0.00    -0.371 OA
HETATM   21  C   LIG     1      -3.294   0.590   1.180  1.00  0.00     0.257 C 
HETATM   22  C   LIG     1      -1.752   0.591   1.039  1.00  0.00     0.071 C 
HETATM   23  C   LIG     1      -5.029  -1.117   1.605  1.00  0.00     0.311 C 
ENDBRANCH  13  14
ENDBRANCH   2  13
TORSDOF 6
