MODEL 1
REMARK VINA RESULT:      -6.9      0.000      0.000
REMARK  6 active torsions:
REMARK  status: ('A' for Active; 'I' for Inactive)
REMARK    1  A    between atoms: C_2  and  C_3 
REMARK    2  A    between atoms: C_2  and  O_12 
REMARK    3  A    between atoms: C_3  and  C_6 
REMARK    4  A    between atoms: C_3  and  C_4 
REMARK    5  A    between atoms: C_4  and  O_5 
REMARK    6  A    between atoms: O_12  and  C_13 
ROOT
HETATM    1  O   LIG     1      14.621  36.291  21.628  1.00  0.00    -0.264 OA
HETATM    2  C   LIG     1      15.496  35.425  21.347  1.00  0.00     0.270 C 
ENDROOT
BRANCH   2   3
HETATM    3  C   LIG     1      16.946  35.695  21.643  1.00  0.00     0.142 C 
BRANCH   3   4
HETATM    4  C   LIG     1      17.162  35.916  23.137  1.00  0.00    -0.043 A 
HETATM    5  C   LIG     1      17.308  37.238  23.601  1.00  0.00     0.008 A 
HETATM    6  C   LIG     1      17.509  37.501  24.958  1.00  0.00     0.001 A 
HETATM    7  C   LIG     1      17.564  36.450  25.874  1.00  0.00     0.000 A 
HETATM    8  C   LIG     1      17.417  35.134  25.434  1.00  0.00     0.001 A 
HETATM    9  C   LIG     1      17.216  34.864  24.077  1.00  0.00     0.008 A 
ENDBRANCH   3   4
BRANCH   3  10
HETATM   10  C   LIG     1      17.477  36.807  20.717  1.00  0.00     0.183 C 
BRANCH  10  11
HETATM   11  O   LIG     1      18.227  36.270  19.661  1.00  0.00    -0.400 OA
HETATM   12  H   LIG     1      17.600  35.710  19.134  1.00  0.00     0.209 HD
ENDBRANCH  10  11
ENDBRANCH   3  10
ENDBRANCH   2   3
BRANCH   2  13
HETATM   13  O   LIG     1      15.136  34.223  20.729  1.00  0.00    -0.315 OA
BRANCH  13  14
HETATM   14  C   LIG     1      15.703  33.769  19.500  1.00  0.00     0.136 C 
HETATM   15  C   LIG     1      15.134  34.632  18.324  1.00  0.00     0.071 C 
HETATM   16  C   LIG     1      14.978  33.837  17.004  1.00  0.00     0.257 C 
HETATM   17  C   LIG     1      13.590  33.182  17.006  1.00  0.00     0.186 A 
HETATM   18  N   LIG     1      15.971  32.760  17.039  1.00  0.00     0.099 N 
HETATM   19  C   LIG     1      13.797  31.846  17.575  1.00  0.00     0.186 A 
HETATM   20  O   LIG     1      13.468  32.022  16.217  1.00  0.00    -0.371 OA
HETATM   21  C   LIG     1      15.298  31.770  17.883  1.00  0.00     0.257 C 
HETATM   22  C   LIG     1      15.510  32.219  19.350  1.00  0.00     0.071 C 
HETATM   23  C   LIG     1      16.373  32.259  15.713  1.00  0.00     0.311 C 
ENDBRANCH  13  14
ENDBRANCH   2  13
TORSDOF 6
ENDMDL
MODEL 2
REMARK VINA RESULT:      -6.9      3.954      5.460
REMARK  6 active torsions:
REMARK  status: ('A' for Active; 'I' for Inactive)
REMARK    1  A    between atoms: C_2  and  C_3 
REMARK    2  A    between atoms: C_2  and  O_12 
REMARK    3  A    between atoms: C_3  and  C_6 
REMARK    4  A    between atoms: C_3  and  C_4 
REMARK    5  A    between atoms: C_4  and  O_5 
REMARK    6  A    between atoms: O_12  and  C_13 
ROOT
HETATM    1  O   LIG     1      15.491  38.182  23.488  1.00  0.00    -0.264 OA
HETATM    2  C   LIG     1      16.040  37.250  22.836  1.00  0.00     0.270 C 
ENDROOT
BRANCH   2   3
HETATM    3  C   LIG     1      16.234  35.899  23.469  1.00  0.00     0.142 C 
BRANCH   3   4
HETATM    4  C   LIG     1      17.175  35.993  24.666  1.00  0.00    -0.043 A 
HETATM    5  C   LIG     1      17.454  34.817  25.389  1.00  0.00     0.008 A 
HETATM    6  C   LIG     1      18.308  34.842  26.495  1.00  0.00     0.001 A 
HETATM    7  C   LIG     1      18.899  36.042  26.895  1.00  0.00     0.000 A 
HETATM    8  C   LIG     1      18.638  37.217  26.189  1.00  0.00     0.001 A 
HETATM    9  C   LIG     1      17.784  37.198  25.081  1.00  0.00     0.008 A 
ENDBRANCH   3   4
BRANCH   3  10
HETATM   10  C   LIG     1      16.618  34.862  22.395  1.00  0.00     0.183 C 
BRANCH  10  11
HETATM   11  O   LIG     1      15.545  34.615  21.526  1.00  0.00    -0.400 OA
HETATM   12  H   LIG     1      15.749  33.755  21.075  1.00  0.00     0.209 HD
ENDBRANCH  10  11
ENDBRANCH   3  10
ENDBRANCH   2   3
BRANCH   2  13
HETATM   13  O   LIG     1      16.503  37.469  21.534  1.00  0.00    -0.315 OA
BRANCH  13  14
HETATM   14  C   LIG     1      17.887  37.569  21.197  1.00  0.00     0.136 C 
HETATM   15  C   LIG     1      18.308  39.077  21.202  1.00  0.00     0.071 C 
HETATM   16  C   LIG     1      19.398  39.409  20.153  1.00  0.00     0.257 C 
HETATM   17  C   LIG     1      18.697  39.756  18.833  1.00  0.00     0.186 A 
HETATM   18  N   LIG     1      20.162  38.178  19.933  1.00  0.00     0.099 N 
HETATM   19  C   LIG     1      18.624  38.492  18.093  1.00  0.00     0.186 A 
HETATM   20  O   LIG     1      19.460  39.544  17.669  1.00  0.00    -0.371 OA
HETATM   21  C   LIG     1      19.288  37.454  19.007  1.00  0.00     0.257 C 
HETATM   22  C   LIG     1      18.181  36.794  19.865  1.00  0.00     0.071 C 
HETATM   23  C   LIG     1      21.533  38.393  19.437  1.00  0.00     0.311 C 
ENDBRANCH  13  14
ENDBRANCH   2  13
TORSDOF 6
ENDMDL
MODEL 3
REMARK VINA RESULT:      -6.8      5.432      8.859
REMARK  6 active torsions:
REMARK  status: ('A' for Active; 'I' for Inactive)
REMARK    1  A    between atoms: C_2  and  C_3 
REMARK    2  A    between atoms: C_2  and  O_12 
REMARK    3  A    between atoms: C_3  and  C_6 
REMARK    4  A    between atoms: C_3  and  C_4 
REMARK    5  A    between atoms: C_4  and  O_5 
REMARK    6  A    between atoms: O_12  and  C_13 
ROOT
HETATM    1  O   LIG     1      16.984  35.268  15.044  1.00  0.00    -0.264 OA
HETATM    2  C   LIG     1      17.095  34.010  15.035  1.00  0.00     0.270 C 
ENDROOT
BRANCH   2   3
HETATM    3  C   LIG     1      16.276  33.174  15.980  1.00  0.00     0.142 C 
BRANCH   3   4
HETATM    4  C   LIG     1      15.624  32.007  15.243  1.00  0.00    -0.043 A 
HETATM    5  C   LIG     1      14.532  31.361  15.853  1.00  0.00     0.008 A 
HETATM    6  C   LIG     1      13.895  30.286  15.226  1.00  0.00     0.001 A 
HETATM    7  C   LIG     1      14.338  29.842  13.979  1.00  0.00     0.000 A 
HETATM    8  C   LIG     1      15.416  30.473  13.357  1.00  0.00     0.001 A 
HETATM    9  C   LIG     1      16.057  31.549  13.980  1.00  0.00     0.008 A 
ENDBRANCH   3   4
BRANCH   3  10
HETATM   10  C   LIG     1      15.321  34.071  16.790  1.00  0.00     0.183 C 
BRANCH  10  11
HETATM   11  O   LIG     1      16.028  34.856  17.713  1.00  0.00    -0.400 OA
HETATM   12  H   LIG     1      15.864  34.450  18.603  1.00  0.00     0.209 HD
ENDBRANCH  10  11
ENDBRANCH   3  10
ENDBRANCH   2   3
BRANCH   2  13
HETATM   13  O   LIG     1      18.001  33.380  14.175  1.00  0.00    -0.315 OA
BRANCH  13  14
HETATM   14  C   LIG     1      18.810  34.083  13.231  1.00  0.00     0.136 C 
HETATM   15  C   LIG     1      18.212  33.889  11.798  1.00  0.00     0.071 C 
HETATM   16  C   LIG     1      19.289  33.853  10.686  1.00  0.00     0.257 C 
HETATM   17  C   LIG     1      19.762  32.401  10.531  1.00  0.00     0.186 A 
HETATM   18  N   LIG     1      20.428  34.635  11.176  1.00  0.00     0.099 N 
HETATM   19  C   LIG     1      20.927  32.280  11.414  1.00  0.00     0.186 A 
HETATM   20  O   LIG     1      21.062  32.241  10.013  1.00  0.00    -0.371 OA
HETATM   21  C   LIG     1      21.092  33.666  12.052  1.00  0.00     0.257 C 
HETATM   22  C   LIG     1      20.316  33.673  13.392  1.00  0.00     0.071 C 
HETATM   23  C   LIG     1      21.288  35.188  10.115  1.00  0.00     0.311 C 
ENDBRANCH  13  14
ENDBRANCH   2  13
TORSDOF 6
ENDMDL
MODEL 4
REMARK VINA RESULT:      -6.6      4.010      5.557
REMARK  6 active torsions:
REMARK  status: ('A' for Active; 'I' for Inactive)
REMARK    1  A    between atoms: C_2  and  C_3 
REMARK    2  A    between atoms: C_2  and  O_12 
REMARK    3  A    between atoms: C_3  and  C_6 
REMARK    4  A    between atoms: C_3  and  C_4 
REMARK    5  A    between atoms: C_4  and  O_5 
REMARK    6  A    between atoms: O_12  and  C_13 
ROOT
HETATM    1  O   LIG     1      16.017  34.798  22.329  1.00  0.00    -0.264 OA
HETATM    2  C   LIG     1      16.797  35.789  22.278  1.00  0.00     0.270 C 
ENDROOT
BRANCH   2   3
HETATM    3  C   LIG     1      16.721  36.865  23.327  1.00  0.00     0.142 C 
BRANCH   3   4
HETATM    4  C   LIG     1      17.391  36.409  24.619  1.00  0.00    -0.043 A 
HETATM    5  C   LIG     1      18.041  37.376  25.411  1.00  0.00     0.008 A 
HETATM    6  C   LIG     1      18.673  37.017  26.604  1.00  0.00     0.001 A 
HETATM    7  C   LIG     1      18.664  35.687  27.028  1.00  0.00     0.000 A 
HETATM    8  C   LIG     1      18.022  34.715  26.259  1.00  0.00     0.001 A 
HETATM    9  C   LIG     1      17.388  35.068  25.064  1.00  0.00     0.008 A 
ENDBRANCH   3   4
BRANCH   3  10
HETATM   10  C   LIG     1      15.271  37.367  23.466  1.00  0.00     0.183 C 
BRANCH  10  11
HETATM   11  O   LIG     1      15.115  38.630  22.876  1.00  0.00    -0.400 OA
HETATM   12  H   LIG     1      16.021  38.913  22.587  1.00  0.00     0.209 HD
ENDBRANCH  10  11
ENDBRANCH   3  10
ENDBRANCH   2   3
BRANCH   2  13
HETATM   13  O   LIG     1      17.717  35.919  21.232  1.00  0.00    -0.315 OA
BRANCH  13  14
HETATM   14  C   LIG     1      17.653  36.955  20.251  1.00  0.00     0.136 C 
HETATM   15  C   LIG     1      18.640  36.617  19.084  1.00  0.00     0.071 C 
HETATM   16  C   LIG     1      19.273  37.874  18.437  1.00  0.00     0.257 C 
HETATM   17  C   LIG     1      20.545  38.222  19.222  1.00  0.00     0.186 A 
HETATM   18  N   LIG     1      18.324  38.973  18.632  1.00  0.00     0.099 N 
HETATM   19  C   LIG     1      20.115  39.184  20.243  1.00  0.00     0.186 A 
HETATM   20  O   LIG     1      20.939  39.573  19.168  1.00  0.00    -0.371 OA
HETATM   21  C   LIG     1      18.609  39.363  20.014  1.00  0.00     0.257 C 
HETATM   22  C   LIG     1      17.863  38.356  20.924  1.00  0.00     0.071 C 
HETATM   23  C   LIG     1      18.448  40.066  17.651  1.00  0.00     0.311 C 
ENDBRANCH  13  14
ENDBRANCH   2  13
TORSDOF 6
ENDMDL
MODEL 5
REMARK VINA RESULT:      -6.6      1.065      2.099
REMARK  6 active torsions:
REMARK  status: ('A' for Active; 'I' for Inactive)
REMARK    1  A    between atoms: C_2  and  C_3 
REMARK    2  A    between atoms: C_2  and  O_12 
REMARK    3  A    between atoms: C_3  and  C_6 
REMARK    4  A    between atoms: C_3  and  C_4 
REMARK    5  A    between atoms: C_4  and  O_5 
REMARK    6  A    between atoms: O_12  and  C_13 
ROOT
HETATM    1  O   LIG     1      15.094  35.789  21.200  1.00  0.00    -0.264 OA
HETATM    2  C   LIG     1      16.196  35.255  20.891  1.00  0.00     0.270 C 
ENDROOT
BRANCH   2   3
HETATM    3  C   LIG     1      17.491  35.905  21.296  1.00  0.00     0.142 C 
BRANCH   3   4
HETATM    4  C   LIG     1      17.399  36.453  22.717  1.00  0.00    -0.043 A 
HETATM    5  C   LIG     1      17.331  35.533  23.782  1.00  0.00     0.008 A 
HETATM    6  C   LIG     1      17.246  35.976  25.105  1.00  0.00     0.001 A 
HETATM    7  C   LIG     1      17.229  37.344  25.385  1.00  0.00     0.000 A 
HETATM    8  C   LIG     1      17.300  38.269  24.343  1.00  0.00     0.001 A 
HETATM    9  C   LIG     1      17.386  37.832  23.018  1.00  0.00     0.008 A 
ENDBRANCH   3   4
BRANCH   3  10
HETATM   10  C   LIG     1      17.938  36.912  20.218  1.00  0.00     0.183 C 
BRANCH  10  11
HETATM   11  O   LIG     1      17.852  36.350  18.936  1.00  0.00    -0.400 OA
HETATM   12  H   LIG     1      18.742  36.482  18.517  1.00  0.00     0.209 HD
ENDBRANCH  10  11
ENDBRANCH   3  10
ENDBRANCH   2   3
BRANCH   2  13
HETATM   13  O   LIG     1      16.230  34.074  20.141  1.00  0.00    -0.315 OA
BRANCH  13  14
HETATM   14  C   LIG     1      15.136  33.613  19.347  1.00  0.00     0.136 C 
HETATM   15  C   LIG     1      15.296  32.076  19.096  1.00  0.00     0.071 C 
HETATM   16  C   LIG     1      14.754  31.622  17.719  1.00  0.00     0.257 C 
HETATM   17  C   LIG     1      15.887  31.764  16.693  1.00  0.00     0.186 A 
HETATM   18  N   LIG     1      13.703  32.573  17.345  1.00  0.00     0.099 N 
HETATM   19  C   LIG     1      15.719  33.102  16.118  1.00  0.00     0.186 A 
HETATM   20  O   LIG     1      15.475  31.941  15.358  1.00  0.00    -0.371 OA
HETATM   21  C   LIG     1      14.493  33.693  16.827  1.00  0.00     0.257 C 
HETATM   22  C   LIG     1      14.990  34.492  18.056  1.00  0.00     0.071 C 
HETATM   23  C   LIG     1      12.708  32.039  16.398  1.00  0.00     0.311 C 
ENDBRANCH  13  14
ENDBRANCH   2  13
TORSDOF 6
ENDMDL
MODEL 6
REMARK VINA RESULT:      -6.5      1.583      2.959
REMARK  6 active torsions:
REMARK  status: ('A' for Active; 'I' for Inactive)
REMARK    1  A    between atoms: C_2  and  C_3 
REMARK    2  A    between atoms: C_2  and  O_12 
REMARK    3  A    between atoms: C_3  and  C_6 
REMARK    4  A    between atoms: C_3  and  C_4 
REMARK    5  A    between atoms: C_4  and  O_5 
REMARK    6  A    between atoms: O_12  and  C_13 
ROOT
HETATM    1  O   LIG     1      16.903  34.475  22.167  1.00  0.00    -0.264 OA
HETATM    2  C   LIG     1      16.214  35.250  21.446  1.00  0.00     0.270 C 
ENDROOT
BRANCH   2   3
HETATM    3  C   LIG     1      16.259  36.736  21.679  1.00  0.00     0.142 C 
BRANCH   3   4
HETATM    4  C   LIG     1      17.493  37.349  21.023  1.00  0.00    -0.043 A 
HETATM    5  C   LIG     1      17.877  38.648  21.410  1.00  0.00     0.008 A 
HETATM    6  C   LIG     1      18.998  39.260  20.843  1.00  0.00     0.001 A 
HETATM    7  C   LIG     1      19.754  38.585  19.883  1.00  0.00     0.000 A 
HETATM    8  C   LIG     1      19.391  37.296  19.491  1.00  0.00     0.001 A 
HETATM    9  C   LIG     1      18.271  36.678  20.054  1.00  0.00     0.008 A 
ENDBRANCH   3   4
BRANCH   3  10
HETATM   10  C   LIG     1      16.074  37.043  23.177  1.00  0.00     0.183 C 
BRANCH  10  11
HETATM   11  O   LIG     1      15.066  37.998  23.377  1.00  0.00    -0.400 OA
HETATM   12  H   LIG     1      15.255  38.419  24.255  1.00  0.00     0.209 HD
ENDBRANCH  10  11
ENDBRANCH   3  10
ENDBRANCH   2   3
BRANCH   2  13
HETATM   13  O   LIG     1      15.377  34.740  20.448  1.00  0.00    -0.315 OA
BRANCH  13  14
HETATM   14  C   LIG     1      15.859  34.099  19.267  1.00  0.00     0.136 C 
HETATM   15  C   LIG     1      15.218  34.784  18.014  1.00  0.00     0.071 C 
HETATM   16  C   LIG     1      14.972  33.803  16.841  1.00  0.00     0.257 C 
HETATM   17  C   LIG     1      13.585  33.175  17.030  1.00  0.00     0.186 A 
HETATM   18  N   LIG     1      15.961  32.730  16.973  1.00  0.00     0.099 N 
HETATM   19  C   LIG     1      13.823  31.937  17.780  1.00  0.00     0.186 A 
HETATM   20  O   LIG     1      13.406  31.911  16.435  1.00  0.00    -0.371 OA
HETATM   21  C   LIG     1      15.341  31.887  17.998  1.00  0.00     0.257 C 
HETATM   22  C   LIG     1      15.650  32.547  19.364  1.00  0.00     0.071 C 
HETATM   23  C   LIG     1      16.273  32.030  15.715  1.00  0.00     0.311 C 
ENDBRANCH  13  14
ENDBRANCH   2  13
TORSDOF 6
ENDMDL
MODEL 7
REMARK VINA RESULT:      -6.5      1.766      3.301
REMARK  6 active torsions:
REMARK  status: ('A' for Active; 'I' for Inactive)
REMARK    1  A    between atoms: C_2  and  C_3 
REMARK    2  A    between atoms: C_2  and  O_12 
REMARK    3  A    between atoms: C_3  and  C_6 
REMARK    4  A    between atoms: C_3  and  C_4 
REMARK    5  A    between atoms: C_4  and  O_5 
REMARK    6  A    between atoms: O_12  and  C_13 
ROOT
HETATM    1  O   LIG     1      14.484  36.000  21.041  1.00  0.00    -0.264 OA
HETATM    2  C   LIG     1      15.662  35.553  20.945  1.00  0.00     0.270 C 
ENDROOT
BRANCH   2   3
HETATM    3  C   LIG     1      16.740  36.061  21.863  1.00  0.00     0.142 C 
BRANCH   3   4
HETATM    4  C   LIG     1      17.672  37.018  21.126  1.00  0.00    -0.043 A 
HETATM    5  C   LIG     1      17.746  38.352  21.571  1.00  0.00     0.008 A 
HETATM    6  C   LIG     1      18.582  39.273  20.934  1.00  0.00     0.001 A 
HETATM    7  C   LIG     1      19.359  38.876  19.845  1.00  0.00     0.000 A 
HETATM    8  C   LIG     1      19.302  37.558  19.392  1.00  0.00     0.001 A 
HETATM    9  C   LIG     1      18.467  36.631  20.025  1.00  0.00     0.008 A 
ENDBRANCH   3   4
BRANCH   3  10
HETATM   10  C   LIG     1      17.422  34.882  22.582  1.00  0.00     0.183 C 
BRANCH  10  11
HETATM   11  O   LIG     1      17.146  34.900  23.957  1.00  0.00    -0.400 OA
HETATM   12  H   LIG     1      16.251  34.484  24.064  1.00  0.00     0.209 HD
ENDBRANCH  10  11
ENDBRANCH   3  10
ENDBRANCH   2   3
BRANCH   2  13
HETATM   13  O   LIG     1      15.987  34.609  19.965  1.00  0.00    -0.315 OA
BRANCH  13  14
HETATM   14  C   LIG     1      15.013  33.880  19.218  1.00  0.00     0.136 C 
HETATM   15  C   LIG     1      15.442  32.376  19.146  1.00  0.00     0.071 C 
HETATM   16  C   LIG     1      15.027  31.685  17.824  1.00  0.00     0.257 C 
HETATM   17  C   LIG     1      16.148  31.907  16.800  1.00  0.00     0.186 A 
HETATM   18  N   LIG     1      13.840  32.391  17.334  1.00  0.00     0.099 N 
HETATM   19  C   LIG     1      15.770  33.124  16.074  1.00  0.00     0.186 A 
HETATM   20  O   LIG     1      15.752  31.861  15.450  1.00  0.00    -0.371 OA
HETATM   21  C   LIG     1      14.441  33.567  16.699  1.00  0.00     0.257 C 
HETATM   22  C   LIG     1      14.756  34.572  17.834  1.00  0.00     0.071 C 
HETATM   23  C   LIG     1      12.980  31.591  16.444  1.00  0.00     0.311 C 
ENDBRANCH  13  14
ENDBRANCH   2  13
TORSDOF 6
ENDMDL
MODEL 8
REMARK VINA RESULT:      -6.4      2.163      7.531
REMARK  6 active torsions:
REMARK  status: ('A' for Active; 'I' for Inactive)
REMARK    1  A    between atoms: C_2  and  C_3 
REMARK    2  A    between atoms: C_2  and  O_12 
REMARK    3  A    between atoms: C_3  and  C_6 
REMARK    4  A    between atoms: C_3  and  C_4 
REMARK    5  A    between atoms: C_4  and  O_5 
REMARK    6  A    between atoms: O_12  and  C_13 
ROOT
HETATM    1  O   LIG     1      14.348  34.701  16.904  1.00  0.00    -0.264 OA
HETATM    2  C   LIG     1      15.199  34.340  17.765  1.00  0.00     0.270 C 
ENDROOT
BRANCH   2   3
HETATM    3  C   LIG     1      15.543  32.883  17.920  1.00  0.00     0.142 C 
BRANCH   3   4
HETATM    4  C   LIG     1      15.346  32.138  16.604  1.00  0.00    -0.043 A 
HETATM    5  C   LIG     1      14.251  31.260  16.492  1.00  0.00     0.008 A 
HETATM    6  C   LIG     1      14.021  30.549  15.311  1.00  0.00     0.001 A 
HETATM    7  C   LIG     1      14.879  30.706  14.222  1.00  0.00     0.000 A 
HETATM    8  C   LIG     1      15.968  31.574  14.312  1.00  0.00     0.001 A 
HETATM    9  C   LIG     1      16.203  32.288  15.492  1.00  0.00     0.008 A 
ENDBRANCH   3   4
BRANCH   3  10
HETATM   10  C   LIG     1      14.809  32.294  19.140  1.00  0.00     0.183 C 
BRANCH  10  11
HETATM   11  O   LIG     1      15.638  31.413  19.851  1.00  0.00    -0.400 OA
HETATM   12  H   LIG     1      15.446  31.569  20.812  1.00  0.00     0.209 HD
ENDBRANCH  10  11
ENDBRANCH   3  10
ENDBRANCH   2   3
BRANCH   2  13
HETATM   13  O   LIG     1      15.806  35.279  18.605  1.00  0.00    -0.315 OA
BRANCH  13  14
HETATM   14  C   LIG     1      16.192  34.999  19.951  1.00  0.00     0.136 C 
HETATM   15  C   LIG     1      14.970  35.247  20.897  1.00  0.00     0.071 C 
HETATM   16  C   LIG     1      15.379  35.768  22.297  1.00  0.00     0.257 C 
HETATM   17  C   LIG     1      15.456  37.299  22.230  1.00  0.00     0.186 A 
HETATM   18  N   LIG     1      16.733  35.271  22.554  1.00  0.00     0.099 N 
HETATM   19  C   LIG     1      16.855  37.599  21.908  1.00  0.00     0.186 A 
HETATM   20  O   LIG     1      16.312  37.904  23.171  1.00  0.00    -0.371 OA
HETATM   21  C   LIG     1      17.544  36.232  21.801  1.00  0.00     0.257 C 
HETATM   22  C   LIG     1      17.498  35.787  20.319  1.00  0.00     0.071 C 
HETATM   23  C   LIG     1      17.083  35.166  23.982  1.00  0.00     0.311 C 
ENDBRANCH  13  14
ENDBRANCH   2  13
TORSDOF 6
ENDMDL
MODEL 9
REMARK VINA RESULT:      -6.1      2.385      7.626
REMARK  6 active torsions:
REMARK  status: ('A' for Active; 'I' for Inactive)
REMARK    1  A    between atoms: C_2  and  C_3 
REMARK    2  A    between atoms: C_2  and  O_12 
REMARK    3  A    between atoms: C_3  and  C_6 
REMARK    4  A    between atoms: C_3  and  C_4 
REMARK    5  A    between atoms: C_4  and  O_5 
REMARK    6  A    between atoms: O_12  and  C_13 
ROOT
HETATM    1  O   LIG     1      14.743  31.434  19.045  1.00  0.00    -0.264 OA
HETATM    2  C   LIG     1      14.931  32.564  18.514  1.00  0.00     0.270 C 
ENDROOT
BRANCH   2   3
HETATM    3  C   LIG     1      14.186  32.944  17.263  1.00  0.00     0.142 C 
BRANCH   3   4
HETATM    4  C   LIG     1      14.305  31.848  16.208  1.00  0.00    -0.043 A 
HETATM    5  C   LIG     1      13.218  30.970  16.032  1.00  0.00     0.008 A 
HETATM    6  C   LIG     1      13.270  29.947  15.082  1.00  0.00     0.001 A 
HETATM    7  C   LIG     1      14.409  29.785  14.291  1.00  0.00     0.000 A 
HETATM    8  C   LIG     1      15.495  30.647  14.448  1.00  0.00     0.001 A 
HETATM    9  C   LIG     1      15.448  31.673  15.397  1.00  0.00     0.008 A 
ENDBRANCH   3   4
BRANCH   3  10
HETATM   10  C   LIG     1      14.598  34.358  16.809  1.00  0.00     0.183 C 
BRANCH  10  11
HETATM   11  O   LIG     1      15.949  34.394  16.433  1.00  0.00    -0.400 OA
HETATM   12  H   LIG     1      16.178  33.473  16.142  1.00  0.00     0.209 HD
ENDBRANCH  10  11
ENDBRANCH   3  10
ENDBRANCH   2   3
BRANCH   2  13
HETATM   13  O   LIG     1      15.856  33.462  19.057  1.00  0.00    -0.315 OA
BRANCH  13  14
HETATM   14  C   LIG     1      15.484  34.606  19.828  1.00  0.00     0.136 C 
HETATM   15  C   LIG     1      16.659  35.640  19.810  1.00  0.00     0.071 C 
HETATM   16  C   LIG     1      16.778  36.452  21.123  1.00  0.00     0.257 C 
HETATM   17  C   LIG     1      17.674  35.664  22.088  1.00  0.00     0.186 A 
HETATM   18  N   LIG     1      15.437  36.501  21.712  1.00  0.00     0.099 N 
HETATM   19  C   LIG     1      16.755  34.847  22.887  1.00  0.00     0.186 A 
HETATM   20  O   LIG     1      17.464  35.923  23.456  1.00  0.00    -0.371 OA
HETATM   21  C   LIG     1      15.355  35.190  22.360  1.00  0.00     0.257 C 
HETATM   22  C   LIG     1      14.997  34.168  21.253  1.00  0.00     0.071 C 
HETATM   23  C   LIG     1      15.210  37.643  22.615  1.00  0.00     0.311 C 
ENDBRANCH  13  14
ENDBRANCH   2  13
TORSDOF 6
ENDMDL
MODEL 10
REMARK VINA RESULT:      -5.9      2.345      7.678
REMARK  6 active torsions:
REMARK  status: ('A' for Active; 'I' for Inactive)
REMARK    1  A    between atoms: C_2  and  C_3 
REMARK    2  A    between atoms: C_2  and  O_12 
REMARK    3  A    between atoms: C_3  and  C_6 
REMARK    4  A    between atoms: C_3  and  C_4 
REMARK    5  A    between atoms: C_4  and  O_5 
REMARK    6  A    between atoms: O_12  and  C_13 
ROOT
HETATM    1  O   LIG     1      14.804  34.790  17.134  1.00  0.00    -0.264 OA
HETATM    2  C   LIG     1      15.326  33.814  17.742  1.00  0.00     0.270 C 
ENDROOT
BRANCH   2   3
HETATM    3  C   LIG     1      15.468  32.484  17.053  1.00  0.00     0.142 C 
BRANCH   3   4
HETATM    4  C   LIG     1      16.089  32.655  15.670  1.00  0.00    -0.043 A 
HETATM    5  C   LIG     1      15.579  31.880  14.610  1.00  0.00     0.008 A 
HETATM    6  C   LIG     1      16.109  31.994  13.322  1.00  0.00     0.001 A 
HETATM    7  C   LIG     1      17.154  32.884  13.071  1.00  0.00     0.000 A 
HETATM    8  C   LIG     1      17.669  33.664  14.107  1.00  0.00     0.001 A 
HETATM    9  C   LIG     1      17.143  33.554  15.399  1.00  0.00     0.008 A 
ENDBRANCH   3   4
BRANCH   3  10
HETATM   10  C   LIG     1      14.131  31.719  17.097  1.00  0.00     0.183 C 
BRANCH  10  11
HETATM   11  O   LIG     1      13.730  31.478  18.420  1.00  0.00    -0.400 OA
HETATM   12  H   LIG     1      12.738  31.458  18.408  1.00  0.00     0.209 HD
ENDBRANCH  10  11
ENDBRANCH   3  10
ENDBRANCH   2   3
BRANCH   2  13
HETATM   13  O   LIG     1      15.747  33.944  19.070  1.00  0.00    -0.315 OA
BRANCH  13  14
HETATM   14  C   LIG     1      15.618  35.150  19.823  1.00  0.00     0.136 C 
HETATM   15  C   LIG     1      17.035  35.785  20.022  1.00  0.00     0.071 C 
HETATM   16  C   LIG     1      17.185  36.531  21.371  1.00  0.00     0.257 C 
HETATM   17  C   LIG     1      17.649  35.516  22.425  1.00  0.00     0.186 A 
HETATM   18  N   LIG     1      15.845  36.982  21.756  1.00  0.00     0.099 N 
HETATM   19  C   LIG     1      16.417  35.016  23.044  1.00  0.00     0.186 A 
HETATM   20  O   LIG     1      17.317  35.833  23.756  1.00  0.00    -0.371 OA
HETATM   21  C   LIG     1      15.280  35.759  22.330  1.00  0.00     0.257 C 
HETATM   22  C   LIG     1      14.809  34.885  21.141  1.00  0.00     0.071 C 
HETATM   23  C   LIG     1      15.831  38.144  22.662  1.00  0.00     0.311 C 
ENDBRANCH  13  14
ENDBRANCH   2  13
TORSDOF 6
ENDMDL
MODEL 11
REMARK VINA RESULT:      -5.6      5.295      8.478
REMARK  6 active torsions:
REMARK  status: ('A' for Active; 'I' for Inactive)
REMARK    1  A    between atoms: C_2  and  C_3 
REMARK    2  A    between atoms: C_2  and  O_12 
REMARK    3  A    between atoms: C_3  and  C_6 
REMARK    4  A    between atoms: C_3  and  C_4 
REMARK    5  A    between atoms: C_4  and  O_5 
REMARK    6  A    between atoms: O_12  and  C_13 
ROOT
HETATM    1  O   LIG     1      16.834  34.607  15.270  1.00  0.00    -0.264 OA
HETATM    2  C   LIG     1      16.967  33.502  14.673  1.00  0.00     0.270 C 
ENDROOT
BRANCH   2   3
HETATM    3  C   LIG     1      15.800  32.559  14.561  1.00  0.00     0.142 C 
BRANCH   3   4
HETATM    4  C   LIG     1      15.238  32.228  15.940  1.00  0.00    -0.043 A 
HETATM    5  C   LIG     1      14.238  31.241  16.032  1.00  0.00     0.008 A 
HETATM    6  C   LIG     1      13.685  30.896  17.269  1.00  0.00     0.001 A 
HETATM    7  C   LIG     1      14.124  31.530  18.432  1.00  0.00     0.000 A 
HETATM    8  C   LIG     1      15.117  32.507  18.361  1.00  0.00     0.001 A 
HETATM    9  C   LIG     1      15.674  32.856  17.127  1.00  0.00     0.008 A 
ENDBRANCH   3   4
BRANCH   3  10
HETATM   10  C   LIG     1      16.179  31.350  13.684  1.00  0.00     0.183 C 
BRANCH  10  11
HETATM   11  O   LIG     1      15.037  30.740  13.145  1.00  0.00    -0.400 OA
HETATM   12  H   LIG     1      15.105  29.777  13.375  1.00  0.00     0.209 HD
ENDBRANCH  10  11
ENDBRANCH   3  10
ENDBRANCH   2   3
BRANCH   2  13
HETATM   13  O   LIG     1      18.205  33.125  14.140  1.00  0.00    -0.315 OA
BRANCH  13  14
HETATM   14  C   LIG     1      18.940  33.923  13.213  1.00  0.00     0.136 C 
HETATM   15  C   LIG     1      18.383  33.678  11.770  1.00  0.00     0.071 C 
HETATM   16  C   LIG     1      19.469  33.775  10.671  1.00  0.00     0.257 C 
HETATM   17  C   LIG     1      20.104  32.387  10.509  1.00  0.00     0.186 A 
HETATM   18  N   LIG     1      20.508  34.675  11.182  1.00  0.00     0.099 N 
HETATM   19  C   LIG     1      21.265  32.388  11.405  1.00  0.00     0.186 A 
HETATM   20  O   LIG     1      21.419  32.379  10.005  1.00  0.00    -0.371 OA
HETATM   21  C   LIG     1      21.267  33.777  12.057  1.00  0.00     0.257 C 
HETATM   22  C   LIG     1      20.481  33.683  13.387  1.00  0.00     0.071 C 
HETATM   23  C   LIG     1      21.312  35.332  10.137  1.00  0.00     0.311 C 
ENDBRANCH  13  14
ENDBRANCH   2  13
TORSDOF 6
ENDMDL
MODEL 12
REMARK VINA RESULT:      -5.0     14.321     16.411
REMARK  6 active torsions:
REMARK  status: ('A' for Active; 'I' for Inactive)
REMARK    1  A    between atoms: C_2  and  C_3 
REMARK    2  A    between atoms: C_2  and  O_12 
REMARK    3  A    between atoms: C_3  and  C_6 
REMARK    4  A    between atoms: C_3  and  C_4 
REMARK    5  A    between atoms: C_4  and  O_5 
REMARK    6  A    between atoms: O_12  and  C_13 
ROOT
HETATM    1  O   LIG     1      25.424  19.939  17.365  1.00  0.00    -0.264 OA
HETATM    2  C   LIG     1      24.749  20.914  17.800  1.00  0.00     0.270 C 
ENDROOT
BRANCH   2   3
HETATM    3  C   LIG     1      23.309  20.721  18.190  1.00  0.00     0.142 C 
BRANCH   3   4
HETATM    4  C   LIG     1      23.081  21.135  19.640  1.00  0.00    -0.043 A 
HETATM    5  C   LIG     1      23.542  20.279  20.658  1.00  0.00     0.008 A 
HETATM    6  C   LIG     1      23.361  20.606  22.005  1.00  0.00     0.001 A 
HETATM    7  C   LIG     1      22.719  21.795  22.356  1.00  0.00     0.000 A 
HETATM    8  C   LIG     1      22.259  22.658  21.361  1.00  0.00     0.001 A 
HETATM    9  C   LIG     1      22.437  22.336  20.012  1.00  0.00     0.008 A 
ENDBRANCH   3   4
BRANCH   3  10
HETATM   10  C   LIG     1      22.846  19.298  17.819  1.00  0.00     0.183 C 
BRANCH  10  11
HETATM   11  O   LIG     1      22.858  19.110  16.429  1.00  0.00    -0.400 OA
HETATM   12  H   LIG     1      21.910  18.990  16.159  1.00  0.00     0.209 HD
ENDBRANCH  10  11
ENDBRANCH   3  10
ENDBRANCH   2   3
BRANCH   2  13
HETATM   13  O   LIG     1      25.317  22.189  17.893  1.00  0.00    -0.315 OA
BRANCH  13  14
HETATM   14  C   LIG     1      26.399  22.507  18.769  1.00  0.00     0.136 C 
HETATM   15  C   LIG     1      25.901  23.523  19.851  1.00  0.00     0.071 C 
HETATM   16  C   LIG     1      26.995  24.522  20.301  1.00  0.00     0.257 C 
HETATM   17  C   LIG     1      26.954  25.729  19.354  1.00  0.00     0.186 A 
HETATM   18  N   LIG     1      28.285  23.853  20.102  1.00  0.00     0.099 N 
HETATM   19  C   LIG     1      27.922  25.421  18.296  1.00  0.00     0.186 A 
HETATM   20  O   LIG     1      28.160  26.445  19.233  1.00  0.00    -0.371 OA
HETATM   21  C   LIG     1      28.495  24.046  18.665  1.00  0.00     0.257 C 
HETATM   22  C   LIG     1      27.652  22.966  17.944  1.00  0.00     0.071 C 
HETATM   23  C   LIG     1      29.373  24.366  20.952  1.00  0.00     0.311 C 
ENDBRANCH  13  14
ENDBRANCH   2  13
TORSDOF 6
ENDMDL
MODEL 13
REMARK VINA RESULT:      -4.9     14.411     15.807
REMARK  6 active torsions:
REMARK  status: ('A' for Active; 'I' for Inactive)
REMARK    1  A    between atoms: C_2  and  C_3 
REMARK    2  A    between atoms: C_2  and  O_12 
REMARK    3  A    between atoms: C_3  and  C_6 
REMARK    4  A    between atoms: C_3  and  C_4 
REMARK    5  A    between atoms: C_4  and  O_5 
REMARK    6  A    between atoms: O_12  and  C_13 
ROOT
HETATM    1  O   LIG     1      26.097  21.817  20.134  1.00  0.00    -0.264 OA
HETATM    2  C   LIG     1      25.152  22.459  19.597  1.00  0.00     0.270 C 
ENDROOT
BRANCH   2   3
HETATM    3  C   LIG     1      23.794  22.488  20.245  1.00  0.00     0.142 C 
BRANCH   3   4
HETATM    4  C   LIG     1      23.891  22.113  21.720  1.00  0.00    -0.043 A 
HETATM    5  C   LIG     1      23.217  20.958  22.161  1.00  0.00     0.008 A 
HETATM    6  C   LIG     1      23.270  20.566  23.501  1.00  0.00     0.001 A 
HETATM    7  C   LIG     1      23.999  21.319  24.422  1.00  0.00     0.000 A 
HETATM    8  C   LIG     1      24.677  22.465  24.004  1.00  0.00     0.001 A 
HETATM    9  C   LIG     1      24.628  22.863  22.664  1.00  0.00     0.008 A 
ENDBRANCH   3   4
BRANCH   3  10
HETATM   10  C   LIG     1      22.791  21.668  19.410  1.00  0.00     0.183 C 
BRANCH  10  11
HETATM   11  O   LIG     1      22.757  22.115  18.081  1.00  0.00    -0.400 OA
HETATM   12  H   LIG     1      22.854  23.101  18.119  1.00  0.00     0.209 HD
ENDBRANCH  10  11
ENDBRANCH   3  10
ENDBRANCH   2   3
BRANCH   2  13
HETATM   13  O   LIG     1      25.342  23.122  18.379  1.00  0.00    -0.315 OA
BRANCH  13  14
HETATM   14  C   LIG     1      26.134  24.302  18.240  1.00  0.00     0.136 C 
HETATM   15  C   LIG     1      27.563  23.904  17.739  1.00  0.00     0.071 C 
HETATM   16  C   LIG     1      28.680  24.826  18.288  1.00  0.00     0.257 C 
HETATM   17  C   LIG     1      29.148  24.255  19.633  1.00  0.00     0.186 A 
HETATM   18  N   LIG     1      28.061  26.127  18.555  1.00  0.00     0.099 N 
HETATM   19  C   LIG     1      28.335  24.939  20.644  1.00  0.00     0.186 A 
HETATM   20  O   LIG     1      29.716  25.188  20.522  1.00  0.00    -0.371 OA
HETATM   21  C   LIG     1      27.424  25.886  19.852  1.00  0.00     0.257 C 
HETATM   22  C   LIG     1      26.096  25.143  19.564  1.00  0.00     0.071 C 
HETATM   23  C   LIG     1      29.000  27.262  18.539  1.00  0.00     0.311 C 
ENDBRANCH  13  14
ENDBRANCH   2  13
TORSDOF 6
ENDMDL
MODEL 14
REMARK VINA RESULT:      -4.9      5.225      8.982
REMARK  6 active torsions:
REMARK  status: ('A' for Active; 'I' for Inactive)
REMARK    1  A    between atoms: C_2  and  C_3 
REMARK    2  A    between atoms: C_2  and  O_12 
REMARK    3  A    between atoms: C_3  and  C_6 
REMARK    4  A    between atoms: C_3  and  C_4 
REMARK    5  A    between atoms: C_4  and  O_5 
REMARK    6  A    between atoms: O_12  and  C_13 
ROOT
HETATM    1  O   LIG     1      18.634  33.193  14.182  1.00  0.00    -0.264 OA
HETATM    2  C   LIG     1      17.588  33.322  13.486  1.00  0.00     0.270 C 
ENDROOT
BRANCH   2   3
HETATM    3  C   LIG     1      17.676  33.863  12.085  1.00  0.00     0.142 C 
BRANCH   3   4
HETATM    4  C   LIG     1      19.009  33.491  11.444  1.00  0.00    -0.043 A 
HETATM    5  C   LIG     1      19.970  34.505  11.268  1.00  0.00     0.008 A 
HETATM    6  C   LIG     1      21.209  34.223  10.686  1.00  0.00     0.001 A 
HETATM    7  C   LIG     1      21.509  32.924  10.274  1.00  0.00     0.000 A 
HETATM    8  C   LIG     1      20.572  31.905  10.444  1.00  0.00     0.001 A 
HETATM    9  C   LIG     1      19.330  32.181  11.025  1.00  0.00     0.008 A 
ENDBRANCH   3   4
BRANCH   3  10
HETATM   10  C   LIG     1      17.323  35.363  12.074  1.00  0.00     0.183 C 
BRANCH  10  11
HETATM   11  O   LIG     1      16.154  35.601  11.336  1.00  0.00    -0.400 OA
HETATM   12  H   LIG     1      16.393  36.279  10.652  1.00  0.00     0.209 HD
ENDBRANCH  10  11
ENDBRANCH   3  10
ENDBRANCH   2   3
BRANCH   2  13
HETATM   13  O   LIG     1      16.334  32.997  14.016  1.00  0.00    -0.315 OA
BRANCH  13  14
HETATM   14  C   LIG     1      16.132  32.591  15.370  1.00  0.00     0.136 C 
HETATM   15  C   LIG     1      15.481  31.167  15.386  1.00  0.00     0.071 C 
HETATM   16  C   LIG     1      14.516  30.951  16.577  1.00  0.00     0.257 C 
HETATM   17  C   LIG     1      13.121  31.428  16.150  1.00  0.00     0.186 A 
HETATM   18  N   LIG     1      14.971  31.834  17.655  1.00  0.00     0.099 N 
HETATM   19  C   LIG     1      13.048  32.829  16.577  1.00  0.00     0.186 A 
HETATM   20  O   LIG     1      12.272  31.831  17.199  1.00  0.00    -0.371 OA
HETATM   21  C   LIG     1      14.401  33.118  17.239  1.00  0.00     0.257 C 
HETATM   22  C   LIG     1      15.349  33.697  16.160  1.00  0.00     0.071 C 
HETATM   23  C   LIG     1      14.574  31.399  19.006  1.00  0.00     0.311 C 
ENDBRANCH  13  14
ENDBRANCH   2  13
TORSDOF 6
ENDMDL
MODEL 15
REMARK VINA RESULT:      -4.9     14.483     16.470
REMARK  6 active torsions:
REMARK  status: ('A' for Active; 'I' for Inactive)
REMARK    1  A    between atoms: C_2  and  C_3 
REMARK    2  A    between atoms: C_2  and  O_12 
REMARK    3  A    between atoms: C_3  and  C_6 
REMARK    4  A    between atoms: C_3  and  C_4 
REMARK    5  A    between atoms: C_4  and  O_5 
REMARK    6  A    between atoms: O_12  and  C_13 
ROOT
HETATM    1  O   LIG     1      22.337  22.640  21.290  1.00  0.00    -0.264 OA
HETATM    2  C   LIG     1      23.516  22.196  21.372  1.00  0.00     0.270 C 
ENDROOT
BRANCH   2   3
HETATM    3  C   LIG     1      23.768  20.713  21.350  1.00  0.00     0.142 C 
BRANCH   3   4
HETATM    4  C   LIG     1      23.187  20.085  20.087  1.00  0.00    -0.043 A 
HETATM    5  C   LIG     1      22.664  18.780  20.171  1.00  0.00     0.008 A 
HETATM    6  C   LIG     1      22.120  18.154  19.047  1.00  0.00     0.001 A 
HETATM    7  C   LIG     1      22.088  18.821  17.821  1.00  0.00     0.000 A 
HETATM    8  C   LIG     1      22.598  20.115  17.718  1.00  0.00     0.001 A 
HETATM    9  C   LIG     1      23.143  20.748  18.840  1.00  0.00     0.008 A 
ENDBRANCH   3   4
BRANCH   3  10
HETATM   10  C   LIG     1      23.317  20.080  22.681  1.00  0.00     0.183 C 
BRANCH  10  11
HETATM   11  O   LIG     1      23.293  21.032  23.710  1.00  0.00    -0.400 OA
HETATM   12  H   LIG     1      22.339  21.142  23.961  1.00  0.00     0.209 HD
ENDBRANCH  10  11
ENDBRANCH   3  10
ENDBRANCH   2   3
BRANCH   2  13
HETATM   13  O   LIG     1      24.598  23.071  21.518  1.00  0.00    -0.315 OA
BRANCH  13  14
HETATM   14  C   LIG     1      25.798  22.976  20.749  1.00  0.00     0.136 C 
HETATM   15  C   LIG     1      26.963  23.673  21.528  1.00  0.00     0.071 C 
HETATM   16  C   LIG     1      28.000  24.349  20.598  1.00  0.00     0.257 C 
HETATM   17  C   LIG     1      27.523  25.780  20.315  1.00  0.00     0.186 A 
HETATM   18  N   LIG     1      27.969  23.617  19.328  1.00  0.00     0.099 N 
HETATM   19  C   LIG     1      26.742  25.687  19.078  1.00  0.00     0.186 A 
HETATM   20  O   LIG     1      27.986  26.345  19.111  1.00  0.00    -0.371 OA
HETATM   21  C   LIG     1      26.793  24.205  18.682  1.00  0.00     0.257 C 
HETATM   22  C   LIG     1      25.554  23.504  19.292  1.00  0.00     0.071 C 
HETATM   23  C   LIG     1      29.210  23.713  18.539  1.00  0.00     0.311 C 
ENDBRANCH  13  14
ENDBRANCH   2  13
TORSDOF 6
ENDMDL
MODEL 16
REMARK VINA RESULT:      -4.7     16.846     18.345
REMARK  6 active torsions:
REMARK  status: ('A' for Active; 'I' for Inactive)
REMARK    1  A    between atoms: C_2  and  C_3 
REMARK    2  A    between atoms: C_2  and  O_12 
REMARK    3  A    between atoms: C_3  and  C_6 
REMARK    4  A    between atoms: C_3  and  C_4 
REMARK    5  A    between atoms: C_4  and  O_5 
REMARK    6  A    between atoms: O_12  and  C_13 
ROOT
HETATM    1  O   LIG     1      28.954  30.185  33.547  1.00  0.00    -0.264 OA
HETATM    2  C   LIG     1      28.405  29.049  33.492  1.00  0.00     0.270 C 
ENDROOT
BRANCH   2   3
HETATM    3  C   LIG     1      26.956  28.893  33.866  1.00  0.00     0.142 C 
BRANCH   3   4
HETATM    4  C   LIG     1      26.680  29.512  35.233  1.00  0.00    -0.043 A 
HETATM    5  C   LIG     1      26.144  30.813  35.279  1.00  0.00     0.008 A 
HETATM    6  C   LIG     1      25.871  31.431  36.502  1.00  0.00     0.001 A 
HETATM    7  C   LIG     1      26.128  30.759  37.699  1.00  0.00     0.000 A 
HETATM    8  C   LIG     1      26.655  29.468  37.673  1.00  0.00     0.001 A 
HETATM    9  C   LIG     1      26.930  28.844  36.452  1.00  0.00     0.008 A 
ENDBRANCH   3   4
BRANCH   3  10
HETATM   10  C   LIG     1      26.521  27.425  33.695  1.00  0.00     0.183 C 
BRANCH  10  11
HETATM   11  O   LIG     1      25.717  27.265  32.557  1.00  0.00    -0.400 OA
HETATM   12  H   LIG     1      24.842  26.928  32.882  1.00  0.00     0.209 HD
ENDBRANCH  10  11
ENDBRANCH   3  10
ENDBRANCH   2   3
BRANCH   2  13
HETATM   13  O   LIG     1      29.140  27.920  33.117  1.00  0.00    -0.315 OA
BRANCH  13  14
HETATM   14  C   LIG     1      29.593  27.681  31.784  1.00  0.00     0.136 C 
HETATM   15  C   LIG     1      28.756  28.557  30.793  1.00  0.00     0.071 C 
HETATM   16  C   LIG     1      28.537  27.881  29.417  1.00  0.00     0.257 C 
HETATM   17  C   LIG     1      27.268  27.023  29.507  1.00  0.00     0.186 A 
HETATM   18  N   LIG     1      29.667  26.972  29.208  1.00  0.00     0.099 N 
HETATM   19  C   LIG     1      27.735  25.686  29.888  1.00  0.00     0.186 A 
HETATM   20  O   LIG     1      27.205  25.940  28.608  1.00  0.00    -0.371 OA
HETATM   21  C   LIG     1      29.260  25.812  30.005  1.00  0.00     0.257 C 
HETATM   22  C   LIG     1      29.602  26.142  31.478  1.00  0.00     0.071 C 
HETATM   23  C   LIG     1      29.953  26.671  27.794  1.00  0.00     0.311 C 
ENDBRANCH  13  14
ENDBRANCH   2  13
TORSDOF 6
ENDMDL
MODEL 17
REMARK VINA RESULT:      -4.7      4.861      8.271
REMARK  6 active torsions:
REMARK  status: ('A' for Active; 'I' for Inactive)
REMARK    1  A    between atoms: C_2  and  C_3 
REMARK    2  A    between atoms: C_2  and  O_12 
REMARK    3  A    between atoms: C_3  and  C_6 
REMARK    4  A    between atoms: C_3  and  C_4 
REMARK    5  A    between atoms: C_4  and  O_5 
REMARK    6  A    between atoms: O_12  and  C_13 
ROOT
HETATM    1  O   LIG     1      15.291  34.802  15.896  1.00  0.00    -0.264 OA
HETATM    2  C   LIG     1      16.183  33.908  15.916  1.00  0.00     0.270 C 
ENDROOT
BRANCH   2   3
HETATM    3  C   LIG     1      15.946  32.622  16.660  1.00  0.00     0.142 C 
BRANCH   3   4
HETATM    4  C   LIG     1      15.186  31.626  15.790  1.00  0.00    -0.043 A 
HETATM    5  C   LIG     1      13.896  31.233  16.197  1.00  0.00     0.008 A 
HETATM    6  C   LIG     1      13.153  30.324  15.439  1.00  0.00     0.001 A 
HETATM    7  C   LIG     1      13.685  29.793  14.263  1.00  0.00     0.000 A 
HETATM    8  C   LIG     1      14.959  30.173  13.842  1.00  0.00     0.001 A 
HETATM    9  C   LIG     1      15.708  31.083  14.595  1.00  0.00     0.008 A 
ENDBRANCH   3   4
BRANCH   3  10
HETATM   10  C   LIG     1      15.326  32.915  18.040  1.00  0.00     0.183 C 
BRANCH  10  11
HETATM   11  O   LIG     1      15.628  34.217  18.463  1.00  0.00    -0.400 OA
HETATM   12  H   LIG     1      16.579  34.371  18.225  1.00  0.00     0.209 HD
ENDBRANCH  10  11
ENDBRANCH   3  10
ENDBRANCH   2   3
BRANCH   2  13
HETATM   13  O   LIG     1      17.412  34.112  15.279  1.00  0.00    -0.315 OA
BRANCH  13  14
HETATM   14  C   LIG     1      17.826  33.392  14.117  1.00  0.00     0.136 C 
HETATM   15  C   LIG     1      19.357  33.082  14.225  1.00  0.00     0.071 C 
HETATM   16  C   LIG     1      20.077  33.076  12.854  1.00  0.00     0.257 C 
HETATM   17  C   LIG     1      20.533  34.509  12.551  1.00  0.00     0.186 A 
HETATM   18  N   LIG     1      19.071  32.715  11.851  1.00  0.00     0.099 N 
HETATM   19  C   LIG     1      19.441  35.104  11.773  1.00  0.00     0.186 A 
HETATM   20  O   LIG     1      20.689  34.819  11.186  1.00  0.00    -0.371 OA
HETATM   21  C   LIG     1      18.388  33.995  11.649  1.00  0.00     0.257 C 
HETATM   22  C   LIG     1      17.385  34.154  12.818  1.00  0.00     0.071 C 
HETATM   23  C   LIG     1      19.624  32.118  10.622  1.00  0.00     0.311 C 
ENDBRANCH  13  14
ENDBRANCH   2  13
TORSDOF 6
ENDMDL
MODEL 18
REMARK VINA RESULT:      -4.7     14.141     16.190
REMARK  6 active torsions:
REMARK  status: ('A' for Active; 'I' for Inactive)
REMARK    1  A    between atoms: C_2  and  C_3 
REMARK    2  A    between atoms: C_2  and  O_12 
REMARK    3  A    between atoms: C_3  and  C_6 
REMARK    4  A    between atoms: C_3  and  C_4 
REMARK    5  A    between atoms: C_4  and  O_5 
REMARK    6  A    between atoms: O_12  and  C_13 
ROOT
HETATM    1  O   LIG     1      25.637  21.661  22.538  1.00  0.00    -0.264 OA
HETATM    2  C   LIG     1      24.923  22.407  21.811  1.00  0.00     0.270 C 
ENDROOT
BRANCH   2   3
HETATM    3  C   LIG     1      23.463  22.099  21.618  1.00  0.00     0.142 C 
BRANCH   3   4
HETATM    4  C   LIG     1      23.261  21.160  20.433  1.00  0.00    -0.043 A 
HETATM    5  C   LIG     1      23.252  21.714  19.138  1.00  0.00     0.008 A 
HETATM    6  C   LIG     1      23.071  20.903  18.014  1.00  0.00     0.001 A 
HETATM    7  C   LIG     1      22.898  19.526  18.166  1.00  0.00     0.000 A 
HETATM    8  C   LIG     1      22.907  18.959  19.440  1.00  0.00     0.001 A 
HETATM    9  C   LIG     1      23.089  19.765  20.568  1.00  0.00     0.008 A 
ENDBRANCH   3   4
BRANCH   3  10
HETATM   10  C   LIG     1      22.646  23.405  21.586  1.00  0.00     0.183 C 
BRANCH  10  11
HETATM   11  O   LIG     1      21.300  23.151  21.283  1.00  0.00    -0.400 OA
HETATM   12  H   LIG     1      21.103  23.661  20.455  1.00  0.00     0.209 HD
ENDBRANCH  10  11
ENDBRANCH   3  10
ENDBRANCH   2   3
BRANCH   2  13
HETATM   13  O   LIG     1      25.483  23.507  21.151  1.00  0.00    -0.315 OA
BRANCH  13  14
HETATM   14  C   LIG     1      26.468  23.391  20.124  1.00  0.00     0.136 C 
HETATM   15  C   LIG     1      27.884  23.653  20.740  1.00  0.00     0.071 C 
HETATM   16  C   LIG     1      28.860  24.340  19.754  1.00  0.00     0.257 C 
HETATM   17  C   LIG     1      28.678  25.858  19.886  1.00  0.00     0.186 A 
HETATM   18  N   LIG     1      28.432  23.963  18.404  1.00  0.00     0.099 N 
HETATM   19  C   LIG     1      27.684  26.215  18.869  1.00  0.00     0.186 A 
HETATM   20  O   LIG     1      29.031  26.610  18.749  1.00  0.00    -0.371 OA
HETATM   21  C   LIG     1      27.323  24.893  18.179  1.00  0.00     0.257 C 
HETATM   22  C   LIG     1      26.090  24.297  18.901  1.00  0.00     0.071 C 
HETATM   23  C   LIG     1      29.498  24.026  17.388  1.00  0.00     0.311 C 
ENDBRANCH  13  14
ENDBRANCH   2  13
TORSDOF 6
ENDMDL
MODEL 19
REMARK VINA RESULT:      -4.6     14.609     16.355
REMARK  6 active torsions:
REMARK  status: ('A' for Active; 'I' for Inactive)
REMARK    1  A    between atoms: C_2  and  C_3 
REMARK    2  A    between atoms: C_2  and  O_12 
REMARK    3  A    between atoms: C_3  and  C_6 
REMARK    4  A    between atoms: C_3  and  C_4 
REMARK    5  A    between atoms: C_4  and  O_5 
REMARK    6  A    between atoms: O_12  and  C_13 
ROOT
HETATM    1  O   LIG     1      23.499  23.378  21.648  1.00  0.00    -0.264 OA
HETATM    2  C   LIG     1      24.282  22.418  21.402  1.00  0.00     0.270 C 
ENDROOT
BRANCH   2   3
HETATM    3  C   LIG     1      23.808  20.998  21.562  1.00  0.00     0.142 C 
BRANCH   3   4
HETATM    4  C   LIG     1      23.319  20.438  20.230  1.00  0.00    -0.043 A 
HETATM    5  C   LIG     1      23.250  21.310  19.125  1.00  0.00     0.008 A 
HETATM    6  C   LIG     1      22.809  20.853  17.880  1.00  0.00     0.001 A 
HETATM    7  C   LIG     1      22.433  19.519  17.718  1.00  0.00     0.000 A 
HETATM    8  C   LIG     1      22.499  18.639  18.799  1.00  0.00     0.001 A 
HETATM    9  C   LIG     1      22.940  19.090  20.047  1.00  0.00     0.008 A 
ENDBRANCH   3   4
BRANCH   3  10
HETATM   10  C   LIG     1      22.814  20.901  22.735  1.00  0.00     0.183 C 
BRANCH  10  11
HETATM   11  O   LIG     1      23.422  21.267  23.945  1.00  0.00    -0.400 OA
HETATM   12  H   LIG     1      23.136  22.200  24.126  1.00  0.00     0.209 HD
ENDBRANCH  10  11
ENDBRANCH   3  10
ENDBRANCH   2   3
BRANCH   2  13
HETATM   13  O   LIG     1      25.604  22.657  21.013  1.00  0.00    -0.315 OA
BRANCH  13  14
HETATM   14  C   LIG     1      26.068  23.920  20.533  1.00  0.00     0.136 C 
HETATM   15  C   LIG     1      25.881  23.979  18.980  1.00  0.00     0.071 C 
HETATM   16  C   LIG     1      26.977  24.805  18.264  1.00  0.00     0.257 C 
HETATM   17  C   LIG     1      28.147  23.866  17.945  1.00  0.00     0.186 A 
HETATM   18  N   LIG     1      27.460  25.794  19.232  1.00  0.00     0.099 N 
HETATM   19  C   LIG     1      29.058  23.984  19.088  1.00  0.00     0.186 A 
HETATM   20  O   LIG     1      29.405  24.487  17.819  1.00  0.00    -0.371 OA
HETATM   21  C   LIG     1      28.386  24.990  20.033  1.00  0.00     0.257 C 
HETATM   22  C   LIG     1      27.525  24.195  21.045  1.00  0.00     0.071 C 
HETATM   23  C   LIG     1      28.062  26.995  18.627  1.00  0.00     0.311 C 
ENDBRANCH  13  14
ENDBRANCH   2  13
TORSDOF 6
ENDMDL
MODEL 20
REMARK VINA RESULT:      -4.5     14.713     16.859
REMARK  6 active torsions:
REMARK  status: ('A' for Active; 'I' for Inactive)
REMARK    1  A    between atoms: C_2  and  C_3 
REMARK    2  A    between atoms: C_2  and  O_12 
REMARK    3  A    between atoms: C_3  and  C_6 
REMARK    4  A    between atoms: C_3  and  C_4 
REMARK    5  A    between atoms: C_4  and  O_5 
REMARK    6  A    between atoms: O_12  and  C_13 
ROOT
HETATM    1  O   LIG     1      26.299  22.416  20.830  1.00  0.00    -0.264 OA
HETATM    2  C   LIG     1      25.242  22.921  20.359  1.00  0.00     0.270 C 
ENDROOT
BRANCH   2   3
HETATM    3  C   LIG     1      25.055  23.030  18.870  1.00  0.00     0.142 C 
BRANCH   3   4
HETATM    4  C   LIG     1      24.459  21.745  18.305  1.00  0.00    -0.043 A 
HETATM    5  C   LIG     1      25.337  20.781  17.773  1.00  0.00     0.008 A 
HETATM    6  C   LIG     1      24.848  19.584  17.241  1.00  0.00     0.001 A 
HETATM    7  C   LIG     1      23.475  19.331  17.234  1.00  0.00     0.000 A 
HETATM    8  C   LIG     1      22.590  20.273  17.760  1.00  0.00     0.001 A 
HETATM    9  C   LIG     1      23.073  21.472  18.294  1.00  0.00     0.008 A 
ENDBRANCH   3   4
BRANCH   3  10
HETATM   10  C   LIG     1      26.359  23.513  18.207  1.00  0.00     0.183 C 
BRANCH  10  11
HETATM   11  O   LIG     1      26.885  24.627  18.876  1.00  0.00    -0.400 OA
HETATM   12  H   LIG     1      27.279  24.282  19.719  1.00  0.00     0.209 HD
ENDBRANCH  10  11
ENDBRANCH   3  10
ENDBRANCH   2   3
BRANCH   2  13
HETATM   13  O   LIG     1      24.248  23.416  21.211  1.00  0.00    -0.315 OA
BRANCH  13  14
HETATM   14  C   LIG     1      23.681  22.661  22.282  1.00  0.00     0.136 C 
HETATM   15  C   LIG     1      24.662  22.683  23.501  1.00  0.00     0.071 C 
HETATM   16  C   LIG     1      24.631  21.378  24.334  1.00  0.00     0.257 C 
HETATM   17  C   LIG     1      25.640  20.399  23.721  1.00  0.00     0.186 A 
HETATM   18  N   LIG     1      23.296  20.798  24.159  1.00  0.00     0.099 N 
HETATM   19  C   LIG     1      24.867  19.597  22.767  1.00  0.00     0.186 A 
HETATM   20  O   LIG     1      25.378  19.035  23.953  1.00  0.00    -0.371 OA
HETATM   21  C   LIG     1      23.434  20.136  22.860  1.00  0.00     0.257 C 
HETATM   22  C   LIG     1      23.264  21.234  21.781  1.00  0.00     0.071 C 
HETATM   23  C   LIG     1      22.870  19.909  25.255  1.00  0.00     0.311 C 
ENDBRANCH  13  14
ENDBRANCH   2  13
TORSDOF 6
ENDMDL
