MODEL 1
REMARK VINA RESULT:      -6.2      0.000      0.000
REMARK  2 active torsions:
REMARK  status: ('A' for Active; 'I' for Inactive)
REMARK    1  A    between atoms: C_4  and  C_5 
REMARK    2  A    between atoms: C_5  and  C_6 
ROOT
HETATM    1  S   LIG     1      16.347  35.314  20.989  1.00  0.00    -0.040 SA
HETATM    2  C   LIG     1      16.984  36.556  21.849  1.00  0.00     0.178 A 
HETATM    3  N   LIG     1      16.907  36.552  23.209  1.00  0.00    -0.337 N 
HETATM    4  C   LIG     1      17.435  37.572  23.944  1.00  0.00     0.017 A 
HETATM    5  C   LIG     1      18.043  38.650  23.292  1.00  0.00     0.099 A 
HETATM    6  N   LIG     1      17.585  37.593  21.202  1.00  0.00    -0.300 N 
HETATM    7  C   LIG     1      18.112  38.636  21.899  1.00  0.00     0.249 A 
HETATM    8  O   LIG     1      18.659  39.592  21.288  1.00  0.00    -0.268 OA
HETATM    9  H   LIG     1      16.435  35.757  23.697  1.00  0.00     0.168 HD
HETATM   10  H   LIG     1      17.644  37.595  20.158  1.00  0.00     0.171 HD
ENDROOT
BRANCH   4  11
HETATM   11  C   LIG     1      17.309  37.567  25.445  1.00  0.00     0.057 C 
BRANCH  11  12
HETATM   12  C   LIG     1      18.504  36.849  26.079  1.00  0.00     0.002 C 
HETATM   13  C   LIG     1      18.184  35.382  26.352  1.00  0.00     0.005 C 
ENDBRANCH  11  12
ENDBRANCH   4  11
TORSDOF 2
ENDMDL
MODEL 2
REMARK VINA RESULT:      -6.1      2.076      4.077
REMARK  2 active torsions:
REMARK  status: ('A' for Active; 'I' for Inactive)
REMARK    1  A    between atoms: C_4  and  C_5 
REMARK    2  A    between atoms: C_5  and  C_6 
ROOT
HETATM    1  S   LIG     1      16.452  34.916  21.269  1.00  0.00    -0.040 SA
HETATM    2  C   LIG     1      16.881  36.354  21.930  1.00  0.00     0.178 A 
HETATM    3  N   LIG     1      17.574  37.263  21.190  1.00  0.00    -0.337 N 
HETATM    4  C   LIG     1      17.935  38.467  21.718  1.00  0.00     0.017 A 
HETATM    5  C   LIG     1      17.611  38.763  23.046  1.00  0.00     0.099 A 
HETATM    6  N   LIG     1      16.547  36.635  23.221  1.00  0.00    -0.300 N 
HETATM    7  C   LIG     1      16.902  37.820  23.788  1.00  0.00     0.249 A 
HETATM    8  O   LIG     1      16.593  38.065  24.985  1.00  0.00    -0.268 OA
HETATM    9  H   LIG     1      17.834  37.035  20.203  1.00  0.00     0.168 HD
HETATM   10  H   LIG     1      16.015  35.936  23.788  1.00  0.00     0.171 HD
ENDROOT
BRANCH   4  11
HETATM   11  C   LIG     1      18.731  39.446  20.895  1.00  0.00     0.057 C 
BRANCH  11  12
HETATM   12  C   LIG     1      19.075  38.841  19.531  1.00  0.00     0.002 C 
HETATM   13  C   LIG     1      20.585  38.702  19.354  1.00  0.00     0.005 C 
ENDBRANCH  11  12
ENDBRANCH   4  11
TORSDOF 2
ENDMDL
MODEL 3
REMARK VINA RESULT:      -6.1      2.243      2.553
REMARK  2 active torsions:
REMARK  status: ('A' for Active; 'I' for Inactive)
REMARK    1  A    between atoms: C_4  and  C_5 
REMARK    2  A    between atoms: C_5  and  C_6 
ROOT
HETATM    1  S   LIG     1      18.702  39.304  20.729  1.00  0.00    -0.040 SA
HETATM    2  C   LIG     1      18.017  38.120  21.634  1.00  0.00     0.178 A 
HETATM    3  N   LIG     1      17.883  38.284  22.980  1.00  0.00    -0.337 N 
HETATM    4  C   LIG     1      17.311  37.316  23.750  1.00  0.00     0.017 A 
HETATM    5  C   LIG     1      16.878  36.126  23.154  1.00  0.00     0.099 A 
HETATM    6  N   LIG     1      17.586  36.973  21.039  1.00  0.00    -0.300 N 
HETATM    7  C   LIG     1      17.023  35.977  21.775  1.00  0.00     0.249 A 
HETATM    8  O   LIG     1      16.635  34.918  21.213  1.00  0.00    -0.268 OA
HETATM    9  H   LIG     1      18.225  39.164  23.430  1.00  0.00     0.168 HD
HETATM   10  H   LIG     1      17.690  36.849  20.005  1.00  0.00     0.171 HD
ENDROOT
BRANCH   4  11
HETATM   11  C   LIG     1      17.204  37.500  25.241  1.00  0.00     0.057 C 
BRANCH  11  12
HETATM   12  C   LIG     1      18.442  36.932  25.940  1.00  0.00     0.002 C 
HETATM   13  C   LIG     1      18.186  35.516  26.449  1.00  0.00     0.005 C 
ENDBRANCH  11  12
ENDBRANCH   4  11
TORSDOF 2
ENDMDL
MODEL 4
REMARK VINA RESULT:      -5.9      2.674      4.245
REMARK  2 active torsions:
REMARK  status: ('A' for Active; 'I' for Inactive)
REMARK    1  A    between atoms: C_4  and  C_5 
REMARK    2  A    between atoms: C_5  and  C_6 
ROOT
HETATM    1  S   LIG     1      17.715  35.003  26.101  1.00  0.00    -0.040 SA
HETATM    2  C   LIG     1      17.298  35.807  24.734  1.00  0.00     0.178 A 
HETATM    3  N   LIG     1      17.147  35.126  23.564  1.00  0.00    -0.337 N 
HETATM    4  C   LIG     1      16.795  35.773  22.416  1.00  0.00     0.017 A 
HETATM    5  C   LIG     1      16.610  37.160  22.436  1.00  0.00     0.099 A 
HETATM    6  N   LIG     1      17.107  37.155  24.769  1.00  0.00    -0.300 N 
HETATM    7  C   LIG     1      16.769  37.840  23.643  1.00  0.00     0.249 A 
HETATM    8  O   LIG     1      16.602  39.087  23.688  1.00  0.00    -0.268 OA
HETATM    9  H   LIG     1      17.305  34.093  23.543  1.00  0.00     0.168 HD
HETATM   10  H   LIG     1      17.223  37.676  25.669  1.00  0.00     0.171 HD
ENDROOT
BRANCH   4  11
HETATM   11  C   LIG     1      16.668  35.009  21.125  1.00  0.00     0.057 C 
BRANCH  11  12
HETATM   12  C   LIG     1      15.329  34.268  21.073  1.00  0.00     0.002 C 
HETATM   13  C   LIG     1      15.404  33.059  20.144  1.00  0.00     0.005 C 
ENDBRANCH  11  12
ENDBRANCH   4  11
TORSDOF 2
ENDMDL
MODEL 5
REMARK VINA RESULT:      -5.8      2.598      4.003
REMARK  2 active torsions:
REMARK  status: ('A' for Active; 'I' for Inactive)
REMARK    1  A    between atoms: C_4  and  C_5 
REMARK    2  A    between atoms: C_5  and  C_6 
ROOT
HETATM    1  S   LIG     1      18.902  39.254  20.207  1.00  0.00    -0.040 SA
HETATM    2  C   LIG     1      18.111  38.396  21.358  1.00  0.00     0.178 A 
HETATM    3  N   LIG     1      17.772  37.097  21.126  1.00  0.00    -0.337 N 
HETATM    4  C   LIG     1      17.119  36.363  22.072  1.00  0.00     0.017 A 
HETATM    5  C   LIG     1      16.770  36.960  23.288  1.00  0.00     0.099 A 
HETATM    6  N   LIG     1      17.789  38.984  22.545  1.00  0.00    -0.300 N 
HETATM    7  C   LIG     1      17.126  38.290  23.508  1.00  0.00     0.249 A 
HETATM    8  O   LIG     1      16.829  38.848  24.598  1.00  0.00    -0.268 OA
HETATM    9  H   LIG     1      18.013  36.656  20.209  1.00  0.00     0.168 HD
HETATM   10  H   LIG     1      18.051  39.982  22.722  1.00  0.00     0.171 HD
ENDROOT
BRANCH   4  11
HETATM   11  C   LIG     1      16.721  34.940  21.783  1.00  0.00     0.057 C 
BRANCH  11  12
HETATM   12  C   LIG     1      15.781  34.882  20.576  1.00  0.00     0.002 C 
HETATM   13  C   LIG     1      15.501  33.439  20.165  1.00  0.00     0.005 C 
ENDBRANCH  11  12
ENDBRANCH   4  11
TORSDOF 2
ENDMDL
MODEL 6
REMARK VINA RESULT:      -5.6      7.829      9.703
REMARK  2 active torsions:
REMARK  status: ('A' for Active; 'I' for Inactive)
REMARK    1  A    between atoms: C_4  and  C_5 
REMARK    2  A    between atoms: C_5  and  C_6 
ROOT
HETATM    1  S   LIG     1      14.677  31.776  20.238  1.00  0.00    -0.040 SA
HETATM    2  C   LIG     1      14.704  32.093  18.629  1.00  0.00     0.178 A 
HETATM    3  N   LIG     1      14.170  31.198  17.751  1.00  0.00    -0.337 N 
HETATM    4  C   LIG     1      14.176  31.445  16.410  1.00  0.00     0.017 A 
HETATM    5  C   LIG     1      14.760  32.621  15.927  1.00  0.00     0.099 A 
HETATM    6  N   LIG     1      15.263  33.248  18.173  1.00  0.00    -0.300 N 
HETATM    7  C   LIG     1      15.301  33.524  16.841  1.00  0.00     0.249 A 
HETATM    8  O   LIG     1      15.828  34.593  16.432  1.00  0.00    -0.268 OA
HETATM    9  H   LIG     1      13.752  30.310  18.108  1.00  0.00     0.168 HD
HETATM   10  H   LIG     1      15.672  33.934  18.849  1.00  0.00     0.171 HD
ENDROOT
BRANCH   4  11
HETATM   11  C   LIG     1      13.614  30.428  15.452  1.00  0.00     0.057 C 
BRANCH  11  12
HETATM   12  C   LIG     1      14.469  30.358  14.184  1.00  0.00     0.002 C 
HETATM   13  C   LIG     1      15.266  29.057  14.128  1.00  0.00     0.005 C 
ENDBRANCH  11  12
ENDBRANCH   4  11
TORSDOF 2
ENDMDL
MODEL 7
REMARK VINA RESULT:      -5.6      2.610      4.057
REMARK  2 active torsions:
REMARK  status: ('A' for Active; 'I' for Inactive)
REMARK    1  A    between atoms: C_4  and  C_5 
REMARK    2  A    between atoms: C_5  and  C_6 
ROOT
HETATM    1  S   LIG     1      17.922  34.730  26.213  1.00  0.00    -0.040 SA
HETATM    2  C   LIG     1      17.477  35.944  25.205  1.00  0.00     0.178 A 
HETATM    3  N   LIG     1      17.117  35.665  23.921  1.00  0.00    -0.337 N 
HETATM    4  C   LIG     1      16.738  36.658  23.067  1.00  0.00     0.017 A 
HETATM    5  C   LIG     1      16.741  37.986  23.509  1.00  0.00     0.099 A 
HETATM    6  N   LIG     1      17.471  37.232  25.651  1.00  0.00    -0.300 N 
HETATM    7  C   LIG     1      17.112  38.252  24.826  1.00  0.00     0.249 A 
HETATM    8  O   LIG     1      17.118  39.438  25.250  1.00  0.00    -0.268 OA
HETATM    9  H   LIG     1      17.133  34.675  23.583  1.00  0.00     0.168 HD
HETATM   10  H   LIG     1      17.747  37.444  26.637  1.00  0.00     0.171 HD
ENDROOT
BRANCH   4  11
HETATM   11  C   LIG     1      16.377  36.334  21.642  1.00  0.00     0.057 C 
BRANCH  11  12
HETATM   12  C   LIG     1      17.617  35.879  20.867  1.00  0.00     0.002 C 
HETATM   13  C   LIG     1      18.355  37.070  20.261  1.00  0.00     0.005 C 
ENDBRANCH  11  12
ENDBRANCH   4  11
TORSDOF 2
ENDMDL
MODEL 8
REMARK VINA RESULT:      -5.5      1.928      2.201
REMARK  2 active torsions:
REMARK  status: ('A' for Active; 'I' for Inactive)
REMARK    1  A    between atoms: C_4  and  C_5 
REMARK    2  A    between atoms: C_5  and  C_6 
ROOT
HETATM    1  S   LIG     1      15.317  33.474  20.331  1.00  0.00    -0.040 SA
HETATM    2  C   LIG     1      16.222  34.706  20.925  1.00  0.00     0.178 A 
HETATM    3  N   LIG     1      16.269  34.928  22.268  1.00  0.00    -0.337 N 
HETATM    4  C   LIG     1      17.020  35.943  22.784  1.00  0.00     0.017 A 
HETATM    5  C   LIG     1      17.732  36.783  21.920  1.00  0.00     0.099 A 
HETATM    6  N   LIG     1      16.922  35.507  20.074  1.00  0.00    -0.300 N 
HETATM    7  C   LIG     1      17.671  36.539  20.549  1.00  0.00     0.249 A 
HETATM    8  O   LIG     1      18.308  37.276  19.751  1.00  0.00    -0.268 OA
HETATM    9  H   LIG     1      15.721  34.315  22.913  1.00  0.00     0.168 HD
HETATM   10  H   LIG     1      16.884  35.334  19.043  1.00  0.00     0.171 HD
ENDROOT
BRANCH   4  11
HETATM   11  C   LIG     1      17.032  36.196  24.268  1.00  0.00     0.057 C 
BRANCH  11  12
HETATM   12  C   LIG     1      17.338  34.903  25.028  1.00  0.00     0.002 C 
HETATM   13  C   LIG     1      18.140  35.185  26.295  1.00  0.00     0.005 C 
ENDBRANCH  11  12
ENDBRANCH   4  11
TORSDOF 2
ENDMDL
MODEL 9
REMARK VINA RESULT:      -5.4      2.345      3.722
REMARK  2 active torsions:
REMARK  status: ('A' for Active; 'I' for Inactive)
REMARK    1  A    between atoms: C_4  and  C_5 
REMARK    2  A    between atoms: C_5  and  C_6 
ROOT
HETATM    1  S   LIG     1      17.307  38.137  25.005  1.00  0.00    -0.040 SA
HETATM    2  C   LIG     1      17.564  37.955  23.395  1.00  0.00     0.178 A 
HETATM    3  N   LIG     1      17.056  36.872  22.744  1.00  0.00    -0.337 N 
HETATM    4  C   LIG     1      17.252  36.704  21.405  1.00  0.00     0.017 A 
HETATM    5  C   LIG     1      18.006  37.644  20.695  1.00  0.00     0.099 A 
HETATM    6  N   LIG     1      18.288  38.885  22.712  1.00  0.00    -0.300 N 
HETATM    7  C   LIG     1      18.518  38.746  21.379  1.00  0.00     0.249 A 
HETATM    8  O   LIG     1      19.196  39.610  20.761  1.00  0.00    -0.268 OA
HETATM    9  H   LIG     1      16.509  36.158  23.277  1.00  0.00     0.168 HD
HETATM   10  H   LIG     1      18.677  39.716  23.214  1.00  0.00     0.171 HD
ENDROOT
BRANCH   4  11
HETATM   11  C   LIG     1      16.713  35.482  20.709  1.00  0.00     0.057 C 
BRANCH  11  12
HETATM   12  C   LIG     1      15.790  34.697  21.645  1.00  0.00     0.002 C 
HETATM   13  C   LIG     1      15.001  33.638  20.881  1.00  0.00     0.005 C 
ENDBRANCH  11  12
ENDBRANCH   4  11
TORSDOF 2
ENDMDL
MODEL 10
REMARK VINA RESULT:      -5.4      2.356      3.812
REMARK  2 active torsions:
REMARK  status: ('A' for Active; 'I' for Inactive)
REMARK    1  A    between atoms: C_4  and  C_5 
REMARK    2  A    between atoms: C_5  and  C_6 
ROOT
HETATM    1  S   LIG     1      15.889  34.388  20.757  1.00  0.00    -0.040 SA
HETATM    2  C   LIG     1      16.418  35.406  21.929  1.00  0.00     0.178 A 
HETATM    3  N   LIG     1      16.567  36.733  21.661  1.00  0.00    -0.337 N 
HETATM    4  C   LIG     1      17.001  37.598  22.622  1.00  0.00     0.017 A 
HETATM    5  C   LIG     1      17.320  37.112  23.894  1.00  0.00     0.099 A 
HETATM    6  N   LIG     1      16.713  34.922  23.168  1.00  0.00    -0.300 N 
HETATM    7  C   LIG     1      17.161  35.750  24.150  1.00  0.00     0.249 A 
HETATM    8  O   LIG     1      17.436  35.289  25.289  1.00  0.00    -0.268 OA
HETATM    9  H   LIG     1      16.348  37.095  20.705  1.00  0.00     0.168 HD
HETATM   10  H   LIG     1      16.598  33.903  23.372  1.00  0.00     0.171 HD
ENDROOT
BRANCH   4  11
HETATM   11  C   LIG     1      17.192  39.056  22.297  1.00  0.00     0.057 C 
BRANCH  11  12
HETATM   12  C   LIG     1      18.646  39.328  21.899  1.00  0.00     0.002 C 
HETATM   13  C   LIG     1      18.814  39.313  20.383  1.00  0.00     0.005 C 
ENDBRANCH  11  12
ENDBRANCH   4  11
TORSDOF 2
ENDMDL
MODEL 11
REMARK VINA RESULT:      -5.1      8.408      9.747
REMARK  2 active torsions:
REMARK  status: ('A' for Active; 'I' for Inactive)
REMARK    1  A    between atoms: C_4  and  C_5 
REMARK    2  A    between atoms: C_5  and  C_6 
ROOT
HETATM    1  S   LIG     1      13.682  29.242  14.295  1.00  0.00    -0.040 SA
HETATM    2  C   LIG     1      14.602  30.556  14.637  1.00  0.00     0.178 A 
HETATM    3  N   LIG     1      14.458  31.196  15.830  1.00  0.00    -0.337 N 
HETATM    4  C   LIG     1      15.217  32.287  16.137  1.00  0.00     0.017 A 
HETATM    5  C   LIG     1      16.140  32.769  15.203  1.00  0.00     0.099 A 
HETATM    6  N   LIG     1      15.508  31.007  13.724  1.00  0.00    -0.300 N 
HETATM    7  C   LIG     1      16.274  32.100  13.987  1.00  0.00     0.249 A 
HETATM    8  O   LIG     1      17.103  32.511  13.132  1.00  0.00    -0.268 OA
HETATM    9  H   LIG     1      13.754  30.849  16.521  1.00  0.00     0.168 HD
HETATM   10  H   LIG     1      15.618  30.514  12.808  1.00  0.00     0.171 HD
ENDROOT
BRANCH   4  11
HETATM   11  C   LIG     1      15.018  33.002  17.447  1.00  0.00     0.057 C 
BRANCH  11  12
HETATM   12  C   LIG     1      14.667  32.004  18.553  1.00  0.00     0.002 C 
HETATM   13  C   LIG     1      15.488  32.267  19.813  1.00  0.00     0.005 C 
ENDBRANCH  11  12
ENDBRANCH   4  11
TORSDOF 2
ENDMDL
MODEL 12
REMARK VINA RESULT:      -5.1      6.039      8.112
REMARK  2 active torsions:
REMARK  status: ('A' for Active; 'I' for Inactive)
REMARK    1  A    between atoms: C_4  and  C_5 
REMARK    2  A    between atoms: C_5  and  C_6 
ROOT
HETATM    1  S   LIG     1      15.492  35.516  21.175  1.00  0.00    -0.040 SA
HETATM    2  C   LIG     1      15.285  34.278  20.119  1.00  0.00     0.178 A 
HETATM    3  N   LIG     1      15.399  34.501  18.780  1.00  0.00    -0.337 N 
HETATM    4  C   LIG     1      15.237  33.485  17.884  1.00  0.00     0.017 A 
HETATM    5  C   LIG     1      14.925  32.202  18.346  1.00  0.00     0.099 A 
HETATM    6  N   LIG     1      14.995  33.030  20.582  1.00  0.00    -0.300 N 
HETATM    7  C   LIG     1      14.812  31.994  19.720  1.00  0.00     0.249 A 
HETATM    8  O   LIG     1      14.537  30.846  20.161  1.00  0.00    -0.268 OA
HETATM    9  H   LIG     1      15.612  35.463  18.432  1.00  0.00     0.168 HD
HETATM   10  H   LIG     1      14.907  32.861  21.610  1.00  0.00     0.171 HD
ENDROOT
BRANCH   4  11
HETATM   11  C   LIG     1      15.333  33.757  16.406  1.00  0.00     0.057 C 
BRANCH  11  12
HETATM   12  C   LIG     1      15.676  32.472  15.648  1.00  0.00     0.002 C 
HETATM   13  C   LIG     1      17.145  32.452  15.235  1.00  0.00     0.005 C 
ENDBRANCH  11  12
ENDBRANCH   4  11
TORSDOF 2
ENDMDL
MODEL 13
REMARK VINA RESULT:      -5.1      8.744     10.589
REMARK  2 active torsions:
REMARK  status: ('A' for Active; 'I' for Inactive)
REMARK    1  A    between atoms: C_4  and  C_5 
REMARK    2  A    between atoms: C_5  and  C_6 
ROOT
HETATM    1  S   LIG     1      14.941  32.609  17.985  1.00  0.00    -0.040 SA
HETATM    2  C   LIG     1      15.543  32.638  16.460  1.00  0.00     0.178 A 
HETATM    3  N   LIG     1      15.232  31.639  15.587  1.00  0.00    -0.337 N 
HETATM    4  C   LIG     1      15.716  31.647  14.312  1.00  0.00     0.017 A 
HETATM    5  C   LIG     1      16.564  32.682  13.902  1.00  0.00     0.099 A 
HETATM    6  N   LIG     1      16.356  33.659  16.069  1.00  0.00    -0.300 N 
HETATM    7  C   LIG     1      16.871  33.695  14.810  1.00  0.00     0.249 A 
HETATM    8  O   LIG     1      17.627  34.641  14.464  1.00  0.00    -0.268 OA
HETATM    9  H   LIG     1      14.615  30.854  15.897  1.00  0.00     0.168 HD
HETATM   10  H   LIG     1      16.593  34.425  16.741  1.00  0.00     0.171 HD
ENDROOT
BRANCH   4  11
HETATM   11  C   LIG     1      15.391  30.516  13.372  1.00  0.00     0.057 C 
BRANCH  11  12
HETATM   12  C   LIG     1      14.738  29.360  14.134  1.00  0.00     0.002 C 
HETATM   13  C   LIG     1      15.301  28.015  13.683  1.00  0.00     0.005 C 
ENDBRANCH  11  12
ENDBRANCH   4  11
TORSDOF 2
ENDMDL
MODEL 14
REMARK VINA RESULT:      -4.9      1.891      2.091
REMARK  2 active torsions:
REMARK  status: ('A' for Active; 'I' for Inactive)
REMARK    1  A    between atoms: C_4  and  C_5 
REMARK    2  A    between atoms: C_5  and  C_6 
ROOT
HETATM    1  S   LIG     1      18.731  37.086  19.656  1.00  0.00    -0.040 SA
HETATM    2  C   LIG     1      17.951  37.251  21.089  1.00  0.00     0.178 A 
HETATM    3  N   LIG     1      17.695  36.154  21.855  1.00  0.00    -0.337 N 
HETATM    4  C   LIG     1      17.054  36.270  23.053  1.00  0.00     0.017 A 
HETATM    5  C   LIG     1      16.631  37.530  23.491  1.00  0.00     0.099 A 
HETATM    6  N   LIG     1      17.557  38.486  21.510  1.00  0.00    -0.300 N 
HETATM    7  C   LIG     1      16.902  38.641  22.693  1.00  0.00     0.249 A 
HETATM    8  O   LIG     1      16.538  39.788  23.067  1.00  0.00    -0.268 OA
HETATM    9  H   LIG     1      17.992  35.210  21.521  1.00  0.00     0.168 HD
HETATM   10  H   LIG     1      17.755  39.327  20.921  1.00  0.00     0.171 HD
ENDROOT
BRANCH   4  11
HETATM   11  C   LIG     1      16.749  35.042  23.870  1.00  0.00     0.057 C 
BRANCH  11  12
HETATM   12  C   LIG     1      17.810  34.845  24.956  1.00  0.00     0.002 C 
HETATM   13  C   LIG     1      17.176  34.796  26.343  1.00  0.00     0.005 C 
ENDBRANCH  11  12
ENDBRANCH   4  11
TORSDOF 2
ENDMDL
MODEL 15
REMARK VINA RESULT:      -4.8      5.909      7.093
REMARK  2 active torsions:
REMARK  status: ('A' for Active; 'I' for Inactive)
REMARK    1  A    between atoms: C_4  and  C_5 
REMARK    2  A    between atoms: C_5  and  C_6 
ROOT
HETATM    1  S   LIG     1      13.110  30.730  16.406  1.00  0.00    -0.040 SA
HETATM    2  C   LIG     1      14.034  31.905  17.079  1.00  0.00     0.178 A 
HETATM    3  N   LIG     1      14.210  31.943  18.429  1.00  0.00    -0.337 N 
HETATM    4  C   LIG     1      14.979  32.908  19.009  1.00  0.00     0.017 A 
HETATM    5  C   LIG     1      15.577  33.888  18.208  1.00  0.00     0.099 A 
HETATM    6  N   LIG     1      14.622  32.845  16.286  1.00  0.00    -0.300 N 
HETATM    7  C   LIG     1      15.386  33.832  16.828  1.00  0.00     0.249 A 
HETATM    8  O   LIG     1      15.918  34.698  16.084  1.00  0.00    -0.268 OA
HETATM    9  H   LIG     1      13.747  31.224  19.031  1.00  0.00     0.168 HD
HETATM   10  H   LIG     1      14.486  32.814  15.249  1.00  0.00     0.171 HD
ENDROOT
BRANCH   4  11
HETATM   11  C   LIG     1      15.133  32.955  20.506  1.00  0.00     0.057 C 
BRANCH  11  12
HETATM   12  C   LIG     1      15.122  34.404  20.999  1.00  0.00     0.002 C 
HETATM   13  C   LIG     1      16.468  34.790  21.606  1.00  0.00     0.005 C 
ENDBRANCH  11  12
ENDBRANCH   4  11
TORSDOF 2
ENDMDL
MODEL 16
REMARK VINA RESULT:      -4.4      3.135      4.866
REMARK  2 active torsions:
REMARK  status: ('A' for Active; 'I' for Inactive)
REMARK    1  A    between atoms: C_4  and  C_5 
REMARK    2  A    between atoms: C_5  and  C_6 
ROOT
HETATM    1  S   LIG     1      17.248  35.856  24.771  1.00  0.00    -0.040 SA
HETATM    2  C   LIG     1      16.993  35.718  23.156  1.00  0.00     0.178 A 
HETATM    3  N   LIG     1      16.114  34.792  22.683  1.00  0.00    -0.337 N 
HETATM    4  C   LIG     1      15.882  34.665  21.346  1.00  0.00     0.017 A 
HETATM    5  C   LIG     1      16.575  35.480  20.445  1.00  0.00     0.099 A 
HETATM    6  N   LIG     1      17.664  36.529  22.290  1.00  0.00    -0.300 N 
HETATM    7  C   LIG     1      17.471  36.423  20.948  1.00  0.00     0.249 A 
HETATM    8  O   LIG     1      18.103  37.174  20.158  1.00  0.00    -0.268 OA
HETATM    9  H   LIG     1      15.610  34.167  23.354  1.00  0.00     0.168 HD
HETATM   10  H   LIG     1      18.338  37.240  22.656  1.00  0.00     0.171 HD
ENDROOT
BRANCH   4  11
HETATM   11  C   LIG     1      14.933  33.611  20.839  1.00  0.00     0.057 C 
BRANCH  11  12
HETATM   12  C   LIG     1      15.681  32.584  19.985  1.00  0.00     0.002 C 
HETATM   13  C   LIG     1      14.862  32.185  18.760  1.00  0.00     0.005 C 
ENDBRANCH  11  12
ENDBRANCH   4  11
TORSDOF 2
ENDMDL
MODEL 17
REMARK VINA RESULT:      -4.2     10.897     12.644
REMARK  2 active torsions:
REMARK  status: ('A' for Active; 'I' for Inactive)
REMARK    1  A    between atoms: C_4  and  C_5 
REMARK    2  A    between atoms: C_5  and  C_6 
ROOT
HETATM    1  S   LIG     1      13.271  31.594  16.817  1.00  0.00    -0.040 SA
HETATM    2  C   LIG     1      14.085  30.957  15.544  1.00  0.00     0.178 A 
HETATM    3  N   LIG     1      13.799  29.696  15.116  1.00  0.00    -0.337 N 
HETATM    4  C   LIG     1      14.459  29.149  14.055  1.00  0.00     0.017 A 
HETATM    5  C   LIG     1      15.462  29.884  13.414  1.00  0.00     0.099 A 
HETATM    6  N   LIG     1      15.050  31.689  14.919  1.00  0.00    -0.300 N 
HETATM    7  C   LIG     1      15.741  31.173  13.867  1.00  0.00     0.249 A 
HETATM    8  O   LIG     1      16.635  31.858  13.302  1.00  0.00    -0.268 OA
HETATM    9  H   LIG     1      13.064  29.138  15.607  1.00  0.00     0.168 HD
HETATM   10  H   LIG     1      15.268  32.657  15.249  1.00  0.00     0.171 HD
ENDROOT
BRANCH   4  11
HETATM   11  C   LIG     1      14.153  27.741  13.618  1.00  0.00     0.057 C 
BRANCH  11  12
HETATM   12  C   LIG     1      12.655  27.454  13.750  1.00  0.00     0.002 C 
HETATM   13  C   LIG     1      12.187  26.470  12.682  1.00  0.00     0.005 C 
ENDBRANCH  11  12
ENDBRANCH   4  11
TORSDOF 2
ENDMDL
MODEL 18
REMARK VINA RESULT:      -3.4     16.115     16.865
REMARK  2 active torsions:
REMARK  status: ('A' for Active; 'I' for Inactive)
REMARK    1  A    between atoms: C_4  and  C_5 
REMARK    2  A    between atoms: C_5  and  C_6 
ROOT
HETATM    1  S   LIG     1      24.351  22.400  22.641  1.00  0.00    -0.040 SA
HETATM    2  C   LIG     1      24.394  22.431  21.002  1.00  0.00     0.178 A 
HETATM    3  N   LIG     1      25.268  23.255  20.360  1.00  0.00    -0.337 N 
HETATM    4  C   LIG     1      25.324  23.292  18.998  1.00  0.00     0.017 A 
HETATM    5  C   LIG     1      24.456  22.490  18.249  1.00  0.00     0.099 A 
HETATM    6  N   LIG     1      23.552  21.635  20.285  1.00  0.00    -0.300 N 
HETATM    7  C   LIG     1      23.568  21.654  18.925  1.00  0.00     0.249 A 
HETATM    8  O   LIG     1      22.779  20.918  18.274  1.00  0.00    -0.268 OA
HETATM    9  H   LIG     1      25.904  23.869  20.917  1.00  0.00     0.168 HD
HETATM   10  H   LIG     1      22.881  21.003  20.780  1.00  0.00     0.171 HD
ENDROOT
BRANCH   4  11
HETATM   11  C   LIG     1      26.273  24.235  18.305  1.00  0.00     0.057 C 
BRANCH  11  12
HETATM   12  C   LIG     1      26.269  25.600  18.997  1.00  0.00     0.002 C 
HETATM   13  C   LIG     1      27.665  26.216  19.010  1.00  0.00     0.005 C 
ENDBRANCH  11  12
ENDBRANCH   4  11
TORSDOF 2
ENDMDL
MODEL 19
REMARK VINA RESULT:      -3.3     16.052     16.696
REMARK  2 active torsions:
REMARK  status: ('A' for Active; 'I' for Inactive)
REMARK    1  A    between atoms: C_4  and  C_5 
REMARK    2  A    between atoms: C_5  and  C_6 
ROOT
HETATM    1  S   LIG     1      22.998  20.581  18.131  1.00  0.00    -0.040 SA
HETATM    2  C   LIG     1      23.809  21.706  19.006  1.00  0.00     0.178 A 
HETATM    3  N   LIG     1      24.755  22.482  18.407  1.00  0.00    -0.337 N 
HETATM    4  C   LIG     1      25.437  23.427  19.115  1.00  0.00     0.017 A 
HETATM    5  C   LIG     1      25.179  23.587  20.480  1.00  0.00     0.099 A 
HETATM    6  N   LIG     1      23.538  21.861  20.332  1.00  0.00    -0.300 N 
HETATM    7  C   LIG     1      24.207  22.783  21.076  1.00  0.00     0.249 A 
HETATM    8  O   LIG     1      23.951  22.911  22.303  1.00  0.00    -0.268 OA
HETATM    9  H   LIG     1      24.964  22.350  17.391  1.00  0.00     0.168 HD
HETATM   10  H   LIG     1      22.811  21.265  20.791  1.00  0.00     0.171 HD
ENDROOT
BRANCH   4  11
HETATM   11  C   LIG     1      26.504  24.251  18.444  1.00  0.00     0.057 C 
BRANCH  11  12
HETATM   12  C   LIG     1      26.595  25.636  19.090  1.00  0.00     0.002 C 
HETATM   13  C   LIG     1      27.945  26.289  18.805  1.00  0.00     0.005 C 
ENDBRANCH  11  12
ENDBRANCH   4  11
TORSDOF 2
ENDMDL
