REMARK  2 active torsions:
REMARK  status: ('A' for Active; 'I' for Inactive)
REMARK    1  A    between atoms: C_4  and  C_5 
REMARK    2  A    between atoms: C_5  and  C_6 
ROOT
HETATM    1  S   LIG     1      -3.495  -0.756   2.220  1.00  0.00    -0.040 SA
HETATM    2  C   LIG     1      -2.576  -0.337   0.928  1.00  0.00     0.178 A 
HETATM    3  N   LIG     1      -1.256  -0.672   0.895  1.00  0.00    -0.337 N 
HETATM    4  C   LIG     1      -0.475  -0.339  -0.172  1.00  0.00     0.017 A 
HETATM    5  C   LIG     1      -1.031   0.378  -1.237  1.00  0.00     0.099 A 
HETATM    6  N   LIG     1      -3.133   0.349  -0.109  1.00  0.00    -0.300 N 
HETATM    7  C   LIG     1      -2.384   0.712  -1.185  1.00  0.00     0.249 A 
HETATM    8  O   LIG     1      -2.910   1.352  -2.134  1.00  0.00    -0.268 OA
HETATM    9  H   LIG     1      -0.834  -1.190   1.699  1.00  0.00     0.168 HD
HETATM   10  H   LIG     1      -4.147   0.605  -0.082  1.00  0.00     0.171 HD
ENDROOT
BRANCH   4  11
HETATM   11  C   LIG     1       0.990  -0.687  -0.175  1.00  0.00     0.057 C 
BRANCH  11  12
HETATM   12  C   LIG     1       1.802   0.413   0.514  1.00  0.00     0.002 C 
HETATM   13  C   LIG     1       3.290   0.074   0.526  1.00  0.00     0.005 C 
ENDBRANCH  11  12
ENDBRANCH   4  11
TORSDOF 2
