REMARK  6 active torsions:
REMARK  status: ('A' for Active; 'I' for Inactive)
REMARK    1  A    between atoms: C_8  and  O_9 
REMARK    2  A    between atoms: O_9  and  C_10 
REMARK    3  A    between atoms: C_10  and  C_11 
REMARK    4  A    between atoms: C_11  and  C_14 
REMARK    5  A    between atoms: C_11  and  C_12 
REMARK    6  A    between atoms: C_12  and  O_13 
ROOT
HETATM    1  C   LIG     1       1.256  -1.300   0.245  1.00  0.00     0.270 C 
HETATM    2  O   LIG     1       1.210  -2.093  -0.736  1.00  0.00    -0.264 OA
ENDROOT
BRANCH   1   3
HETATM    3  O   LIG     1       0.154  -0.499   0.569  1.00  0.00    -0.315 OA
BRANCH   3   4
HETATM    4  C   LIG     1      -1.080  -0.497  -0.150  1.00  0.00     0.136 C 
HETATM    5  C   LIG     1      -2.229  -0.926   0.803  1.00  0.00     0.068 C 
HETATM    6  C   LIG     1      -3.610  -0.454   0.289  1.00  0.00     0.225 C 
HETATM    7  N   LIG     1      -3.534   1.004   0.165  1.00  0.00     0.093 N 
HETATM    8  C   LIG     1      -3.888  -0.996  -1.123  1.00  0.00     0.038 C 
HETATM    9  C   LIG     1      -4.866   1.634   0.119  1.00  0.00     0.310 C 
HETATM   10  C   LIG     1      -2.799   1.162  -1.093  1.00  0.00     0.225 C 
HETATM   11  C   LIG     1      -3.344   0.089  -2.051  1.00  0.00     0.038 C 
HETATM   12  C   LIG     1      -1.308   0.910  -0.767  1.00  0.00     0.068 C 
ENDBRANCH   3   4
ENDBRANCH   1   3
BRANCH   1  13
HETATM   13  C   LIG     1       2.520  -1.147   1.051  1.00  0.00     0.142 C 
BRANCH  13  14
HETATM   14  C   LIG     1       3.304   0.072   0.602  1.00  0.00    -0.043 A 
HETATM   15  C   LIG     1       3.664   0.252  -0.749  1.00  0.00     0.008 A 
HETATM   16  C   LIG     1       4.385   1.383  -1.145  1.00  0.00     0.001 A 
HETATM   17  C   LIG     1       4.754   2.344  -0.202  1.00  0.00     0.000 A 
HETATM   18  C   LIG     1       4.403   2.178   1.139  1.00  0.00     0.001 A 
HETATM   19  C   LIG     1       3.682   1.049   1.541  1.00  0.00     0.008 A 
ENDBRANCH  13  14
BRANCH  13  20
HETATM   20  C   LIG     1       3.392  -2.418   1.061  1.00  0.00     0.183 C 
BRANCH  20  21
HETATM   21  O   LIG     1       3.881  -2.714  -0.219  1.00  0.00    -0.400 OA
HETATM   22  H   LIG     1       4.427  -3.537  -0.122  1.00  0.00     0.209 HD
ENDBRANCH  20  21
ENDBRANCH  13  20
ENDBRANCH   1  13
TORSDOF 6
