REMARK  2 active torsions:
REMARK  status: ('A' for Active; 'I' for Inactive)
REMARK       I    between atoms: C_2  and  N_3 
REMARK    1  A    between atoms: N_3  and  C_4 
REMARK    2  A    between atoms: C_7  and  O_8 
ROOT
HETATM    1  C   LIG     1       0.661   0.470   0.147  1.00  0.00     0.034 A 
HETATM    2  C   LIG     1      -0.104   1.630   0.333  1.00  0.00     0.032 A 
HETATM    3  C   LIG     1      -1.500   1.577   0.273  1.00  0.00     0.039 A 
HETATM    4  C   LIG     1      -2.156   0.363   0.043  1.00  0.00     0.068 A 
HETATM    5  C   LIG     1      -1.393  -0.809  -0.120  1.00  0.00     0.039 A 
HETATM    6  C   LIG     1       0.004  -0.756  -0.062  1.00  0.00     0.032 A 
ENDROOT
BRANCH   1   7
HETATM    7  N   LIG     1       2.094   0.548   0.236  1.00  0.00    -0.328 N 
HETATM    8  C   LIG     1       2.996  -0.267  -0.527  1.00  0.00     0.218 C 
HETATM    9  C   LIG     1       4.456  -0.250  -0.213  1.00  0.00     0.117 C 
HETATM   10  O   LIG     1       2.575  -0.970  -1.486  1.00  0.00    -0.274 OA
HETATM   11  H   LIG     1       2.508   1.303   0.830  1.00  0.00     0.169 HD
ENDBRANCH   1   7
BRANCH   4  12
HETATM   12  O   LIG     1      -3.558   0.362  -0.010  1.00  0.00    -0.356 OA
HETATM   13  C   LIG     1      -4.353  -0.798  -0.235  1.00  0.00     0.210 C 
ENDBRANCH   4  12
TORSDOF 2
