MODEL 1
REMARK VINA RESULT:      -6.2      0.000      0.000
REMARK  2 active torsions:
REMARK  status: ('A' for Active; 'I' for Inactive)
REMARK       I    between atoms: C_2  and  N_3 
REMARK    1  A    between atoms: N_3  and  C_4 
REMARK    2  A    between atoms: C_7  and  O_8 
ROOT
HETATM    1  C   LIG     1      14.878  32.481  17.215  1.00  0.00     0.034 A 
HETATM    2  C   LIG     1      15.805  32.499  16.164  1.00  0.00     0.032 A 
HETATM    3  C   LIG     1      15.654  31.641  15.070  1.00  0.00     0.039 A 
HETATM    4  C   LIG     1      14.566  30.764  14.999  1.00  0.00     0.068 A 
HETATM    5  C   LIG     1      13.619  30.760  16.042  1.00  0.00     0.039 A 
HETATM    6  C   LIG     1      13.772  31.616  17.137  1.00  0.00     0.032 A 
ENDROOT
BRANCH   1   7
HETATM    7  N   LIG     1      15.045  33.389  18.318  1.00  0.00    -0.328 N 
HETATM    8  C   LIG     1      15.453  32.993  19.636  1.00  0.00     0.218 C 
HETATM    9  C   LIG     1      15.399  33.979  20.756  1.00  0.00     0.117 C 
HETATM   10  O   LIG     1      15.893  31.831  19.852  1.00  0.00    -0.274 OA
HETATM   11  H   LIG     1      14.946  34.413  18.129  1.00  0.00     0.169 HD
ENDBRANCH   1   7
BRANCH   4  12
HETATM   12  O   LIG     1      14.459  29.922  13.882  1.00  0.00    -0.356 OA
HETATM   13  C   LIG     1      15.096  28.654  13.767  1.00  0.00     0.210 C 
ENDBRANCH   4  12
TORSDOF 2
ENDMDL
MODEL 2
REMARK VINA RESULT:      -6.1      4.142      8.561
REMARK  2 active torsions:
REMARK  status: ('A' for Active; 'I' for Inactive)
REMARK       I    between atoms: C_2  and  N_3 
REMARK    1  A    between atoms: N_3  and  C_4 
REMARK    2  A    between atoms: C_7  and  O_8 
ROOT
HETATM    1  C   LIG     1      16.170  35.282  21.578  1.00  0.00     0.034 A 
HETATM    2  C   LIG     1      15.392  36.448  21.566  1.00  0.00     0.032 A 
HETATM    3  C   LIG     1      15.497  37.382  22.601  1.00  0.00     0.039 A 
HETATM    4  C   LIG     1      16.392  37.176  23.656  1.00  0.00     0.068 A 
HETATM    5  C   LIG     1      17.194  36.019  23.660  1.00  0.00     0.039 A 
HETATM    6  C   LIG     1      17.088  35.083  22.625  1.00  0.00     0.032 A 
ENDROOT
BRANCH   1   7
HETATM    7  N   LIG     1      16.060  34.349  20.490  1.00  0.00    -0.328 N 
HETATM    8  C   LIG     1      15.189  33.208  20.490  1.00  0.00     0.218 C 
HETATM    9  C   LIG     1      15.298  32.192  19.400  1.00  0.00     0.117 C 
HETATM   10  O   LIG     1      14.305  33.072  21.380  1.00  0.00    -0.274 OA
HETATM   11  H   LIG     1      16.582  34.559  19.608  1.00  0.00     0.169 HD
ENDBRANCH   1   7
BRANCH   4  12
HETATM   12  O   LIG     1      16.460  38.142  24.672  1.00  0.00    -0.356 OA
HETATM   13  C   LIG     1      17.400  38.120  25.741  1.00  0.00     0.210 C 
ENDBRANCH   4  12
TORSDOF 2
ENDMDL
MODEL 3
REMARK VINA RESULT:      -5.8      7.961      8.801
REMARK  2 active torsions:
REMARK  status: ('A' for Active; 'I' for Inactive)
REMARK       I    between atoms: C_2  and  N_3 
REMARK    1  A    between atoms: N_3  and  C_4 
REMARK    2  A    between atoms: C_7  and  O_8 
ROOT
HETATM    1  C   LIG     1      17.900  37.718  21.503  1.00  0.00     0.034 A 
HETATM    2  C   LIG     1      18.107  39.097  21.355  1.00  0.00     0.032 A 
HETATM    3  C   LIG     1      18.684  39.607  20.187  1.00  0.00     0.039 A 
HETATM    4  C   LIG     1      19.048  38.751  19.142  1.00  0.00     0.068 A 
HETATM    5  C   LIG     1      18.819  37.368  19.276  1.00  0.00     0.039 A 
HETATM    6  C   LIG     1      18.244  36.858  20.445  1.00  0.00     0.032 A 
ENDROOT
BRANCH   1   7
HETATM    7  N   LIG     1      17.284  37.223  22.704  1.00  0.00    -0.328 N 
HETATM    8  C   LIG     1      17.761  37.500  24.029  1.00  0.00     0.218 C 
HETATM    9  C   LIG     1      17.173  36.774  25.195  1.00  0.00     0.117 C 
HETATM   10  O   LIG     1      18.644  38.378  24.226  1.00  0.00    -0.274 OA
HETATM   11  H   LIG     1      16.384  36.697  22.613  1.00  0.00     0.169 HD
ENDBRANCH   1   7
BRANCH   4  12
HETATM   12  O   LIG     1      19.624  39.310  17.992  1.00  0.00    -0.356 OA
HETATM   13  C   LIG     1      18.910  39.603  16.796  1.00  0.00     0.210 C 
ENDBRANCH   4  12
TORSDOF 2
ENDMDL
MODEL 4
REMARK VINA RESULT:      -5.8      2.817      5.845
REMARK  2 active torsions:
REMARK  status: ('A' for Active; 'I' for Inactive)
REMARK       I    between atoms: C_2  and  N_3 
REMARK    1  A    between atoms: N_3  and  C_4 
REMARK    2  A    between atoms: C_7  and  O_8 
ROOT
HETATM    1  C   LIG     1      13.437  29.871  14.723  1.00  0.00     0.034 A 
HETATM    2  C   LIG     1      13.043  30.506  15.909  1.00  0.00     0.032 A 
HETATM    3  C   LIG     1      13.837  31.508  16.476  1.00  0.00     0.039 A 
HETATM    4  C   LIG     1      15.029  31.904  15.859  1.00  0.00     0.068 A 
HETATM    5  C   LIG     1      15.416  31.286  14.655  1.00  0.00     0.039 A 
HETATM    6  C   LIG     1      14.623  30.282  14.089  1.00  0.00     0.032 A 
ENDROOT
BRANCH   1   7
HETATM    7  N   LIG     1      12.591  28.860  14.150  1.00  0.00    -0.328 N 
HETATM    8  C   LIG     1      13.069  27.619  13.609  1.00  0.00     0.218 C 
HETATM    9  C   LIG     1      12.134  26.730  12.856  1.00  0.00     0.117 C 
HETATM   10  O   LIG     1      14.261  27.252  13.795  1.00  0.00    -0.274 OA
HETATM   11  H   LIG     1      11.556  28.997  14.206  1.00  0.00     0.169 HD
ENDBRANCH   1   7
BRANCH   4  12
HETATM   12  O   LIG     1      15.791  32.913  16.468  1.00  0.00    -0.356 OA
HETATM   13  C   LIG     1      15.257  34.138  16.960  1.00  0.00     0.210 C 
ENDBRANCH   4  12
TORSDOF 2
ENDMDL
MODEL 5
REMARK VINA RESULT:      -5.6      3.620      8.096
REMARK  2 active torsions:
REMARK  status: ('A' for Active; 'I' for Inactive)
REMARK       I    between atoms: C_2  and  N_3 
REMARK    1  A    between atoms: N_3  and  C_4 
REMARK    2  A    between atoms: C_7  and  O_8 
ROOT
HETATM    1  C   LIG     1      15.676  34.811  21.236  1.00  0.00     0.034 A 
HETATM    2  C   LIG     1      14.738  35.848  21.339  1.00  0.00     0.032 A 
HETATM    3  C   LIG     1      14.972  36.934  22.188  1.00  0.00     0.039 A 
HETATM    4  C   LIG     1      16.152  37.012  22.935  1.00  0.00     0.068 A 
HETATM    5  C   LIG     1      17.108  35.984  22.817  1.00  0.00     0.039 A 
HETATM    6  C   LIG     1      16.873  34.896  21.969  1.00  0.00     0.032 A 
ENDROOT
BRANCH   1   7
HETATM    7  N   LIG     1      15.421  33.717  20.339  1.00  0.00    -0.328 N 
HETATM    8  C   LIG     1      15.421  33.829  18.908  1.00  0.00     0.218 C 
HETATM    9  C   LIG     1      14.946  32.684  18.075  1.00  0.00     0.117 C 
HETATM   10  O   LIG     1      15.852  34.871  18.343  1.00  0.00    -0.274 OA
HETATM   11  H   LIG     1      15.313  32.761  20.749  1.00  0.00     0.169 HD
ENDBRANCH   1   7
BRANCH   4  12
HETATM   12  O   LIG     1      16.339  38.121  23.774  1.00  0.00    -0.356 OA
HETATM   13  C   LIG     1      17.327  38.197  24.797  1.00  0.00     0.210 C 
ENDBRANCH   4  12
TORSDOF 2
ENDMDL
MODEL 6
REMARK VINA RESULT:      -5.6      7.998      9.620
REMARK  2 active torsions:
REMARK  status: ('A' for Active; 'I' for Inactive)
REMARK       I    between atoms: C_2  and  N_3 
REMARK    1  A    between atoms: N_3  and  C_4 
REMARK    2  A    between atoms: C_7  and  O_8 
ROOT
HETATM    1  C   LIG     1      17.774  38.044  21.864  1.00  0.00     0.034 A 
HETATM    2  C   LIG     1      18.229  38.621  23.058  1.00  0.00     0.032 A 
HETATM    3  C   LIG     1      18.000  37.988  24.284  1.00  0.00     0.039 A 
HETATM    4  C   LIG     1      17.328  36.762  24.337  1.00  0.00     0.068 A 
HETATM    5  C   LIG     1      16.891  36.167  23.138  1.00  0.00     0.039 A 
HETATM    6  C   LIG     1      17.119  36.801  21.911  1.00  0.00     0.032 A 
ENDROOT
BRANCH   1   7
HETATM    7  N   LIG     1      18.043  38.704  20.615  1.00  0.00    -0.328 N 
HETATM    8  C   LIG     1      18.912  38.185  19.598  1.00  0.00     0.218 C 
HETATM    9  C   LIG     1      19.281  39.040  18.430  1.00  0.00     0.117 C 
HETATM   10  O   LIG     1      19.338  36.999  19.658  1.00  0.00    -0.274 OA
HETATM   11  H   LIG     1      17.508  39.576  20.396  1.00  0.00     0.169 HD
ENDBRANCH   1   7
BRANCH   4  12
HETATM   12  O   LIG     1      17.121  36.168  25.591  1.00  0.00    -0.356 OA
HETATM   13  C   LIG     1      17.737  34.958  26.019  1.00  0.00     0.210 C 
ENDBRANCH   4  12
TORSDOF 2
ENDMDL
MODEL 7
REMARK VINA RESULT:      -5.6      4.445      6.958
REMARK  2 active torsions:
REMARK  status: ('A' for Active; 'I' for Inactive)
REMARK       I    between atoms: C_2  and  N_3 
REMARK    1  A    between atoms: N_3  and  C_4 
REMARK    2  A    between atoms: C_7  and  O_8 
ROOT
HETATM    1  C   LIG     1      16.427  36.914  22.358  1.00  0.00     0.034 A 
HETATM    2  C   LIG     1      17.430  36.558  21.446  1.00  0.00     0.032 A 
HETATM    3  C   LIG     1      17.145  35.706  20.375  1.00  0.00     0.039 A 
HETATM    4  C   LIG     1      15.851  35.209  20.186  1.00  0.00     0.068 A 
HETATM    5  C   LIG     1      14.834  35.583  21.085  1.00  0.00     0.039 A 
HETATM    6  C   LIG     1      15.120  36.434  22.159  1.00  0.00     0.032 A 
ENDROOT
BRANCH   1   7
HETATM    7  N   LIG     1      16.741  37.810  23.438  1.00  0.00    -0.328 N 
HETATM    8  C   LIG     1      17.203  37.386  24.730  1.00  0.00     0.218 C 
HETATM    9  C   LIG     1      17.306  38.378  25.842  1.00  0.00     0.117 C 
HETATM   10  O   LIG     1      17.560  36.193  24.927  1.00  0.00    -0.274 OA
HETATM   11  H   LIG     1      16.713  38.838  23.247  1.00  0.00     0.169 HD
ENDBRANCH   1   7
BRANCH   4  12
HETATM   12  O   LIG     1      15.616  34.356  19.097  1.00  0.00    -0.356 OA
HETATM   13  C   LIG     1      15.310  32.970  19.213  1.00  0.00     0.210 C 
ENDBRANCH   4  12
TORSDOF 2
ENDMDL
MODEL 8
REMARK VINA RESULT:      -5.5      8.064      9.833
REMARK  2 active torsions:
REMARK  status: ('A' for Active; 'I' for Inactive)
REMARK       I    between atoms: C_2  and  N_3 
REMARK    1  A    between atoms: N_3  and  C_4 
REMARK    2  A    between atoms: C_7  and  O_8 
ROOT
HETATM    1  C   LIG     1      18.556  38.301  20.340  1.00  0.00     0.034 A 
HETATM    2  C   LIG     1      18.610  39.332  21.288  1.00  0.00     0.032 A 
HETATM    3  C   LIG     1      17.955  39.202  22.517  1.00  0.00     0.039 A 
HETATM    4  C   LIG     1      17.250  38.034  22.827  1.00  0.00     0.068 A 
HETATM    5  C   LIG     1      17.214  36.986  21.888  1.00  0.00     0.039 A 
HETATM    6  C   LIG     1      17.867  37.117  20.657  1.00  0.00     0.032 A 
ENDROOT
BRANCH   1   7
HETATM    7  N   LIG     1      19.256  38.451  19.094  1.00  0.00    -0.328 N 
HETATM    8  C   LIG     1      18.889  39.386  18.068  1.00  0.00     0.218 C 
HETATM    9  C   LIG     1      19.555  39.321  16.733  1.00  0.00     0.117 C 
HETATM   10  O   LIG     1      18.035  40.287  18.294  1.00  0.00    -0.274 OA
HETATM   11  H   LIG     1      20.139  37.906  18.959  1.00  0.00     0.169 HD
ENDBRANCH   1   7
BRANCH   4  12
HETATM   12  O   LIG     1      16.609  37.952  24.072  1.00  0.00    -0.356 OA
HETATM   13  C   LIG     1      17.284  37.971  25.326  1.00  0.00     0.210 C 
ENDBRANCH   4  12
TORSDOF 2
ENDMDL
MODEL 9
REMARK VINA RESULT:      -5.3      2.565      5.837
REMARK  2 active torsions:
REMARK  status: ('A' for Active; 'I' for Inactive)
REMARK       I    between atoms: C_2  and  N_3 
REMARK    1  A    between atoms: N_3  and  C_4 
REMARK    2  A    between atoms: C_7  and  O_8 
ROOT
HETATM    1  C   LIG     1      15.013  30.076  14.106  1.00  0.00     0.034 A 
HETATM    2  C   LIG     1      13.878  29.926  14.915  1.00  0.00     0.032 A 
HETATM    3  C   LIG     1      13.665  30.775  16.005  1.00  0.00     0.039 A 
HETATM    4  C   LIG     1      14.573  31.799  16.296  1.00  0.00     0.068 A 
HETATM    5  C   LIG     1      15.702  31.969  15.472  1.00  0.00     0.039 A 
HETATM    6  C   LIG     1      15.916  31.118  14.382  1.00  0.00     0.032 A 
ENDROOT
BRANCH   1   7
HETATM    7  N   LIG     1      15.196  29.203  12.978  1.00  0.00    -0.328 N 
HETATM    8  C   LIG     1      15.673  27.853  13.071  1.00  0.00     0.218 C 
HETATM    9  C   LIG     1      16.020  27.103  11.827  1.00  0.00     0.117 C 
HETATM   10  O   LIG     1      15.768  27.278  14.190  1.00  0.00    -0.274 OA
HETATM   11  H   LIG     1      14.882  29.543  12.040  1.00  0.00     0.169 HD
ENDBRANCH   1   7
BRANCH   4  12
HETATM   12  O   LIG     1      14.317  32.624  17.402  1.00  0.00    -0.356 OA
HETATM   13  C   LIG     1      15.052  32.586  18.621  1.00  0.00     0.210 C 
ENDBRANCH   4  12
TORSDOF 2
ENDMDL
MODEL 10
REMARK VINA RESULT:      -5.3      3.768      5.582
REMARK  2 active torsions:
REMARK  status: ('A' for Active; 'I' for Inactive)
REMARK       I    between atoms: C_2  and  N_3 
REMARK    1  A    between atoms: N_3  and  C_4 
REMARK    2  A    between atoms: C_7  and  O_8 
ROOT
HETATM    1  C   LIG     1      17.087  32.855  13.556  1.00  0.00     0.034 A 
HETATM    2  C   LIG     1      17.123  33.376  14.857  1.00  0.00     0.032 A 
HETATM    3  C   LIG     1      16.228  32.918  15.830  1.00  0.00     0.039 A 
HETATM    4  C   LIG     1      15.294  31.923  15.524  1.00  0.00     0.068 A 
HETATM    5  C   LIG     1      15.270  31.380  14.225  1.00  0.00     0.039 A 
HETATM    6  C   LIG     1      16.165  31.839  13.251  1.00  0.00     0.032 A 
ENDROOT
BRANCH   1   7
HETATM    7  N   LIG     1      18.034  33.327  12.581  1.00  0.00    -0.328 N 
HETATM    8  C   LIG     1      17.928  34.582  11.894  1.00  0.00     0.218 C 
HETATM    9  C   LIG     1      18.848  34.886  10.758  1.00  0.00     0.117 C 
HETATM   10  O   LIG     1      17.090  35.450  12.263  1.00  0.00    -0.274 OA
HETATM   11  H   LIG     1      18.899  32.760  12.424  1.00  0.00     0.169 HD
ENDBRANCH   1   7
BRANCH   4  12
HETATM   12  O   LIG     1      14.416  31.499  16.533  1.00  0.00    -0.356 OA
HETATM   13  C   LIG     1      13.201  30.795  16.298  1.00  0.00     0.210 C 
ENDBRANCH   4  12
TORSDOF 2
ENDMDL
MODEL 11
REMARK VINA RESULT:      -5.2      0.855      1.616
REMARK  2 active torsions:
REMARK  status: ('A' for Active; 'I' for Inactive)
REMARK       I    between atoms: C_2  and  N_3 
REMARK    1  A    between atoms: N_3  and  C_4 
REMARK    2  A    between atoms: C_7  and  O_8 
ROOT
HETATM    1  C   LIG     1      14.635  32.453  16.519  1.00  0.00     0.034 A 
HETATM    2  C   LIG     1      13.408  31.777  16.567  1.00  0.00     0.032 A 
HETATM    3  C   LIG     1      13.169  30.681  15.732  1.00  0.00     0.039 A 
HETATM    4  C   LIG     1      14.156  30.232  14.847  1.00  0.00     0.068 A 
HETATM    5  C   LIG     1      15.398  30.893  14.813  1.00  0.00     0.039 A 
HETATM    6  C   LIG     1      15.638  31.991  15.647  1.00  0.00     0.032 A 
ENDROOT
BRANCH   1   7
HETATM    7  N   LIG     1      14.864  33.563  17.404  1.00  0.00    -0.328 N 
HETATM    8  C   LIG     1      15.363  33.437  18.744  1.00  0.00     0.218 C 
HETATM    9  C   LIG     1      15.372  34.628  19.646  1.00  0.00     0.117 C 
HETATM   10  O   LIG     1      15.829  32.341  19.158  1.00  0.00    -0.274 OA
HETATM   11  H   LIG     1      14.741  34.529  17.022  1.00  0.00     0.169 HD
ENDBRANCH   1   7
BRANCH   4  12
HETATM   12  O   LIG     1      13.867  29.130  14.029  1.00  0.00    -0.356 OA
HETATM   13  C   LIG     1      14.747  28.029  13.823  1.00  0.00     0.210 C 
ENDBRANCH   4  12
TORSDOF 2
ENDMDL
MODEL 12
REMARK VINA RESULT:      -5.2      3.140      5.490
REMARK  2 active torsions:
REMARK  status: ('A' for Active; 'I' for Inactive)
REMARK       I    between atoms: C_2  and  N_3 
REMARK    1  A    between atoms: N_3  and  C_4 
REMARK    2  A    between atoms: C_7  and  O_8 
ROOT
HETATM    1  C   LIG     1      14.233  30.317  14.454  1.00  0.00     0.034 A 
HETATM    2  C   LIG     1      15.172  30.752  13.507  1.00  0.00     0.032 A 
HETATM    3  C   LIG     1      16.029  31.818  13.795  1.00  0.00     0.039 A 
HETATM    4  C   LIG     1      15.976  32.457  15.039  1.00  0.00     0.068 A 
HETATM    5  C   LIG     1      15.052  32.009  16.001  1.00  0.00     0.039 A 
HETATM    6  C   LIG     1      14.192  30.943  15.713  1.00  0.00     0.032 A 
ENDROOT
BRANCH   1   7
HETATM    7  N   LIG     1      13.378  29.204  14.141  1.00  0.00    -0.328 N 
HETATM    8  C   LIG     1      13.852  27.908  13.746  1.00  0.00     0.218 C 
HETATM    9  C   LIG     1      12.884  26.886  13.248  1.00  0.00     0.117 C 
HETATM   10  O   LIG     1      15.073  27.609  13.850  1.00  0.00    -0.274 OA
HETATM   11  H   LIG     1      12.349  29.319  14.291  1.00  0.00     0.169 HD
ENDBRANCH   1   7
BRANCH   4  12
HETATM   12  O   LIG     1      16.856  33.523  15.279  1.00  0.00    -0.356 OA
HETATM   13  C   LIG     1      17.760  34.052  14.314  1.00  0.00     0.210 C 
ENDBRANCH   4  12
TORSDOF 2
ENDMDL
MODEL 13
REMARK VINA RESULT:      -5.1      2.306      5.659
REMARK  2 active torsions:
REMARK  status: ('A' for Active; 'I' for Inactive)
REMARK       I    between atoms: C_2  and  N_3 
REMARK    1  A    between atoms: N_3  and  C_4 
REMARK    2  A    between atoms: C_7  and  O_8 
ROOT
HETATM    1  C   LIG     1      15.159  32.933  17.591  1.00  0.00     0.034 A 
HETATM    2  C   LIG     1      15.329  34.306  17.818  1.00  0.00     0.032 A 
HETATM    3  C   LIG     1      15.486  34.796  19.118  1.00  0.00     0.039 A 
HETATM    4  C   LIG     1      15.493  33.923  20.211  1.00  0.00     0.068 A 
HETATM    5  C   LIG     1      15.346  32.541  19.986  1.00  0.00     0.039 A 
HETATM    6  C   LIG     1      15.187  32.050  18.686  1.00  0.00     0.032 A 
ENDROOT
BRANCH   1   7
HETATM    7  N   LIG     1      15.022  32.453  16.243  1.00  0.00    -0.328 N 
HETATM    8  C   LIG     1      16.117  32.284  15.331  1.00  0.00     0.218 C 
HETATM    9  C   LIG     1      15.844  31.974  13.895  1.00  0.00     0.117 C 
HETATM   10  O   LIG     1      17.309  32.356  15.735  1.00  0.00    -0.274 OA
HETATM   11  H   LIG     1      14.078  32.125  15.932  1.00  0.00     0.169 HD
ENDBRANCH   1   7
BRANCH   4  12
HETATM   12  O   LIG     1      15.652  34.464  21.496  1.00  0.00    -0.356 OA
HETATM   13  C   LIG     1      16.834  35.114  21.954  1.00  0.00     0.210 C 
ENDBRANCH   4  12
TORSDOF 2
ENDMDL
MODEL 14
REMARK VINA RESULT:      -5.1      3.243      6.232
REMARK  2 active torsions:
REMARK  status: ('A' for Active; 'I' for Inactive)
REMARK       I    between atoms: C_2  and  N_3 
REMARK    1  A    between atoms: N_3  and  C_4 
REMARK    2  A    between atoms: C_7  and  O_8 
ROOT
HETATM    1  C   LIG     1      13.672  28.858  14.128  1.00  0.00     0.034 A 
HETATM    2  C   LIG     1      14.959  29.305  13.796  1.00  0.00     0.032 A 
HETATM    3  C   LIG     1      15.471  30.477  14.359  1.00  0.00     0.039 A 
HETATM    4  C   LIG     1      14.714  31.215  15.276  1.00  0.00     0.068 A 
HETATM    5  C   LIG     1      13.431  30.757  15.632  1.00  0.00     0.039 A 
HETATM    6  C   LIG     1      12.917  29.585  15.066  1.00  0.00     0.032 A 
ENDROOT
BRANCH   1   7
HETATM    7  N   LIG     1      13.179  27.637  13.551  1.00  0.00    -0.328 N 
HETATM    8  C   LIG     1      11.850  27.466  13.037  1.00  0.00     0.218 C 
HETATM    9  C   LIG     1      11.375  26.105  12.647  1.00  0.00     0.117 C 
HETATM   10  O   LIG     1      11.089  28.460  12.873  1.00  0.00    -0.274 OA
HETATM   11  H   LIG     1      13.854  26.849  13.420  1.00  0.00     0.169 HD
ENDBRANCH   1   7
BRANCH   4  12
HETATM   12  O   LIG     1      15.271  32.385  15.813  1.00  0.00    -0.356 OA
HETATM   13  C   LIG     1      14.683  33.147  16.862  1.00  0.00     0.210 C 
ENDBRANCH   4  12
TORSDOF 2
ENDMDL
MODEL 15
REMARK VINA RESULT:      -5.0      3.633      4.139
REMARK  2 active torsions:
REMARK  status: ('A' for Active; 'I' for Inactive)
REMARK       I    between atoms: C_2  and  N_3 
REMARK    1  A    between atoms: N_3  and  C_4 
REMARK    2  A    between atoms: C_7  and  O_8 
ROOT
HETATM    1  C   LIG     1      15.011  30.597  14.902  1.00  0.00     0.034 A 
HETATM    2  C   LIG     1      15.509  29.505  14.178  1.00  0.00     0.032 A 
HETATM    3  C   LIG     1      14.663  28.456  13.804  1.00  0.00     0.039 A 
HETATM    4  C   LIG     1      13.303  28.489  14.131  1.00  0.00     0.068 A 
HETATM    5  C   LIG     1      12.794  29.596  14.837  1.00  0.00     0.039 A 
HETATM    6  C   LIG     1      13.641  30.644  15.213  1.00  0.00     0.032 A 
ENDROOT
BRANCH   1   7
HETATM    7  N   LIG     1      15.898  31.673  15.255  1.00  0.00    -0.328 N 
HETATM    8  C   LIG     1      16.462  32.597  14.313  1.00  0.00     0.218 C 
HETATM    9  C   LIG     1      17.527  33.547  14.753  1.00  0.00     0.117 C 
HETATM   10  O   LIG     1      16.042  32.642  13.124  1.00  0.00    -0.274 OA
HETATM   11  H   LIG     1      16.078  31.847  16.271  1.00  0.00     0.169 HD
ENDBRANCH   1   7
BRANCH   4  12
HETATM   12  O   LIG     1      12.496  27.412  13.735  1.00  0.00    -0.356 OA
HETATM   13  C   LIG     1      11.402  27.519  12.828  1.00  0.00     0.210 C 
ENDBRANCH   4  12
TORSDOF 2
ENDMDL
MODEL 16
REMARK VINA RESULT:      -4.8      5.601      8.177
REMARK  2 active torsions:
REMARK  status: ('A' for Active; 'I' for Inactive)
REMARK       I    between atoms: C_2  and  N_3 
REMARK    1  A    between atoms: N_3  and  C_4 
REMARK    2  A    between atoms: C_7  and  O_8 
ROOT
HETATM    1  C   LIG     1      17.327  36.470  21.260  1.00  0.00     0.034 A 
HETATM    2  C   LIG     1      17.310  37.744  21.844  1.00  0.00     0.032 A 
HETATM    3  C   LIG     1      18.167  38.749  21.382  1.00  0.00     0.039 A 
HETATM    4  C   LIG     1      19.042  38.503  20.319  1.00  0.00     0.068 A 
HETATM    5  C   LIG     1      19.045  37.232  19.712  1.00  0.00     0.039 A 
HETATM    6  C   LIG     1      18.189  36.227  20.176  1.00  0.00     0.032 A 
ENDROOT
BRANCH   1   7
HETATM    7  N   LIG     1      16.420  35.462  21.739  1.00  0.00    -0.328 N 
HETATM    8  C   LIG     1      15.610  34.636  20.890  1.00  0.00     0.218 C 
HETATM    9  C   LIG     1      14.557  33.764  21.491  1.00  0.00     0.117 C 
HETATM   10  O   LIG     1      15.803  34.608  19.644  1.00  0.00    -0.274 OA
HETATM   11  H   LIG     1      16.411  35.258  22.765  1.00  0.00     0.169 HD
ENDBRANCH   1   7
BRANCH   4  12
HETATM   12  O   LIG     1      19.882  39.542  19.893  1.00  0.00    -0.356 OA
HETATM   13  C   LIG     1      20.617  39.533  18.673  1.00  0.00     0.210 C 
ENDBRANCH   4  12
TORSDOF 2
ENDMDL
MODEL 17
REMARK VINA RESULT:      -4.8      2.249      3.264
REMARK  2 active torsions:
REMARK  status: ('A' for Active; 'I' for Inactive)
REMARK       I    between atoms: C_2  and  N_3 
REMARK    1  A    between atoms: N_3  and  C_4 
REMARK    2  A    between atoms: C_7  and  O_8 
ROOT
HETATM    1  C   LIG     1      14.505  30.449  14.954  1.00  0.00     0.034 A 
HETATM    2  C   LIG     1      15.408  29.555  14.360  1.00  0.00     0.032 A 
HETATM    3  C   LIG     1      14.954  28.362  13.789  1.00  0.00     0.039 A 
HETATM    4  C   LIG     1      13.591  28.049  13.786  1.00  0.00     0.068 A 
HETATM    5  C   LIG     1      12.677  28.955  14.358  1.00  0.00     0.039 A 
HETATM    6  C   LIG     1      13.131  30.148  14.932  1.00  0.00     0.032 A 
ENDROOT
BRANCH   1   7
HETATM    7  N   LIG     1      14.996  31.679  15.514  1.00  0.00    -0.328 N 
HETATM    8  C   LIG     1      14.617  32.187  16.802  1.00  0.00     0.218 C 
HETATM    9  C   LIG     1      15.024  33.567  17.202  1.00  0.00     0.117 C 
HETATM   10  O   LIG     1      13.977  31.467  17.616  1.00  0.00    -0.274 OA
HETATM   11  H   LIG     1      15.739  32.195  14.989  1.00  0.00     0.169 HD
ENDBRANCH   1   7
BRANCH   4  12
HETATM   12  O   LIG     1      13.185  26.840  13.202  1.00  0.00    -0.356 OA
HETATM   13  C   LIG     1      11.878  26.590  12.695  1.00  0.00     0.210 C 
ENDBRANCH   4  12
TORSDOF 2
ENDMDL
MODEL 18
REMARK VINA RESULT:      -4.6      4.520      6.581
REMARK  2 active torsions:
REMARK  status: ('A' for Active; 'I' for Inactive)
REMARK       I    between atoms: C_2  and  N_3 
REMARK    1  A    between atoms: N_3  and  C_4 
REMARK    2  A    between atoms: C_7  and  O_8 
ROOT
HETATM    1  C   LIG     1      17.276  36.198  20.877  1.00  0.00     0.034 A 
HETATM    2  C   LIG     1      16.991  35.453  22.029  1.00  0.00     0.032 A 
HETATM    3  C   LIG     1      16.111  34.367  21.972  1.00  0.00     0.039 A 
HETATM    4  C   LIG     1      15.515  33.998  20.762  1.00  0.00     0.068 A 
HETATM    5  C   LIG     1      15.818  34.728  19.597  1.00  0.00     0.039 A 
HETATM    6  C   LIG     1      16.696  35.816  19.654  1.00  0.00     0.032 A 
ENDROOT
BRANCH   1   7
HETATM    7  N   LIG     1      18.202  37.296  20.958  1.00  0.00    -0.328 N 
HETATM    8  C   LIG     1      17.882  38.583  21.508  1.00  0.00     0.218 C 
HETATM    9  C   LIG     1      18.848  39.712  21.360  1.00  0.00     0.117 C 
HETATM   10  O   LIG     1      16.810  38.761  22.149  1.00  0.00    -0.274 OA
HETATM   11  H   LIG     1      19.194  37.122  20.677  1.00  0.00     0.169 HD
ENDBRANCH   1   7
BRANCH   4  12
HETATM   12  O   LIG     1      14.639  32.902  20.757  1.00  0.00    -0.356 OA
HETATM   13  C   LIG     1      14.840  31.715  19.997  1.00  0.00     0.210 C 
ENDBRANCH   4  12
TORSDOF 2
ENDMDL
MODEL 19
REMARK VINA RESULT:      -4.6      3.550      5.528
REMARK  2 active torsions:
REMARK  status: ('A' for Active; 'I' for Inactive)
REMARK       I    between atoms: C_2  and  N_3 
REMARK    1  A    between atoms: N_3  and  C_4 
REMARK    2  A    between atoms: C_7  and  O_8 
ROOT
HETATM    1  C   LIG     1      16.026  32.036  14.391  1.00  0.00     0.034 A 
HETATM    2  C   LIG     1      16.232  32.428  13.061  1.00  0.00     0.032 A 
HETATM    3  C   LIG     1      17.343  33.202  12.712  1.00  0.00     0.039 A 
HETATM    4  C   LIG     1      18.275  33.584  13.683  1.00  0.00     0.068 A 
HETATM    5  C   LIG     1      18.086  33.173  15.016  1.00  0.00     0.039 A 
HETATM    6  C   LIG     1      16.973  32.400  15.365  1.00  0.00     0.032 A 
ENDROOT
BRANCH   1   7
HETATM    7  N   LIG     1      14.888  31.221  14.719  1.00  0.00    -0.328 N 
HETATM    8  C   LIG     1      14.670  29.897  14.211  1.00  0.00     0.218 C 
HETATM    9  C   LIG     1      13.362  29.217  14.451  1.00  0.00     0.117 C 
HETATM   10  O   LIG     1      15.585  29.283  13.597  1.00  0.00    -0.274 OA
HETATM   11  H   LIG     1      14.218  31.581  15.438  1.00  0.00     0.169 HD
ENDBRANCH   1   7
BRANCH   4  12
HETATM   12  O   LIG     1      19.372  34.363  13.283  1.00  0.00    -0.356 OA
HETATM   13  C   LIG     1      20.058  34.210  12.044  1.00  0.00     0.210 C 
ENDBRANCH   4  12
TORSDOF 2
ENDMDL
MODEL 20
REMARK VINA RESULT:      -4.3      3.101      4.935
REMARK  2 active torsions:
REMARK  status: ('A' for Active; 'I' for Inactive)
REMARK       I    between atoms: C_2  and  N_3 
REMARK    1  A    between atoms: N_3  and  C_4 
REMARK    2  A    between atoms: C_7  and  O_8 
ROOT
HETATM    1  C   LIG     1      16.868  32.651  15.046  1.00  0.00     0.034 A 
HETATM    2  C   LIG     1      16.194  31.513  14.580  1.00  0.00     0.032 A 
HETATM    3  C   LIG     1      15.021  31.078  15.203  1.00  0.00     0.039 A 
HETATM    4  C   LIG     1      14.491  31.780  16.291  1.00  0.00     0.068 A 
HETATM    5  C   LIG     1      15.151  32.937  16.748  1.00  0.00     0.039 A 
HETATM    6  C   LIG     1      16.327  33.372  16.125  1.00  0.00     0.032 A 
ENDROOT
BRANCH   1   7
HETATM    7  N   LIG     1      18.061  33.090  14.373  1.00  0.00    -0.328 N 
HETATM    8  C   LIG     1      18.067  33.880  13.175  1.00  0.00     0.218 C 
HETATM    9  C   LIG     1      19.350  34.110  12.446  1.00  0.00     0.117 C 
HETATM   10  O   LIG     1      17.007  34.415  12.750  1.00  0.00    -0.274 OA
HETATM   11  H   LIG     1      18.981  32.894  14.829  1.00  0.00     0.169 HD
ENDBRANCH   1   7
BRANCH   4  12
HETATM   12  O   LIG     1      13.313  31.302  16.883  1.00  0.00    -0.356 OA
HETATM   13  C   LIG     1      12.037  31.920  16.746  1.00  0.00     0.210 C 
ENDBRANCH   4  12
TORSDOF 2
ENDMDL
