MODEL 1
REMARK VINA RESULT:      -6.6      0.000      0.000
REMARK  4 active torsions:
REMARK  status: ('A' for Active; 'I' for Inactive)
REMARK    1  A    between atoms: N_1  and  C_2 
REMARK    2  A    between atoms: C_2  and  C_3 
REMARK    3  A    between atoms: C_3  and  C_4 
REMARK    4  A    between atoms: C_7  and  O_8 
ROOT
HETATM    1  C   LIG     1      17.627  37.347  21.247  1.00  0.00    -0.056 A 
HETATM    2  C   LIG     1      18.326  36.724  20.199  1.00  0.00     0.010 A 
HETATM    3  C   LIG     1      19.310  37.421  19.494  1.00  0.00     0.037 A 
HETATM    4  C   LIG     1      19.606  38.748  19.824  1.00  0.00     0.065 A 
HETATM    5  C   LIG     1      18.911  39.376  20.866  1.00  0.00     0.037 A 
HETATM    6  C   LIG     1      17.926  38.681  21.573  1.00  0.00     0.010 A 
ENDROOT
BRANCH   1   7
HETATM    7  C   LIG     1      16.562  36.594  22.004  1.00  0.00     0.068 C 
BRANCH   7   8
HETATM    8  C   LIG     1      15.865  35.571  21.103  1.00  0.00     0.271 C 
BRANCH   8   9
HETATM    9  N   LIG     1      14.416  35.703  21.221  1.00  0.00     0.078 N 
HETATM   10  H   LIG     1      14.019  35.820  20.260  1.00  0.00     0.312 HD
HETATM   11  H   LIG     1      14.219  36.593  21.733  1.00  0.00     0.312 HD
ENDBRANCH   8   9
ENDBRANCH   7   8
ENDBRANCH   1   7
BRANCH   4  12
HETATM   12  O   LIG     1      20.590  39.431  19.113  1.00  0.00    -0.361 OA
HETATM   13  H   LIG     1      21.499  39.623  19.517  1.00  0.00     0.217 HD
ENDBRANCH   4  12
TORSDOF 4
ENDMDL
MODEL 2
REMARK VINA RESULT:      -6.6      0.024      1.533
REMARK  4 active torsions:
REMARK  status: ('A' for Active; 'I' for Inactive)
REMARK    1  A    between atoms: N_1  and  C_2 
REMARK    2  A    between atoms: C_2  and  C_3 
REMARK    3  A    between atoms: C_3  and  C_4 
REMARK    4  A    between atoms: C_7  and  O_8 
ROOT
HETATM    1  C   LIG     1      17.617  37.358  21.239  1.00  0.00    -0.056 A 
HETATM    2  C   LIG     1      17.914  38.697  21.546  1.00  0.00     0.010 A 
HETATM    3  C   LIG     1      18.903  39.382  20.835  1.00  0.00     0.037 A 
HETATM    4  C   LIG     1      19.608  38.738  19.813  1.00  0.00     0.065 A 
HETATM    5  C   LIG     1      19.320  37.403  19.503  1.00  0.00     0.037 A 
HETATM    6  C   LIG     1      18.331  36.715  20.213  1.00  0.00     0.010 A 
ENDROOT
BRANCH   1   7
HETATM    7  C   LIG     1      16.552  36.619  22.010  1.00  0.00     0.068 C 
BRANCH   7   8
HETATM    8  C   LIG     1      15.866  35.567  21.134  1.00  0.00     0.271 C 
BRANCH   8   9
HETATM    9  N   LIG     1      14.416  35.694  21.239  1.00  0.00     0.078 N 
HETATM   10  H   LIG     1      13.981  35.112  20.486  1.00  0.00     0.312 HD
HETATM   11  H   LIG     1      14.167  36.686  21.027  1.00  0.00     0.312 HD
ENDBRANCH   8   9
ENDBRANCH   7   8
ENDBRANCH   1   7
BRANCH   4  12
HETATM   12  O   LIG     1      20.591  39.433  19.113  1.00  0.00    -0.361 OA
HETATM   13  H   LIG     1      21.118  40.183  19.544  1.00  0.00     0.217 HD
ENDBRANCH   4  12
TORSDOF 4
ENDMDL
MODEL 3
REMARK VINA RESULT:      -6.3      3.343      4.615
REMARK  4 active torsions:
REMARK  status: ('A' for Active; 'I' for Inactive)
REMARK    1  A    between atoms: N_1  and  C_2 
REMARK    2  A    between atoms: C_2  and  C_3 
REMARK    3  A    between atoms: C_3  and  C_4 
REMARK    4  A    between atoms: C_7  and  O_8 
ROOT
HETATM    1  C   LIG     1      18.230  37.647  20.710  1.00  0.00    -0.056 A 
HETATM    2  C   LIG     1      18.057  38.870  21.380  1.00  0.00     0.010 A 
HETATM    3  C   LIG     1      17.096  38.994  22.387  1.00  0.00     0.037 A 
HETATM    4  C   LIG     1      16.294  37.902  22.733  1.00  0.00     0.065 A 
HETATM    5  C   LIG     1      16.458  36.680  22.066  1.00  0.00     0.037 A 
HETATM    6  C   LIG     1      17.419  36.553  21.059  1.00  0.00     0.010 A 
ENDROOT
BRANCH   1   7
HETATM    7  C   LIG     1      19.265  37.517  19.621  1.00  0.00     0.068 C 
BRANCH   7   8
HETATM    8  C   LIG     1      20.240  38.697  19.643  1.00  0.00     0.271 C 
BRANCH   8   9
HETATM    9  N   LIG     1      20.126  39.466  18.408  1.00  0.00     0.078 N 
HETATM   10  H   LIG     1      19.566  40.326  18.609  1.00  0.00     0.312 HD
HETATM   11  H   LIG     1      19.566  38.900  17.732  1.00  0.00     0.312 HD
ENDBRANCH   8   9
ENDBRANCH   7   8
ENDBRANCH   1   7
BRANCH   4  12
HETATM   12  O   LIG     1      15.340  38.039  23.738  1.00  0.00    -0.361 OA
HETATM   13  H   LIG     1      14.809  38.895  23.850  1.00  0.00     0.217 HD
ENDBRANCH   4  12
TORSDOF 4
ENDMDL
MODEL 4
REMARK VINA RESULT:      -6.2      3.389      4.378
REMARK  4 active torsions:
REMARK  status: ('A' for Active; 'I' for Inactive)
REMARK    1  A    between atoms: N_1  and  C_2 
REMARK    2  A    between atoms: C_2  and  C_3 
REMARK    3  A    between atoms: C_3  and  C_4 
REMARK    4  A    between atoms: C_7  and  O_8 
ROOT
HETATM    1  C   LIG     1      18.217  37.622  20.700  1.00  0.00    -0.056 A 
HETATM    2  C   LIG     1      17.458  36.521  21.135  1.00  0.00     0.010 A 
HETATM    3  C   LIG     1      16.609  36.642  22.238  1.00  0.00     0.037 A 
HETATM    4  C   LIG     1      16.509  37.859  22.920  1.00  0.00     0.065 A 
HETATM    5  C   LIG     1      17.265  38.959  22.494  1.00  0.00     0.037 A 
HETATM    6  C   LIG     1      18.116  38.841  21.391  1.00  0.00     0.010 A 
ENDROOT
BRANCH   1   7
HETATM    7  C   LIG     1      19.136  37.488  19.512  1.00  0.00     0.068 C 
BRANCH   7   8
HETATM    8  C   LIG     1      19.212  38.798  18.723  1.00  0.00     0.271 C 
BRANCH   8   9
HETATM    9  N   LIG     1      20.549  39.373  18.831  1.00  0.00     0.078 N 
HETATM   10  H   LIG     1      20.479  40.264  19.375  1.00  0.00     0.312 HD
HETATM   11  H   LIG     1      20.859  39.639  17.869  1.00  0.00     0.312 HD
ENDBRANCH   8   9
ENDBRANCH   7   8
ENDBRANCH   1   7
BRANCH   4  12
HETATM   12  O   LIG     1      15.658  37.965  24.018  1.00  0.00    -0.361 OA
HETATM   13  H   LIG     1      15.664  38.783  24.616  1.00  0.00     0.217 HD
ENDBRANCH   4  12
TORSDOF 4
ENDMDL
MODEL 5
REMARK VINA RESULT:      -6.1      1.111      1.996
REMARK  4 active torsions:
REMARK  status: ('A' for Active; 'I' for Inactive)
REMARK    1  A    between atoms: N_1  and  C_2 
REMARK    2  A    between atoms: C_2  and  C_3 
REMARK    3  A    between atoms: C_3  and  C_4 
REMARK    4  A    between atoms: C_7  and  O_8 
ROOT
HETATM    1  C   LIG     1      17.158  36.404  21.638  1.00  0.00    -0.056 A 
HETATM    2  C   LIG     1      17.115  37.601  22.373  1.00  0.00     0.010 A 
HETATM    3  C   LIG     1      17.822  38.724  21.936  1.00  0.00     0.037 A 
HETATM    4  C   LIG     1      18.583  38.664  20.763  1.00  0.00     0.065 A 
HETATM    5  C   LIG     1      18.633  37.473  20.028  1.00  0.00     0.037 A 
HETATM    6  C   LIG     1      17.926  36.348  20.463  1.00  0.00     0.010 A 
ENDROOT
BRANCH   1   7
HETATM    7  C   LIG     1      16.397  35.192  22.115  1.00  0.00     0.068 C 
BRANCH   7   8
HETATM    8  C   LIG     1      15.576  34.575  20.979  1.00  0.00     0.271 C 
BRANCH   8   9
HETATM    9  N   LIG     1      14.245  34.216  21.459  1.00  0.00     0.078 N 
HETATM   10  H   LIG     1      14.200  34.424  22.483  1.00  0.00     0.312 HD
HETATM   11  H   LIG     1      14.142  33.180  21.363  1.00  0.00     0.312 HD
ENDBRANCH   8   9
ENDBRANCH   7   8
ENDBRANCH   1   7
BRANCH   4  12
HETATM   12  O   LIG     1      19.283  39.791  20.339  1.00  0.00    -0.361 OA
HETATM   13  H   LIG     1      20.148  40.075  20.782  1.00  0.00     0.217 HD
ENDBRANCH   4  12
TORSDOF 4
ENDMDL
MODEL 6
REMARK VINA RESULT:      -6.1      3.522      4.184
REMARK  4 active torsions:
REMARK  status: ('A' for Active; 'I' for Inactive)
REMARK    1  A    between atoms: N_1  and  C_2 
REMARK    2  A    between atoms: C_2  and  C_3 
REMARK    3  A    between atoms: C_3  and  C_4 
REMARK    4  A    between atoms: C_7  and  O_8 
ROOT
HETATM    1  C   LIG     1      16.820  35.714  22.708  1.00  0.00    -0.056 A 
HETATM    2  C   LIG     1      17.150  35.196  23.973  1.00  0.00     0.010 A 
HETATM    3  C   LIG     1      17.384  36.057  25.048  1.00  0.00     0.037 A 
HETATM    4  C   LIG     1      17.297  37.442  24.874  1.00  0.00     0.065 A 
HETATM    5  C   LIG     1      16.972  37.965  23.616  1.00  0.00     0.037 A 
HETATM    6  C   LIG     1      16.737  37.106  22.537  1.00  0.00     0.010 A 
ENDROOT
BRANCH   1   7
HETATM    7  C   LIG     1      16.572  34.784  21.548  1.00  0.00     0.068 C 
BRANCH   7   8
HETATM    8  C   LIG     1      15.182  35.011  20.947  1.00  0.00     0.271 C 
BRANCH   8   9
HETATM    9  N   LIG     1      14.224  34.077  21.531  1.00  0.00     0.078 N 
HETATM   10  H   LIG     1      13.656  33.663  20.755  1.00  0.00     0.312 HD
HETATM   11  H   LIG     1      13.560  34.630  22.119  1.00  0.00     0.312 HD
ENDBRANCH   8   9
ENDBRANCH   7   8
ENDBRANCH   1   7
BRANCH   4  12
HETATM   12  O   LIG     1      17.533  38.288  25.956  1.00  0.00    -0.361 OA
HETATM   13  H   LIG     1      17.356  39.283  25.897  1.00  0.00     0.217 HD
ENDBRANCH   4  12
TORSDOF 4
ENDMDL
MODEL 7
REMARK VINA RESULT:      -5.7      2.628      3.162
REMARK  4 active torsions:
REMARK  status: ('A' for Active; 'I' for Inactive)
REMARK    1  A    between atoms: N_1  and  C_2 
REMARK    2  A    between atoms: C_2  and  C_3 
REMARK    3  A    between atoms: C_3  and  C_4 
REMARK    4  A    between atoms: C_7  and  O_8 
ROOT
HETATM    1  C   LIG     1      17.078  37.539  22.762  1.00  0.00    -0.056 A 
HETATM    2  C   LIG     1      16.867  36.281  22.173  1.00  0.00     0.010 A 
HETATM    3  C   LIG     1      17.436  35.977  20.933  1.00  0.00     0.037 A 
HETATM    4  C   LIG     1      18.219  36.925  20.267  1.00  0.00     0.065 A 
HETATM    5  C   LIG     1      18.431  38.183  20.847  1.00  0.00     0.037 A 
HETATM    6  C   LIG     1      17.863  38.490  22.087  1.00  0.00     0.010 A 
ENDROOT
BRANCH   1   7
HETATM    7  C   LIG     1      16.459  37.867  24.097  1.00  0.00     0.068 C 
BRANCH   7   8
HETATM    8  C   LIG     1      17.526  37.950  25.194  1.00  0.00     0.271 C 
BRANCH   8   9
HETATM    9  N   LIG     1      17.480  36.755  26.030  1.00  0.00     0.078 N 
HETATM   10  H   LIG     1      16.973  36.993  26.914  1.00  0.00     0.312 HD
HETATM   11  H   LIG     1      18.461  36.523  26.306  1.00  0.00     0.312 HD
ENDBRANCH   8   9
ENDBRANCH   7   8
ENDBRANCH   1   7
BRANCH   4  12
HETATM   12  O   LIG     1      18.781  36.609  19.032  1.00  0.00    -0.361 OA
HETATM   13  H   LIG     1      19.589  37.104  18.676  1.00  0.00     0.217 HD
ENDBRANCH   4  12
TORSDOF 4
ENDMDL
MODEL 8
REMARK VINA RESULT:      -5.7      8.110      9.711
REMARK  4 active torsions:
REMARK  status: ('A' for Active; 'I' for Inactive)
REMARK    1  A    between atoms: N_1  and  C_2 
REMARK    2  A    between atoms: C_2  and  C_3 
REMARK    3  A    between atoms: C_3  and  C_4 
REMARK    4  A    between atoms: C_7  and  O_8 
ROOT
HETATM    1  C   LIG     1      15.008  31.695  15.681  1.00  0.00    -0.056 A 
HETATM    2  C   LIG     1      13.749  31.369  16.214  1.00  0.00     0.010 A 
HETATM    3  C   LIG     1      12.978  30.357  15.636  1.00  0.00     0.037 A 
HETATM    4  C   LIG     1      13.453  29.661  14.518  1.00  0.00     0.065 A 
HETATM    5  C   LIG     1      14.705  29.984  13.980  1.00  0.00     0.037 A 
HETATM    6  C   LIG     1      15.479  30.996  14.556  1.00  0.00     0.010 A 
ENDROOT
BRANCH   1   7
HETATM    7  C   LIG     1      15.836  32.790  16.303  1.00  0.00     0.068 C 
BRANCH   7   8
HETATM    8  C   LIG     1      14.946  33.908  16.855  1.00  0.00     0.271 C 
BRANCH   8   9
HETATM    9  N   LIG     1      15.337  34.231  18.224  1.00  0.00     0.078 N 
HETATM   10  H   LIG     1      14.627  34.890  18.620  1.00  0.00     0.312 HD
HETATM   11  H   LIG     1      16.238  34.758  18.181  1.00  0.00     0.312 HD
ENDBRANCH   8   9
ENDBRANCH   7   8
ENDBRANCH   1   7
BRANCH   4  12
HETATM   12  O   LIG     1      12.674  28.655  13.952  1.00  0.00    -0.361 OA
HETATM   13  H   LIG     1      13.003  28.112  13.163  1.00  0.00     0.217 HD
ENDBRANCH   4  12
TORSDOF 4
ENDMDL
MODEL 9
REMARK VINA RESULT:      -5.7      3.391      4.701
REMARK  4 active torsions:
REMARK  status: ('A' for Active; 'I' for Inactive)
REMARK    1  A    between atoms: N_1  and  C_2 
REMARK    2  A    between atoms: C_2  and  C_3 
REMARK    3  A    between atoms: C_3  and  C_4 
REMARK    4  A    between atoms: C_7  and  O_8 
ROOT
HETATM    1  C   LIG     1      18.282  38.200  20.994  1.00  0.00    -0.056 A 
HETATM    2  C   LIG     1      17.475  38.362  22.133  1.00  0.00     0.010 A 
HETATM    3  C   LIG     1      16.657  37.318  22.572  1.00  0.00     0.037 A 
HETATM    4  C   LIG     1      16.633  36.103  21.880  1.00  0.00     0.065 A 
HETATM    5  C   LIG     1      17.434  35.935  20.742  1.00  0.00     0.037 A 
HETATM    6  C   LIG     1      18.253  36.978  20.300  1.00  0.00     0.010 A 
ENDROOT
BRANCH   1   7
HETATM    7  C   LIG     1      19.161  39.330  20.518  1.00  0.00     0.068 C 
BRANCH   7   8
HETATM    8  C   LIG     1      20.277  38.814  19.605  1.00  0.00     0.271 C 
BRANCH   8   9
HETATM    9  N   LIG     1      20.220  39.488  18.312  1.00  0.00     0.078 N 
HETATM   10  H   LIG     1      20.595  40.457  18.432  1.00  0.00     0.312 HD
HETATM   11  H   LIG     1      19.214  39.591  18.051  1.00  0.00     0.312 HD
ENDBRANCH   8   9
ENDBRANCH   7   8
ENDBRANCH   1   7
BRANCH   4  12
HETATM   12  O   LIG     1      15.814  35.070  22.330  1.00  0.00    -0.361 OA
HETATM   13  H   LIG     1      15.239  35.173  23.158  1.00  0.00     0.217 HD
ENDBRANCH   4  12
TORSDOF 4
ENDMDL
MODEL 10
REMARK VINA RESULT:      -5.6      7.943      9.371
REMARK  4 active torsions:
REMARK  status: ('A' for Active; 'I' for Inactive)
REMARK    1  A    between atoms: N_1  and  C_2 
REMARK    2  A    between atoms: C_2  and  C_3 
REMARK    3  A    between atoms: C_3  and  C_4 
REMARK    4  A    between atoms: C_7  and  O_8 
ROOT
HETATM    1  C   LIG     1      14.310  30.698  15.273  1.00  0.00    -0.056 A 
HETATM    2  C   LIG     1      13.512  30.920  16.409  1.00  0.00     0.010 A 
HETATM    3  C   LIG     1      13.816  31.960  17.292  1.00  0.00     0.037 A 
HETATM    4  C   LIG     1      14.919  32.786  17.055  1.00  0.00     0.065 A 
HETATM    5  C   LIG     1      15.721  32.568  15.926  1.00  0.00     0.037 A 
HETATM    6  C   LIG     1      15.420  31.528  15.041  1.00  0.00     0.010 A 
ENDROOT
BRANCH   1   7
HETATM    7  C   LIG     1      13.983  29.573  14.324  1.00  0.00     0.068 C 
BRANCH   7   8
HETATM    8  C   LIG     1      15.250  28.826  13.897  1.00  0.00     0.271 C 
BRANCH   8   9
HETATM    9  N   LIG     1      14.896  27.604  13.183  1.00  0.00     0.078 N 
HETATM   10  H   LIG     1      15.346  26.796  13.673  1.00  0.00     0.312 HD
HETATM   11  H   LIG     1      15.331  27.653  12.234  1.00  0.00     0.312 HD
ENDBRANCH   8   9
ENDBRANCH   7   8
ENDBRANCH   1   7
BRANCH   4  12
HETATM   12  O   LIG     1      15.210  33.818  17.943  1.00  0.00    -0.361 OA
HETATM   13  H   LIG     1      15.898  34.528  17.723  1.00  0.00     0.217 HD
ENDBRANCH   4  12
TORSDOF 4
ENDMDL
MODEL 11
REMARK VINA RESULT:      -5.5      3.900      4.867
REMARK  4 active torsions:
REMARK  status: ('A' for Active; 'I' for Inactive)
REMARK    1  A    between atoms: N_1  and  C_2 
REMARK    2  A    between atoms: C_2  and  C_3 
REMARK    3  A    between atoms: C_3  and  C_4 
REMARK    4  A    between atoms: C_7  and  O_8 
ROOT
HETATM    1  C   LIG     1      16.840  36.420  23.228  1.00  0.00    -0.056 A 
HETATM    2  C   LIG     1      17.038  35.172  23.844  1.00  0.00     0.010 A 
HETATM    3  C   LIG     1      17.568  35.097  25.135  1.00  0.00     0.037 A 
HETATM    4  C   LIG     1      17.911  36.265  25.823  1.00  0.00     0.065 A 
HETATM    5  C   LIG     1      17.721  37.513  25.214  1.00  0.00     0.037 A 
HETATM    6  C   LIG     1      17.190  37.590  23.923  1.00  0.00     0.010 A 
ENDROOT
BRANCH   1   7
HETATM    7  C   LIG     1      16.272  36.498  21.834  1.00  0.00     0.068 C 
BRANCH   7   8
HETATM    8  C   LIG     1      17.222  35.863  20.814  1.00  0.00     0.271 C 
BRANCH   8   9
HETATM    9  N   LIG     1      18.217  36.839  20.381  1.00  0.00     0.078 N 
HETATM   10  H   LIG     1      17.720  37.617  19.890  1.00  0.00     0.312 HD
HETATM   11  H   LIG     1      18.824  36.378  19.666  1.00  0.00     0.312 HD
ENDBRANCH   8   9
ENDBRANCH   7   8
ENDBRANCH   1   7
BRANCH   4  12
HETATM   12  O   LIG     1      18.439  36.176  27.109  1.00  0.00    -0.361 OA
HETATM   13  H   LIG     1      18.725  37.001  27.622  1.00  0.00     0.217 HD
ENDBRANCH   4  12
TORSDOF 4
ENDMDL
MODEL 12
REMARK VINA RESULT:      -5.3      3.204      4.144
REMARK  4 active torsions:
REMARK  status: ('A' for Active; 'I' for Inactive)
REMARK    1  A    between atoms: N_1  and  C_2 
REMARK    2  A    between atoms: C_2  and  C_3 
REMARK    3  A    between atoms: C_3  and  C_4 
REMARK    4  A    between atoms: C_7  and  O_8 
ROOT
HETATM    1  C   LIG     1      17.086  37.610  22.208  1.00  0.00    -0.056 A 
HETATM    2  C   LIG     1      17.919  37.241  21.137  1.00  0.00     0.010 A 
HETATM    3  C   LIG     1      17.538  36.216  20.267  1.00  0.00     0.037 A 
HETATM    4  C   LIG     1      16.325  35.547  20.457  1.00  0.00     0.065 A 
HETATM    5  C   LIG     1      15.491  35.908  21.524  1.00  0.00     0.037 A 
HETATM    6  C   LIG     1      15.870  36.932  22.396  1.00  0.00     0.010 A 
ENDROOT
BRANCH   1   7
HETATM    7  C   LIG     1      17.502  38.713  23.148  1.00  0.00     0.068 C 
BRANCH   7   8
HETATM    8  C   LIG     1      18.049  38.143  24.460  1.00  0.00     0.271 C 
BRANCH   8   9
HETATM    9  N   LIG     1      17.235  38.596  25.583  1.00  0.00     0.078 N 
HETATM   10  H   LIG     1      16.234  38.606  25.278  1.00  0.00     0.312 HD
HETATM   11  H   LIG     1      17.492  39.589  25.782  1.00  0.00     0.312 HD
ENDBRANCH   8   9
ENDBRANCH   7   8
ENDBRANCH   1   7
BRANCH   4  12
HETATM   12  O   LIG     1      15.957  34.527  19.582  1.00  0.00    -0.361 OA
HETATM   13  H   LIG     1      15.006  34.180  19.543  1.00  0.00     0.217 HD
ENDBRANCH   4  12
TORSDOF 4
ENDMDL
MODEL 13
REMARK VINA RESULT:      -5.3      8.615     10.102
REMARK  4 active torsions:
REMARK  status: ('A' for Active; 'I' for Inactive)
REMARK    1  A    between atoms: N_1  and  C_2 
REMARK    2  A    between atoms: C_2  and  C_3 
REMARK    3  A    between atoms: C_3  and  C_4 
REMARK    4  A    between atoms: C_7  and  O_8 
ROOT
HETATM    1  C   LIG     1      15.010  31.542  15.489  1.00  0.00    -0.056 A 
HETATM    2  C   LIG     1      15.460  30.771  14.403  1.00  0.00     0.010 A 
HETATM    3  C   LIG     1      14.662  29.747  13.886  1.00  0.00     0.037 A 
HETATM    4  C   LIG     1      13.409  29.478  14.448  1.00  0.00     0.065 A 
HETATM    5  C   LIG     1      12.956  30.241  15.532  1.00  0.00     0.037 A 
HETATM    6  C   LIG     1      13.752  31.266  16.052  1.00  0.00     0.010 A 
ENDROOT
BRANCH   1   7
HETATM    7  C   LIG     1      15.874  32.644  16.047  1.00  0.00     0.068 C 
BRANCH   7   8
HETATM    8  C   LIG     1      17.086  32.904  15.149  1.00  0.00     0.271 C 
BRANCH   8   9
HETATM    9  N   LIG     1      17.432  34.322  15.169  1.00  0.00     0.078 N 
HETATM   10  H   LIG     1      17.167  34.736  14.245  1.00  0.00     0.312 HD
HETATM   11  H   LIG     1      18.472  34.394  15.238  1.00  0.00     0.312 HD
ENDBRANCH   8   9
ENDBRANCH   7   8
ENDBRANCH   1   7
BRANCH   4  12
HETATM   12  O   LIG     1      12.625  28.454  13.922  1.00  0.00    -0.361 OA
HETATM   13  H   LIG     1      11.813  28.650  13.349  1.00  0.00     0.217 HD
ENDBRANCH   4  12
TORSDOF 4
ENDMDL
MODEL 14
REMARK VINA RESULT:      -5.1      7.974      9.068
REMARK  4 active torsions:
REMARK  status: ('A' for Active; 'I' for Inactive)
REMARK    1  A    between atoms: N_1  and  C_2 
REMARK    2  A    between atoms: C_2  and  C_3 
REMARK    3  A    between atoms: C_3  and  C_4 
REMARK    4  A    between atoms: C_7  and  O_8 
ROOT
HETATM    1  C   LIG     1      15.236  30.999  14.519  1.00  0.00    -0.056 A 
HETATM    2  C   LIG     1      14.899  31.557  15.764  1.00  0.00     0.010 A 
HETATM    3  C   LIG     1      15.447  32.778  16.163  1.00  0.00     0.037 A 
HETATM    4  C   LIG     1      16.340  33.456  15.326  1.00  0.00     0.065 A 
HETATM    5  C   LIG     1      16.683  32.904  14.084  1.00  0.00     0.037 A 
HETATM    6  C   LIG     1      16.136  31.682  13.683  1.00  0.00     0.010 A 
ENDROOT
BRANCH   1   7
HETATM    7  C   LIG     1      14.646  29.679  14.093  1.00  0.00     0.068 C 
BRANCH   7   8
HETATM    8  C   LIG     1      13.186  29.557  14.539  1.00  0.00     0.271 C 
BRANCH   8   9
HETATM    9  N   LIG     1      12.525  28.483  13.804  1.00  0.00     0.078 N 
HETATM   10  H   LIG     1      11.979  27.908  14.486  1.00  0.00     0.312 HD
HETATM   11  H   LIG     1      13.267  27.858  13.417  1.00  0.00     0.312 HD
ENDBRANCH   8   9
ENDBRANCH   7   8
ENDBRANCH   1   7
BRANCH   4  12
HETATM   12  O   LIG     1      16.879  34.673  15.735  1.00  0.00    -0.361 OA
HETATM   13  H   LIG     1      16.378  35.544  15.606  1.00  0.00     0.217 HD
ENDBRANCH   4  12
TORSDOF 4
ENDMDL
MODEL 15
REMARK VINA RESULT:      -5.0      8.186      9.438
REMARK  4 active torsions:
REMARK  status: ('A' for Active; 'I' for Inactive)
REMARK    1  A    between atoms: N_1  and  C_2 
REMARK    2  A    between atoms: C_2  and  C_3 
REMARK    3  A    between atoms: C_3  and  C_4 
REMARK    4  A    between atoms: C_7  and  O_8 
ROOT
HETATM    1  C   LIG     1      16.095  32.109  15.392  1.00  0.00    -0.056 A 
HETATM    2  C   LIG     1      15.401  32.599  16.512  1.00  0.00     0.010 A 
HETATM    3  C   LIG     1      14.182  32.031  16.891  1.00  0.00     0.037 A 
HETATM    4  C   LIG     1      13.640  30.971  16.155  1.00  0.00     0.065 A 
HETATM    5  C   LIG     1      14.325  30.480  15.036  1.00  0.00     0.037 A 
HETATM    6  C   LIG     1      15.545  31.047  14.654  1.00  0.00     0.010 A 
ENDROOT
BRANCH   1   7
HETATM    7  C   LIG     1      17.408  32.727  14.982  1.00  0.00     0.068 C 
BRANCH   7   8
HETATM    8  C   LIG     1      17.218  33.710  13.823  1.00  0.00     0.271 C 
BRANCH   8   9
HETATM    9  N   LIG     1      17.689  33.114  12.577  1.00  0.00     0.078 N 
HETATM   10  H   LIG     1      17.916  33.888  11.910  1.00  0.00     0.312 HD
HETATM   11  H   LIG     1      16.892  32.586  12.155  1.00  0.00     0.312 HD
ENDBRANCH   8   9
ENDBRANCH   7   8
ENDBRANCH   1   7
BRANCH   4  12
HETATM   12  O   LIG     1      12.424  30.414  16.545  1.00  0.00    -0.361 OA
HETATM   13  H   LIG     1      11.553  30.682  16.102  1.00  0.00     0.217 HD
ENDBRANCH   4  12
TORSDOF 4
ENDMDL
MODEL 16
REMARK VINA RESULT:      -5.0      3.586      5.054
REMARK  4 active torsions:
REMARK  status: ('A' for Active; 'I' for Inactive)
REMARK    1  A    between atoms: N_1  and  C_2 
REMARK    2  A    between atoms: C_2  and  C_3 
REMARK    3  A    between atoms: C_3  and  C_4 
REMARK    4  A    between atoms: C_7  and  O_8 
ROOT
HETATM    1  C   LIG     1      17.429  36.297  20.669  1.00  0.00    -0.056 A 
HETATM    2  C   LIG     1      17.112  35.983  22.002  1.00  0.00     0.010 A 
HETATM    3  C   LIG     1      16.056  35.114  22.290  1.00  0.00     0.037 A 
HETATM    4  C   LIG     1      15.304  34.552  21.254  1.00  0.00     0.065 A 
HETATM    5  C   LIG     1      15.613  34.863  19.923  1.00  0.00     0.037 A 
HETATM    6  C   LIG     1      16.668  35.732  19.632  1.00  0.00     0.010 A 
ENDROOT
BRANCH   1   7
HETATM    7  C   LIG     1      18.565  37.239  20.360  1.00  0.00     0.068 C 
BRANCH   7   8
HETATM    8  C   LIG     1      18.362  38.593  21.047  1.00  0.00     0.271 C 
BRANCH   8   9
HETATM    9  N   LIG     1      19.237  39.596  20.449  1.00  0.00     0.078 N 
HETATM   10  H   LIG     1      20.078  39.108  20.062  1.00  0.00     0.312 HD
HETATM   11  H   LIG     1      19.582  40.215  21.216  1.00  0.00     0.312 HD
ENDBRANCH   8   9
ENDBRANCH   7   8
ENDBRANCH   1   7
BRANCH   4  12
HETATM   12  O   LIG     1      14.255  33.686  21.556  1.00  0.00    -0.361 OA
HETATM   13  H   LIG     1      13.535  33.471  20.877  1.00  0.00     0.217 HD
ENDBRANCH   4  12
TORSDOF 4
ENDMDL
MODEL 17
REMARK VINA RESULT:      -5.0      2.759      3.647
REMARK  4 active torsions:
REMARK  status: ('A' for Active; 'I' for Inactive)
REMARK    1  A    between atoms: N_1  and  C_2 
REMARK    2  A    between atoms: C_2  and  C_3 
REMARK    3  A    between atoms: C_3  and  C_4 
REMARK    4  A    between atoms: C_7  and  O_8 
ROOT
HETATM    1  C   LIG     1      17.239  37.004  21.540  1.00  0.00    -0.056 A 
HETATM    2  C   LIG     1      18.028  38.150  21.737  1.00  0.00     0.010 A 
HETATM    3  C   LIG     1      18.080  38.765  22.991  1.00  0.00     0.037 A 
HETATM    4  C   LIG     1      17.344  38.246  24.060  1.00  0.00     0.065 A 
HETATM    5  C   LIG     1      16.553  37.105  23.871  1.00  0.00     0.037 A 
HETATM    6  C   LIG     1      16.498  36.488  22.617  1.00  0.00     0.010 A 
ENDROOT
BRANCH   1   7
HETATM    7  C   LIG     1      17.181  36.345  20.186  1.00  0.00     0.068 C 
BRANCH   7   8
HETATM    8  C   LIG     1      16.196  35.171  20.185  1.00  0.00     0.271 C 
BRANCH   8   9
HETATM    9  N   LIG     1      15.704  34.930  18.832  1.00  0.00     0.078 N 
HETATM   10  H   LIG     1      14.749  35.349  18.752  1.00  0.00     0.312 HD
HETATM   11  H   LIG     1      15.584  33.898  18.717  1.00  0.00     0.312 HD
ENDBRANCH   8   9
ENDBRANCH   7   8
ENDBRANCH   1   7
BRANCH   4  12
HETATM   12  O   LIG     1      17.406  38.868  25.305  1.00  0.00    -0.361 OA
HETATM   13  H   LIG     1      16.689  38.722  26.006  1.00  0.00     0.217 HD
ENDBRANCH   4  12
TORSDOF 4
ENDMDL
MODEL 18
REMARK VINA RESULT:      -4.8      7.762      9.183
REMARK  4 active torsions:
REMARK  status: ('A' for Active; 'I' for Inactive)
REMARK    1  A    between atoms: N_1  and  C_2 
REMARK    2  A    between atoms: C_2  and  C_3 
REMARK    3  A    between atoms: C_3  and  C_4 
REMARK    4  A    between atoms: C_7  and  O_8 
ROOT
HETATM    1  C   LIG     1      15.375  31.618  14.838  1.00  0.00    -0.056 A 
HETATM    2  C   LIG     1      14.329  30.757  15.210  1.00  0.00     0.010 A 
HETATM    3  C   LIG     1      13.790  30.816  16.498  1.00  0.00     0.037 A 
HETATM    4  C   LIG     1      14.291  31.731  17.429  1.00  0.00     0.065 A 
HETATM    5  C   LIG     1      15.336  32.591  17.066  1.00  0.00     0.037 A 
HETATM    6  C   LIG     1      15.877  32.534  15.778  1.00  0.00     0.010 A 
ENDROOT
BRANCH   1   7
HETATM    7  C   LIG     1      15.958  31.550  13.449  1.00  0.00     0.068 C 
BRANCH   7   8
HETATM    8  C   LIG     1      16.468  32.922  12.997  1.00  0.00     0.271 C 
BRANCH   8   9
HETATM    9  N   LIG     1      17.858  32.823  12.565  1.00  0.00     0.078 N 
HETATM   10  H   LIG     1      18.423  33.505  13.122  1.00  0.00     0.312 HD
HETATM   11  H   LIG     1      17.905  33.142  11.571  1.00  0.00     0.312 HD
ENDBRANCH   8   9
ENDBRANCH   7   8
ENDBRANCH   1   7
BRANCH   4  12
HETATM   12  O   LIG     1      13.744  31.779  18.710  1.00  0.00    -0.361 OA
HETATM   13  H   LIG     1      13.128  31.051  19.050  1.00  0.00     0.217 HD
ENDBRANCH   4  12
TORSDOF 4
ENDMDL
MODEL 19
REMARK VINA RESULT:      -4.3      4.235      5.928
REMARK  4 active torsions:
REMARK  status: ('A' for Active; 'I' for Inactive)
REMARK    1  A    between atoms: N_1  and  C_2 
REMARK    2  A    between atoms: C_2  and  C_3 
REMARK    3  A    between atoms: C_3  and  C_4 
REMARK    4  A    between atoms: C_7  and  O_8 
ROOT
HETATM    1  C   LIG     1      15.664  34.060  20.053  1.00  0.00    -0.056 A 
HETATM    2  C   LIG     1      15.572  34.783  18.851  1.00  0.00     0.010 A 
HETATM    3  C   LIG     1      15.191  34.142  17.669  1.00  0.00     0.037 A 
HETATM    4  C   LIG     1      14.902  32.774  17.673  1.00  0.00     0.065 A 
HETATM    5  C   LIG     1      14.995  32.046  18.867  1.00  0.00     0.037 A 
HETATM    6  C   LIG     1      15.375  32.685  20.051  1.00  0.00     0.010 A 
ENDROOT
BRANCH   1   7
HETATM    7  C   LIG     1      16.078  34.753  21.327  1.00  0.00     0.068 C 
BRANCH   7   8
HETATM    8  C   LIG     1      17.075  35.881  21.041  1.00  0.00     0.271 C 
BRANCH   8   9
HETATM    9  N   LIG     1      16.901  36.961  22.007  1.00  0.00     0.078 N 
HETATM   10  H   LIG     1      17.844  37.352  22.235  1.00  0.00     0.312 HD
HETATM   11  H   LIG     1      16.534  36.541  22.891  1.00  0.00     0.312 HD
ENDBRANCH   8   9
ENDBRANCH   7   8
ENDBRANCH   1   7
BRANCH   4  12
HETATM   12  O   LIG     1      14.523  32.147  16.487  1.00  0.00    -0.361 OA
HETATM   13  H   LIG     1      15.033  31.351  16.123  1.00  0.00     0.217 HD
ENDBRANCH   4  12
TORSDOF 4
ENDMDL
MODEL 20
REMARK VINA RESULT:      -3.6     19.268     19.918
REMARK  4 active torsions:
REMARK  status: ('A' for Active; 'I' for Inactive)
REMARK    1  A    between atoms: N_1  and  C_2 
REMARK    2  A    between atoms: C_2  and  C_3 
REMARK    3  A    between atoms: C_3  and  C_4 
REMARK    4  A    between atoms: C_7  and  O_8 
ROOT
HETATM    1  C   LIG     1      15.001  19.326  13.527  1.00  0.00    -0.056 A 
HETATM    2  C   LIG     1      16.104  19.631  14.343  1.00  0.00     0.010 A 
HETATM    3  C   LIG     1      16.081  19.321  15.706  1.00  0.00     0.037 A 
HETATM    4  C   LIG     1      14.958  18.706  16.269  1.00  0.00     0.065 A 
HETATM    5  C   LIG     1      13.854  18.402  15.462  1.00  0.00     0.037 A 
HETATM    6  C   LIG     1      13.874  18.711  14.099  1.00  0.00     0.010 A 
ENDROOT
BRANCH   1   7
HETATM    7  C   LIG     1      15.026  19.666  12.058  1.00  0.00     0.068 C 
BRANCH   7   8
HETATM    8  C   LIG     1      16.278  20.471  11.700  1.00  0.00     0.271 C 
BRANCH   8   9
HETATM    9  N   LIG     1      15.927  21.582  10.822  1.00  0.00     0.078 N 
HETATM   10  H   LIG     1      15.819  21.211   9.850  1.00  0.00     0.312 HD
HETATM   11  H   LIG     1      16.740  22.239  10.799  1.00  0.00     0.312 HD
ENDBRANCH   8   9
ENDBRANCH   7   8
ENDBRANCH   1   7
BRANCH   4  12
HETATM   12  O   LIG     1      14.950  18.402  17.628  1.00  0.00    -0.361 OA
HETATM   13  H   LIG     1      14.942  17.443  17.956  1.00  0.00     0.217 HD
ENDBRANCH   4  12
TORSDOF 4
ENDMDL
