REMARK  4 active torsions:
REMARK  status: ('A' for Active; 'I' for Inactive)
REMARK    1  A    between atoms: N_1  and  C_2 
REMARK    2  A    between atoms: C_2  and  C_3 
REMARK    3  A    between atoms: C_3  and  C_4 
REMARK    4  A    between atoms: C_7  and  O_8 
ROOT
HETATM    1  C   LIG     1      -0.056  -0.344   0.248  1.00  0.00    -0.056 A 
HETATM    2  C   LIG     1      -0.514  -0.817  -0.994  1.00  0.00     0.010 A 
HETATM    3  C   LIG     1      -1.852  -0.653  -1.362  1.00  0.00     0.037 A 
HETATM    4  C   LIG     1      -2.748  -0.019  -0.495  1.00  0.00     0.065 A 
HETATM    5  C   LIG     1      -2.299   0.452   0.746  1.00  0.00     0.037 A 
HETATM    6  C   LIG     1      -0.961   0.289   1.117  1.00  0.00     0.010 A 
ENDROOT
BRANCH   1   7
HETATM    7  C   LIG     1       1.387  -0.526   0.645  1.00  0.00     0.068 C 
BRANCH   7   8
HETATM    8  C   LIG     1       2.305   0.379  -0.182  1.00  0.00     0.271 C 
BRANCH   8   9
HETATM    9  N   LIG     1       3.694   0.192   0.225  1.00  0.00     0.078 N 
HETATM   10  H   LIG     1       3.812   0.598   1.182  1.00  0.00     0.312 HD
HETATM   11  H   LIG     1       4.292   0.763  -0.414  1.00  0.00     0.312 HD
ENDBRANCH   8   9
ENDBRANCH   7   8
ENDBRANCH   1   7
BRANCH   4  12
HETATM   12  O   LIG     1      -4.079   0.138  -0.875  1.00  0.00    -0.361 OA
HETATM   13  H   LIG     1      -4.752   0.593  -0.270  1.00  0.00     0.217 HD
ENDBRANCH   4  12
TORSDOF 4
