REMARK  2 active torsions:
REMARK  status: ('A' for Active; 'I' for Inactive)
REMARK       I    between atoms: N_1  and  C_2 
REMARK    1  A    between atoms: C_2  and  O_3 
REMARK    2  A    between atoms: O_3  and  C_4 
ROOT
HETATM    1  N   LIG     1       2.406   0.729   0.704  1.00  0.00    -0.346 N 
HETATM    2  C   LIG     1       1.312  -0.029   0.196  1.00  0.00     0.358 C 
HETATM    3  O   LIG     1       1.493  -0.814  -0.773  1.00  0.00    -0.239 OA
HETATM    4  H   LIG     1       3.355   0.641   0.278  1.00  0.00     0.161 HD
HETATM    5  H   LIG     1       2.265   1.381   1.508  1.00  0.00     0.161 HD
ENDROOT
BRANCH   2   6
HETATM    6  O   LIG     1       0.050   0.103   0.786  1.00  0.00    -0.305 OA
BRANCH   6   7
HETATM    7  C   LIG     1      -1.111  -0.582   0.319  1.00  0.00     0.176 C 
HETATM    8  C   LIG     1      -1.645   0.068  -0.953  1.00  0.00     0.034 C 
ENDBRANCH   6   7
ENDBRANCH   2   6
TORSDOF 2
