MODEL 1
REMARK VINA RESULT:      -4.3      0.000      0.000
REMARK  2 active torsions:
REMARK  status: ('A' for Active; 'I' for Inactive)
REMARK       I    between atoms: N_1  and  C_2 
REMARK    1  A    between atoms: C_2  and  O_3 
REMARK    2  A    between atoms: O_3  and  C_4 
ROOT
HETATM    1  N   LIG     1      17.357  38.588  25.707  1.00  0.00    -0.346 N 
HETATM    2  C   LIG     1      16.886  37.649  24.745  1.00  0.00     0.358 C 
HETATM    3  O   LIG     1      15.832  37.893  24.099  1.00  0.00    -0.239 OA
HETATM    4  H   LIG     1      16.834  39.474  25.883  1.00  0.00     0.161 HD
HETATM    5  H   LIG     1      18.231  38.394  26.246  1.00  0.00     0.161 HD
ENDROOT
BRANCH   2   6
HETATM    6  O   LIG     1      17.606  36.470  24.524  1.00  0.00    -0.305 OA
BRANCH   6   7
HETATM    7  C   LIG     1      17.287  35.226  25.145  1.00  0.00     0.176 C 
HETATM    8  C   LIG     1      18.253  34.931  26.288  1.00  0.00     0.034 C 
ENDBRANCH   6   7
ENDBRANCH   2   6
TORSDOF 2
ENDMDL
MODEL 2
REMARK VINA RESULT:      -3.8      2.390      3.521
REMARK  2 active torsions:
REMARK  status: ('A' for Active; 'I' for Inactive)
REMARK       I    between atoms: N_1  and  C_2 
REMARK    1  A    between atoms: C_2  and  O_3 
REMARK    2  A    between atoms: O_3  and  C_4 
ROOT
HETATM    1  N   LIG     1      17.664  38.128  25.740  1.00  0.00    -0.346 N 
HETATM    2  C   LIG     1      17.148  38.178  24.413  1.00  0.00     0.358 C 
HETATM    3  O   LIG     1      15.923  37.961  24.211  1.00  0.00    -0.239 OA
HETATM    4  H   LIG     1      17.036  37.911  26.545  1.00  0.00     0.161 HD
HETATM    5  H   LIG     1      18.678  38.307  25.917  1.00  0.00     0.161 HD
ENDROOT
BRANCH   2   6
HETATM    6  O   LIG     1      18.009  38.474  23.350  1.00  0.00    -0.305 OA
BRANCH   6   7
HETATM    7  C   LIG     1      17.553  38.840  22.049  1.00  0.00     0.176 C 
HETATM    8  C   LIG     1      18.720  39.285  21.175  1.00  0.00     0.034 C 
ENDBRANCH   6   7
ENDBRANCH   2   6
TORSDOF 2
ENDMDL
MODEL 3
REMARK VINA RESULT:      -3.8      1.934      2.134
REMARK  2 active torsions:
REMARK  status: ('A' for Active; 'I' for Inactive)
REMARK       I    between atoms: N_1  and  C_2 
REMARK    1  A    between atoms: C_2  and  O_3 
REMARK    2  A    between atoms: O_3  and  C_4 
ROOT
HETATM    1  N   LIG     1      15.233  38.267  23.137  1.00  0.00    -0.346 N 
HETATM    2  C   LIG     1      16.342  37.524  23.634  1.00  0.00     0.358 C 
HETATM    3  O   LIG     1      17.033  36.829  22.842  1.00  0.00    -0.239 OA
HETATM    4  H   LIG     1      14.988  38.239  22.123  1.00  0.00     0.161 HD
HETATM    5  H   LIG     1      14.655  38.847  23.787  1.00  0.00     0.161 HD
ENDROOT
BRANCH   2   6
HETATM    6  O   LIG     1      16.653  37.580  24.998  1.00  0.00    -0.305 OA
BRANCH   6   7
HETATM    7  C   LIG     1      17.987  37.546  25.501  1.00  0.00     0.176 C 
HETATM    8  C   LIG     1      18.185  36.348  26.423  1.00  0.00     0.034 C 
ENDBRANCH   6   7
ENDBRANCH   2   6
TORSDOF 2
ENDMDL
MODEL 4
REMARK VINA RESULT:      -3.7      2.694      3.033
REMARK  2 active torsions:
REMARK  status: ('A' for Active; 'I' for Inactive)
REMARK       I    between atoms: N_1  and  C_2 
REMARK    1  A    between atoms: C_2  and  O_3 
REMARK    2  A    between atoms: O_3  and  C_4 
ROOT
HETATM    1  N   LIG     1      15.178  38.204  23.129  1.00  0.00    -0.346 N 
HETATM    2  C   LIG     1      16.376  37.727  23.734  1.00  0.00     0.358 C 
HETATM    3  O   LIG     1      16.790  38.255  24.801  1.00  0.00    -0.239 OA
HETATM    4  H   LIG     1      14.643  38.989  23.560  1.00  0.00     0.161 HD
HETATM    5  H   LIG     1      14.827  37.770  22.246  1.00  0.00     0.161 HD
ENDROOT
BRANCH   2   6
HETATM    6  O   LIG     1      17.075  36.670  23.140  1.00  0.00    -0.305 OA
BRANCH   6   7
HETATM    7  C   LIG     1      17.016  36.376  21.745  1.00  0.00     0.176 C 
HETATM    8  C   LIG     1      16.561  34.938  21.516  1.00  0.00     0.034 C 
ENDBRANCH   6   7
ENDBRANCH   2   6
TORSDOF 2
ENDMDL
MODEL 5
REMARK VINA RESULT:      -3.6      9.289      9.716
REMARK  2 active torsions:
REMARK  status: ('A' for Active; 'I' for Inactive)
REMARK       I    between atoms: N_1  and  C_2 
REMARK    1  A    between atoms: C_2  and  O_3 
REMARK    2  A    between atoms: O_3  and  C_4 
ROOT
HETATM    1  N   LIG     1      14.380  31.725  20.212  1.00  0.00    -0.346 N 
HETATM    2  C   LIG     1      14.634  31.818  18.814  1.00  0.00     0.358 C 
HETATM    3  O   LIG     1      15.563  32.561  18.397  1.00  0.00    -0.239 OA
HETATM    4  H   LIG     1      14.955  32.268  20.893  1.00  0.00     0.161 HD
HETATM    5  H   LIG     1      13.613  31.110  20.567  1.00  0.00     0.161 HD
ENDROOT
BRANCH   2   6
HETATM    6  O   LIG     1      13.852  31.078  17.921  1.00  0.00    -0.305 OA
BRANCH   6   7
HETATM    7  C   LIG     1      13.328  31.611  16.706  1.00  0.00     0.176 C 
HETATM    8  C   LIG     1      13.177  30.515  15.657  1.00  0.00     0.034 C 
ENDBRANCH   6   7
ENDBRANCH   2   6
TORSDOF 2
ENDMDL
MODEL 6
REMARK VINA RESULT:      -3.5      5.217      5.883
REMARK  2 active torsions:
REMARK  status: ('A' for Active; 'I' for Inactive)
REMARK       I    between atoms: N_1  and  C_2 
REMARK    1  A    between atoms: C_2  and  O_3 
REMARK    2  A    between atoms: O_3  and  C_4 
ROOT
HETATM    1  N   LIG     1      19.271  37.509  19.532  1.00  0.00    -0.346 N 
HETATM    2  C   LIG     1      19.573  38.870  19.824  1.00  0.00     0.358 C 
HETATM    3  O   LIG     1      20.534  39.436  19.237  1.00  0.00    -0.239 OA
HETATM    4  H   LIG     1      19.841  36.977  18.837  1.00  0.00     0.161 HD
HETATM    5  H   LIG     1      18.476  37.033  20.013  1.00  0.00     0.161 HD
ENDROOT
BRANCH   2   6
HETATM    6  O   LIG     1      18.793  39.564  20.756  1.00  0.00    -0.305 OA
BRANCH   6   7
HETATM    7  C   LIG     1      18.577  39.112  22.091  1.00  0.00     0.176 C 
HETATM    8  C   LIG     1      17.094  38.861  22.342  1.00  0.00     0.034 C 
ENDBRANCH   6   7
ENDBRANCH   2   6
TORSDOF 2
ENDMDL
MODEL 7
REMARK VINA RESULT:      -3.4      6.685      7.084
REMARK  2 active torsions:
REMARK  status: ('A' for Active; 'I' for Inactive)
REMARK       I    between atoms: N_1  and  C_2 
REMARK    1  A    between atoms: C_2  and  O_3 
REMARK    2  A    between atoms: O_3  and  C_4 
ROOT
HETATM    1  N   LIG     1      14.409  31.531  19.853  1.00  0.00    -0.346 N 
HETATM    2  C   LIG     1      15.262  32.605  19.468  1.00  0.00     0.358 C 
HETATM    3  O   LIG     1      15.603  32.730  18.261  1.00  0.00    -0.239 OA
HETATM    4  H   LIG     1      14.066  30.846  19.143  1.00  0.00     0.161 HD
HETATM    5  H   LIG     1      14.121  31.420  20.851  1.00  0.00     0.161 HD
ENDROOT
BRANCH   2   6
HETATM    6  O   LIG     1      15.706  33.512  20.436  1.00  0.00    -0.305 OA
BRANCH   6   7
HETATM    7  C   LIG     1      15.782  34.920  20.218  1.00  0.00     0.176 C 
HETATM    8  C   LIG     1      15.015  35.675  21.297  1.00  0.00     0.034 C 
ENDBRANCH   6   7
ENDBRANCH   2   6
TORSDOF 2
ENDMDL
MODEL 8
REMARK VINA RESULT:      -3.4      9.792     10.081
REMARK  2 active torsions:
REMARK  status: ('A' for Active; 'I' for Inactive)
REMARK       I    between atoms: N_1  and  C_2 
REMARK    1  A    between atoms: C_2  and  O_3 
REMARK    2  A    between atoms: O_3  and  C_4 
ROOT
HETATM    1  N   LIG     1      14.011  32.694  17.603  1.00  0.00    -0.346 N 
HETATM    2  C   LIG     1      15.059  33.361  16.904  1.00  0.00     0.358 C 
HETATM    3  O   LIG     1      14.962  34.593  16.662  1.00  0.00    -0.239 OA
HETATM    4  H   LIG     1      13.164  33.219  17.913  1.00  0.00     0.161 HD
HETATM    5  H   LIG     1      14.084  31.672  17.809  1.00  0.00     0.161 HD
ENDROOT
BRANCH   2   6
HETATM    6  O   LIG     1      16.187  32.637  16.501  1.00  0.00    -0.305 OA
BRANCH   6   7
HETATM    7  C   LIG     1      16.508  32.378  15.136  1.00  0.00     0.176 C 
HETATM    8  C   LIG     1      15.558  31.342  14.546  1.00  0.00     0.034 C 
ENDBRANCH   6   7
ENDBRANCH   2   6
TORSDOF 2
ENDMDL
MODEL 9
REMARK VINA RESULT:      -3.4      4.213      4.652
REMARK  2 active torsions:
REMARK  status: ('A' for Active; 'I' for Inactive)
REMARK       I    between atoms: N_1  and  C_2 
REMARK    1  A    between atoms: C_2  and  O_3 
REMARK    2  A    between atoms: O_3  and  C_4 
ROOT
HETATM    1  N   LIG     1      14.385  35.646  21.147  1.00  0.00    -0.346 N 
HETATM    2  C   LIG     1      15.770  35.404  20.919  1.00  0.00     0.358 C 
HETATM    3  O   LIG     1      16.176  35.154  19.752  1.00  0.00    -0.239 OA
HETATM    4  H   LIG     1      13.704  35.614  20.357  1.00  0.00     0.161 HD
HETATM    5  H   LIG     1      14.040  35.855  22.111  1.00  0.00     0.161 HD
ENDROOT
BRANCH   2   6
HETATM    6  O   LIG     1      16.665  35.456  21.994  1.00  0.00    -0.305 OA
BRANCH   6   7
HETATM    7  C   LIG     1      16.882  36.627  22.779  1.00  0.00     0.176 C 
HETATM    8  C   LIG     1      17.366  37.780  21.906  1.00  0.00     0.034 C 
ENDBRANCH   6   7
ENDBRANCH   2   6
TORSDOF 2
ENDMDL
MODEL 10
REMARK VINA RESULT:      -3.3      5.618      6.010
REMARK  2 active torsions:
REMARK  status: ('A' for Active; 'I' for Inactive)
REMARK       I    between atoms: N_1  and  C_2 
REMARK    1  A    between atoms: C_2  and  O_3 
REMARK    2  A    between atoms: O_3  and  C_4 
ROOT
HETATM    1  N   LIG     1      14.359  35.496  21.200  1.00  0.00    -0.346 N 
HETATM    2  C   LIG     1      15.610  34.815  21.199  1.00  0.00     0.358 C 
HETATM    3  O   LIG     1      16.381  34.925  22.190  1.00  0.00    -0.239 OA
HETATM    4  H   LIG     1      14.078  36.087  22.013  1.00  0.00     0.161 HD
HETATM    5  H   LIG     1      13.713  35.409  20.383  1.00  0.00     0.161 HD
ENDROOT
BRANCH   2   6
HETATM    6  O   LIG     1      15.964  34.025  20.100  1.00  0.00    -0.305 OA
BRANCH   6   7
HETATM    7  C   LIG     1      15.485  32.696  19.901  1.00  0.00     0.176 C 
HETATM    8  C   LIG     1      15.115  32.470  18.439  1.00  0.00     0.034 C 
ENDBRANCH   6   7
ENDBRANCH   2   6
TORSDOF 2
ENDMDL
MODEL 11
REMARK VINA RESULT:      -3.3      5.140      5.519
REMARK  2 active torsions:
REMARK  status: ('A' for Active; 'I' for Inactive)
REMARK       I    between atoms: N_1  and  C_2 
REMARK    1  A    between atoms: C_2  and  O_3 
REMARK    2  A    between atoms: O_3  and  C_4 
ROOT
HETATM    1  N   LIG     1      15.485  33.876  19.484  1.00  0.00    -0.346 N 
HETATM    2  C   LIG     1      15.559  34.270  20.851  1.00  0.00     0.358 C 
HETATM    3  O   LIG     1      14.566  34.093  21.606  1.00  0.00    -0.239 OA
HETATM    4  H   LIG     1      14.614  33.444  19.103  1.00  0.00     0.161 HD
HETATM    5  H   LIG     1      16.304  34.018  18.851  1.00  0.00     0.161 HD
ENDROOT
BRANCH   2   6
HETATM    6  O   LIG     1      16.738  34.843  21.339  1.00  0.00    -0.305 OA
BRANCH   6   7
HETATM    7  C   LIG     1      16.998  36.245  21.318  1.00  0.00     0.176 C 
HETATM    8  C   LIG     1      18.098  36.575  20.315  1.00  0.00     0.034 C 
ENDBRANCH   6   7
ENDBRANCH   2   6
TORSDOF 2
ENDMDL
MODEL 12
REMARK VINA RESULT:      -3.3      4.787      5.239
REMARK  2 active torsions:
REMARK  status: ('A' for Active; 'I' for Inactive)
REMARK       I    between atoms: N_1  and  C_2 
REMARK    1  A    between atoms: C_2  and  O_3 
REMARK    2  A    between atoms: O_3  and  C_4 
ROOT
HETATM    1  N   LIG     1      14.532  35.612  20.969  1.00  0.00    -0.346 N 
HETATM    2  C   LIG     1      15.912  35.374  21.233  1.00  0.00     0.358 C 
HETATM    3  O   LIG     1      16.253  34.803  22.303  1.00  0.00    -0.239 OA
HETATM    4  H   LIG     1      13.803  35.320  21.657  1.00  0.00     0.161 HD
HETATM    5  H   LIG     1      14.240  36.084  20.084  1.00  0.00     0.161 HD
ENDROOT
BRANCH   2   6
HETATM    6  O   LIG     1      16.871  35.771  20.295  1.00  0.00    -0.305 OA
BRANCH   6   7
HETATM    7  C   LIG     1      17.964  36.633  20.606  1.00  0.00     0.176 C 
HETATM    8  C   LIG     1      18.816  36.892  19.367  1.00  0.00     0.034 C 
ENDBRANCH   6   7
ENDBRANCH   2   6
TORSDOF 2
ENDMDL
MODEL 13
REMARK VINA RESULT:      -3.2     10.981     11.310
REMARK  2 active torsions:
REMARK  status: ('A' for Active; 'I' for Inactive)
REMARK       I    between atoms: N_1  and  C_2 
REMARK    1  A    between atoms: C_2  and  O_3 
REMARK    2  A    between atoms: O_3  and  C_4 
ROOT
HETATM    1  N   LIG     1      14.108  32.339  17.991  1.00  0.00    -0.346 N 
HETATM    2  C   LIG     1      13.634  31.561  16.896  1.00  0.00     0.358 C 
HETATM    3  O   LIG     1      12.465  31.093  16.922  1.00  0.00    -0.239 OA
HETATM    4  H   LIG     1      13.495  32.521  18.816  1.00  0.00     0.161 HD
HETATM    5  H   LIG     1      15.076  32.732  17.977  1.00  0.00     0.161 HD
ENDROOT
BRANCH   2   6
HETATM    6  O   LIG     1      14.474  31.333  15.799  1.00  0.00    -0.305 OA
BRANCH   6   7
HETATM    7  C   LIG     1      14.259  30.291  14.849  1.00  0.00     0.176 C 
HETATM    8  C   LIG     1      15.241  30.409  13.689  1.00  0.00     0.034 C 
ENDBRANCH   6   7
ENDBRANCH   2   6
TORSDOF 2
ENDMDL
MODEL 14
REMARK VINA RESULT:      -3.1      3.987      4.612
REMARK  2 active torsions:
REMARK  status: ('A' for Active; 'I' for Inactive)
REMARK       I    between atoms: N_1  and  C_2 
REMARK    1  A    between atoms: C_2  and  O_3 
REMARK    2  A    between atoms: O_3  and  C_4 
ROOT
HETATM    1  N   LIG     1      19.553  39.325  22.136  1.00  0.00    -0.346 N 
HETATM    2  C   LIG     1      18.804  39.002  20.968  1.00  0.00     0.358 C 
HETATM    3  O   LIG     1      18.897  39.731  19.945  1.00  0.00    -0.239 OA
HETATM    4  H   LIG     1      20.177  40.162  22.151  1.00  0.00     0.161 HD
HETATM    5  H   LIG     1      19.483  38.724  22.988  1.00  0.00     0.161 HD
ENDROOT
BRANCH   2   6
HETATM    6  O   LIG     1      17.978  37.872  20.970  1.00  0.00    -0.305 OA
BRANCH   6   7
HETATM    7  C   LIG     1      17.234  37.445  22.110  1.00  0.00     0.176 C 
HETATM    8  C   LIG     1      16.264  38.533  22.559  1.00  0.00     0.034 C 
ENDBRANCH   6   7
ENDBRANCH   2   6
TORSDOF 2
ENDMDL
MODEL 15
REMARK VINA RESULT:      -3.1      4.701      5.049
REMARK  2 active torsions:
REMARK  status: ('A' for Active; 'I' for Inactive)
REMARK       I    between atoms: N_1  and  C_2 
REMARK    1  A    between atoms: C_2  and  O_3 
REMARK    2  A    between atoms: O_3  and  C_4 
ROOT
HETATM    1  N   LIG     1      17.890  37.551  21.208  1.00  0.00    -0.346 N 
HETATM    2  C   LIG     1      18.008  36.552  20.199  1.00  0.00     0.358 C 
HETATM    3  O   LIG     1      19.024  36.535  19.454  1.00  0.00    -0.239 OA
HETATM    4  H   LIG     1      18.637  38.270  21.333  1.00  0.00     0.161 HD
HETATM    5  H   LIG     1      17.052  37.571  21.831  1.00  0.00     0.161 HD
ENDROOT
BRANCH   2   6
HETATM    6  O   LIG     1      16.996  35.597  20.054  1.00  0.00    -0.305 OA
BRANCH   6   7
HETATM    7  C   LIG     1      16.291  35.026  21.154  1.00  0.00     0.176 C 
HETATM    8  C   LIG     1      14.913  35.662  21.300  1.00  0.00     0.034 C 
ENDBRANCH   6   7
ENDBRANCH   2   6
TORSDOF 2
ENDMDL
MODEL 16
REMARK VINA RESULT:      -3.1      2.750      3.070
REMARK  2 active torsions:
REMARK  status: ('A' for Active; 'I' for Inactive)
REMARK       I    between atoms: N_1  and  C_2 
REMARK    1  A    between atoms: C_2  and  O_3 
REMARK    2  A    between atoms: O_3  and  C_4 
ROOT
HETATM    1  N   LIG     1      17.428  36.262  21.114  1.00  0.00    -0.346 N 
HETATM    2  C   LIG     1      17.197  37.248  22.116  1.00  0.00     0.358 C 
HETATM    3  O   LIG     1      17.329  38.469  21.833  1.00  0.00    -0.239 OA
HETATM    4  H   LIG     1      17.709  36.543  20.149  1.00  0.00     0.161 HD
HETATM    5  H   LIG     1      17.320  35.248  21.341  1.00  0.00     0.161 HD
ENDROOT
BRANCH   2   6
HETATM    6  O   LIG     1      16.819  36.848  23.402  1.00  0.00    -0.305 OA
BRANCH   6   7
HETATM    7  C   LIG     1      16.870  37.708  24.540  1.00  0.00     0.176 C 
HETATM    8  C   LIG     1      18.023  37.319  25.458  1.00  0.00     0.034 C 
ENDBRANCH   6   7
ENDBRANCH   2   6
TORSDOF 2
ENDMDL
MODEL 17
REMARK VINA RESULT:      -3.1     11.354     11.712
REMARK  2 active torsions:
REMARK  status: ('A' for Active; 'I' for Inactive)
REMARK       I    between atoms: N_1  and  C_2 
REMARK    1  A    between atoms: C_2  and  O_3 
REMARK    2  A    between atoms: O_3  and  C_4 
ROOT
HETATM    1  N   LIG     1      15.593  32.791  16.071  1.00  0.00    -0.346 N 
HETATM    2  C   LIG     1      16.680  32.315  15.282  1.00  0.00     0.358 C 
HETATM    3  O   LIG     1      17.774  32.940  15.285  1.00  0.00    -0.239 OA
HETATM    4  H   LIG     1      15.696  33.655  16.649  1.00  0.00     0.161 HD
HETATM    5  H   LIG     1      14.683  32.278  16.076  1.00  0.00     0.161 HD
ENDROOT
BRANCH   2   6
HETATM    6  O   LIG     1      16.519  31.153  14.519  1.00  0.00    -0.305 OA
BRANCH   6   7
HETATM    7  C   LIG     1      15.410  30.931  13.650  1.00  0.00     0.176 C 
HETATM    8  C   LIG     1      14.495  29.847  14.210  1.00  0.00     0.034 C 
ENDBRANCH   6   7
ENDBRANCH   2   6
TORSDOF 2
ENDMDL
MODEL 18
REMARK VINA RESULT:      -3.1      6.801      7.613
REMARK  2 active torsions:
REMARK  status: ('A' for Active; 'I' for Inactive)
REMARK       I    between atoms: N_1  and  C_2 
REMARK    1  A    between atoms: C_2  and  O_3 
REMARK    2  A    between atoms: O_3  and  C_4 
ROOT
HETATM    1  N   LIG     1      20.559  38.487  19.755  1.00  0.00    -0.346 N 
HETATM    2  C   LIG     1      19.337  39.207  19.890  1.00  0.00     0.358 C 
HETATM    3  O   LIG     1      18.858  39.413  21.037  1.00  0.00    -0.239 OA
HETATM    4  H   LIG     1      21.058  38.126  20.598  1.00  0.00     0.161 HD
HETATM    5  H   LIG     1      20.964  38.312  18.807  1.00  0.00     0.161 HD
ENDROOT
BRANCH   2   6
HETATM    6  O   LIG     1      18.688  39.683  18.745  1.00  0.00    -0.305 OA
BRANCH   6   7
HETATM    7  C   LIG     1      19.038  39.284  17.421  1.00  0.00     0.176 C 
HETATM    8  C   LIG     1      18.308  40.139  16.390  1.00  0.00     0.034 C 
ENDBRANCH   6   7
ENDBRANCH   2   6
TORSDOF 2
ENDMDL
MODEL 19
REMARK VINA RESULT:      -3.0      2.978      4.025
REMARK  2 active torsions:
REMARK  status: ('A' for Active; 'I' for Inactive)
REMARK       I    between atoms: N_1  and  C_2 
REMARK    1  A    between atoms: C_2  and  O_3 
REMARK    2  A    between atoms: O_3  and  C_4 
ROOT
HETATM    1  N   LIG     1      17.077  35.278  22.145  1.00  0.00    -0.346 N 
HETATM    2  C   LIG     1      16.861  36.415  22.975  1.00  0.00     0.358 C 
HETATM    3  O   LIG     1      17.188  36.372  24.191  1.00  0.00    -0.239 OA
HETATM    4  H   LIG     1      17.502  34.409  22.537  1.00  0.00     0.161 HD
HETATM    5  H   LIG     1      16.810  35.306  21.136  1.00  0.00     0.161 HD
ENDROOT
BRANCH   2   6
HETATM    6  O   LIG     1      16.294  37.571  22.426  1.00  0.00    -0.305 OA
BRANCH   6   7
HETATM    7  C   LIG     1      16.886  38.864  22.534  1.00  0.00     0.176 C 
HETATM    8  C   LIG     1      18.164  38.942  21.704  1.00  0.00     0.034 C 
ENDBRANCH   6   7
ENDBRANCH   2   6
TORSDOF 2
ENDMDL
MODEL 20
REMARK VINA RESULT:      -3.0      4.637      5.339
REMARK  2 active torsions:
REMARK  status: ('A' for Active; 'I' for Inactive)
REMARK       I    between atoms: N_1  and  C_2 
REMARK    1  A    between atoms: C_2  and  O_3 
REMARK    2  A    between atoms: O_3  and  C_4 
ROOT
HETATM    1  N   LIG     1      17.176  35.814  20.497  1.00  0.00    -0.346 N 
HETATM    2  C   LIG     1      18.155  36.752  20.060  1.00  0.00     0.358 C 
HETATM    3  O   LIG     1      18.588  36.696  18.878  1.00  0.00    -0.239 OA
HETATM    4  H   LIG     1      16.817  35.081  19.847  1.00  0.00     0.161 HD
HETATM    5  H   LIG     1      16.810  35.854  21.475  1.00  0.00     0.161 HD
ENDROOT
BRANCH   2   6
HETATM    6  O   LIG     1      18.619  37.728  20.948  1.00  0.00    -0.305 OA
BRANCH   6   7
HETATM    7  C   LIG     1      17.916  38.940  21.220  1.00  0.00     0.176 C 
HETATM    8  C   LIG     1      17.153  38.837  22.536  1.00  0.00     0.034 C 
ENDBRANCH   6   7
ENDBRANCH   2   6
TORSDOF 2
ENDMDL
