REMARK  2 active torsions:
REMARK  status: ('A' for Active; 'I' for Inactive)
REMARK    1  A    between atoms: C_2  and  O_4 
REMARK    2  A    between atoms: O_4  and  C_5 
ROOT
HETATM    1  C   LIG     1      -2.848   0.783   0.413  1.00  0.00     0.140 C 
HETATM    2  C   LIG     1      -2.739   1.776  -0.760  1.00  0.00     0.053 C 
HETATM    3  C   LIG     1      -1.553   1.325  -1.618  1.00  0.00     0.010 C 
HETATM    4  C   LIG     1      -0.976   0.052  -0.975  1.00  0.00     0.002 C 
HETATM    5  C   LIG     1       0.553  -0.104  -1.245  1.00  0.00    -0.005 C 
HETATM    6  C   LIG     1       0.986  -1.596  -1.212  1.00  0.00     0.010 C 
HETATM    7  C   LIG     1       2.472  -1.771  -1.532  1.00  0.00     0.035 C 
HETATM    8  C   LIG     1       3.280  -0.907  -0.607  1.00  0.00    -0.072 C 
HETATM    9  C   LIG     1       4.209  -1.440   0.198  1.00  0.00     0.053 C 
HETATM   10  C   LIG     1       4.927  -0.622   1.181  1.00  0.00     0.149 C 
HETATM   11  O   LIG     1       5.886  -1.121   1.828  1.00  0.00    -0.293 OA
HETATM   12  C   LIG     1       4.460   0.764   1.487  1.00  0.00     0.084 C 
HETATM   13  C   LIG     1       3.911   1.451   0.229  1.00  0.00     0.017 C 
HETATM   14  C   LIG     1       2.943   0.570  -0.610  1.00  0.00     0.019 C 
HETATM   15  C   LIG     1       1.428   0.794  -0.321  1.00  0.00    -0.002 C 
HETATM   16  C   LIG     1       1.035   0.601   1.151  1.00  0.00     0.006 C 
HETATM   17  C   LIG     1      -0.443   0.945   1.365  1.00  0.00     0.014 C 
HETATM   18  C   LIG     1      -1.437   0.092   0.509  1.00  0.00     0.003 C 
HETATM   19  C   LIG     1      -1.574  -1.321   1.136  1.00  0.00     0.020 C 
HETATM   20  C   LIG     1      -3.201   1.516   1.649  1.00  0.00    -0.077 C 
HETATM   21  C   LIG     1      -3.493   2.113   2.656  1.00  0.00     0.015 C 
ENDROOT
BRANCH   1  22
HETATM   22  O   LIG     1      -3.913  -0.173   0.225  1.00  0.00    -0.296 OA
BRANCH  22  23
HETATM   23  C   LIG     1      -4.278  -0.881  -0.932  1.00  0.00     0.256 C 
HETATM   24  C   LIG     1      -5.254  -2.001  -0.804  1.00  0.00     0.126 C 
HETATM   25  O   LIG     1      -3.832  -0.578  -2.070  1.00  0.00    -0.266 OA
ENDBRANCH  22  23
ENDBRANCH   1  22
TORSDOF 2
