MODEL 1
REMARK VINA RESULT:      -8.4      0.000      0.000
REMARK  4 active torsions:
REMARK  status: ('A' for Active; 'I' for Inactive)
REMARK    1  A    between atoms: C_4  and  C_5 
REMARK    2  A    between atoms: C_5  and  C_6 
REMARK    3  A    between atoms: C_6  and  O_7 
REMARK    4  A    between atoms: C_12  and  C_13 
ROOT
HETATM    1  F   LIG     1      14.012  35.397  21.630  1.00  0.00    -0.205 F 
HETATM    2  C   LIG     1      15.245  35.915  21.397  1.00  0.00     0.128 A 
HETATM    3  C   LIG     1      15.686  36.983  22.185  1.00  0.00     0.051 A 
HETATM    4  C   LIG     1      16.971  37.527  21.999  1.00  0.00    -0.041 A 
HETATM    5  C   LIG     1      17.810  36.972  21.021  1.00  0.00     0.009 A 
HETATM    6  C   LIG     1      17.371  35.904  20.234  1.00  0.00     0.016 A 
HETATM    7  C   LIG     1      16.084  35.368  20.408  1.00  0.00     0.013 A 
ENDROOT
BRANCH   4   8
HETATM    8  C   LIG     1      17.458  38.675  22.859  1.00  0.00     0.112 C 
HETATM    9  C   LIG     1      18.773  39.239  22.303  1.00  0.00     0.026 C 
BRANCH   8  10
HETATM   10  C   LIG     1      17.571  38.244  24.303  1.00  0.00     0.148 C 
HETATM   11  O   LIG     1      16.542  38.088  25.015  1.00  0.00    -0.649 OA
BRANCH  10  12
HETATM   12  O   LIG     1      18.823  38.016  24.865  1.00  0.00    -0.776 OA
HETATM   13  H   LIG     1      19.170  38.595  25.622  1.00  0.00     0.167 HD
ENDBRANCH  10  12
ENDBRANCH   8  10
ENDBRANCH   4   8
BRANCH   7  14
HETATM   14  C   LIG     1      15.629  34.240  19.560  1.00  0.00    -0.023 A 
HETATM   15  C   LIG     1      15.431  32.961  20.114  1.00  0.00     0.012 A 
HETATM   16  C   LIG     1      14.995  31.903  19.310  1.00  0.00     0.001 A 
HETATM   17  C   LIG     1      14.750  32.109  17.951  1.00  0.00     0.000 A 
HETATM   18  C   LIG     1      14.938  33.376  17.392  1.00  0.00     0.001 A 
HETATM   19  C   LIG     1      15.373  34.438  18.191  1.00  0.00     0.012 A 
ENDBRANCH   7  14
TORSDOF 4
ENDMDL
MODEL 2
REMARK VINA RESULT:      -7.9      2.664      4.397
REMARK  4 active torsions:
REMARK  status: ('A' for Active; 'I' for Inactive)
REMARK    1  A    between atoms: C_4  and  C_5 
REMARK    2  A    between atoms: C_5  and  C_6 
REMARK    3  A    between atoms: C_6  and  O_7 
REMARK    4  A    between atoms: C_12  and  C_13 
ROOT
HETATM    1  F   LIG     1      14.614  34.726  16.513  1.00  0.00    -0.205 F 
HETATM    2  C   LIG     1      14.989  34.131  17.674  1.00  0.00     0.128 A 
HETATM    3  C   LIG     1      15.310  34.937  18.771  1.00  0.00     0.051 A 
HETATM    4  C   LIG     1      15.669  34.360  20.003  1.00  0.00    -0.041 A 
HETATM    5  C   LIG     1      15.686  32.961  20.120  1.00  0.00     0.009 A 
HETATM    6  C   LIG     1      15.365  32.154  19.025  1.00  0.00     0.016 A 
HETATM    7  C   LIG     1      15.019  32.729  17.790  1.00  0.00     0.013 A 
ENDROOT
BRANCH   4   8
HETATM    8  C   LIG     1      16.005  35.228  21.197  1.00  0.00     0.112 C 
HETATM    9  C   LIG     1      14.758  35.983  21.678  1.00  0.00     0.026 C 
BRANCH   8  10
HETATM   10  C   LIG     1      17.158  36.150  20.874  1.00  0.00     0.148 C 
HETATM   11  O   LIG     1      17.824  36.007  19.814  1.00  0.00    -0.649 OA
BRANCH  10  12
HETATM   12  O   LIG     1      17.498  37.173  21.754  1.00  0.00    -0.776 OA
HETATM   13  H   LIG     1      17.152  37.181  22.707  1.00  0.00     0.167 HD
ENDBRANCH  10  12
ENDBRANCH   8  10
ENDBRANCH   4   8
BRANCH   7  14
HETATM   14  C   LIG     1      14.686  31.860  16.635  1.00  0.00    -0.023 A 
HETATM   15  C   LIG     1      15.591  31.708  15.568  1.00  0.00     0.012 A 
HETATM   16  C   LIG     1      15.275  30.881  14.485  1.00  0.00     0.001 A 
HETATM   17  C   LIG     1      14.058  30.196  14.458  1.00  0.00     0.000 A 
HETATM   18  C   LIG     1      13.156  30.333  15.516  1.00  0.00     0.001 A 
HETATM   19  C   LIG     1      13.467  31.158  16.601  1.00  0.00     0.012 A 
ENDBRANCH   7  14
TORSDOF 4
ENDMDL
MODEL 3
REMARK VINA RESULT:      -7.7      1.237      1.741
REMARK  4 active torsions:
REMARK  status: ('A' for Active; 'I' for Inactive)
REMARK    1  A    between atoms: C_4  and  C_5 
REMARK    2  A    between atoms: C_5  and  C_6 
REMARK    3  A    between atoms: C_6  and  O_7 
REMARK    4  A    between atoms: C_12  and  C_13 
ROOT
HETATM    1  F   LIG     1      18.078  35.918  19.251  1.00  0.00    -0.205 F 
HETATM    2  C   LIG     1      17.287  36.190  20.319  1.00  0.00     0.128 A 
HETATM    3  C   LIG     1      17.669  37.206  21.200  1.00  0.00     0.051 A 
HETATM    4  C   LIG     1      16.858  37.543  22.300  1.00  0.00    -0.041 A 
HETATM    5  C   LIG     1      15.651  36.853  22.492  1.00  0.00     0.009 A 
HETATM    6  C   LIG     1      15.267  35.837  21.613  1.00  0.00     0.016 A 
HETATM    7  C   LIG     1      16.081  35.491  20.521  1.00  0.00     0.013 A 
ENDROOT
BRANCH   4   8
HETATM    8  C   LIG     1      17.261  38.652  23.249  1.00  0.00     0.112 C 
HETATM    9  C   LIG     1      18.503  39.384  22.721  1.00  0.00     0.026 C 
BRANCH   8  10
HETATM   10  C   LIG     1      17.452  38.110  24.646  1.00  0.00     0.148 C 
HETATM   11  O   LIG     1      17.878  36.938  24.834  1.00  0.00    -0.649 OA
BRANCH  10  12
HETATM   12  O   LIG     1      17.155  38.906  25.749  1.00  0.00    -0.776 OA
HETATM   13  H   LIG     1      16.463  39.644  25.689  1.00  0.00     0.167 HD
ENDBRANCH  10  12
ENDBRANCH   8  10
ENDBRANCH   4   8
BRANCH   7  14
HETATM   14  C   LIG     1      15.664  34.406  19.600  1.00  0.00    -0.023 A 
HETATM   15  C   LIG     1      15.481  33.093  20.074  1.00  0.00     0.012 A 
HETATM   16  C   LIG     1      15.080  32.077  19.202  1.00  0.00     0.001 A 
HETATM   17  C   LIG     1      14.855  32.358  17.853  1.00  0.00     0.000 A 
HETATM   18  C   LIG     1      15.026  33.659  17.373  1.00  0.00     0.001 A 
HETATM   19  C   LIG     1      15.427  34.680  18.241  1.00  0.00     0.012 A 
ENDBRANCH   7  14
TORSDOF 4
ENDMDL
MODEL 4
REMARK VINA RESULT:      -7.6      2.597      4.134
REMARK  4 active torsions:
REMARK  status: ('A' for Active; 'I' for Inactive)
REMARK    1  A    between atoms: C_4  and  C_5 
REMARK    2  A    between atoms: C_5  and  C_6 
REMARK    3  A    between atoms: C_6  and  O_7 
REMARK    4  A    between atoms: C_12  and  C_13 
ROOT
HETATM    1  F   LIG     1      14.844  30.990  19.479  1.00  0.00    -0.205 F 
HETATM    2  C   LIG     1      15.080  32.304  19.240  1.00  0.00     0.128 A 
HETATM    3  C   LIG     1      15.410  33.136  20.314  1.00  0.00     0.051 A 
HETATM    4  C   LIG     1      15.696  34.498  20.104  1.00  0.00    -0.041 A 
HETATM    5  C   LIG     1      15.659  35.007  18.796  1.00  0.00     0.009 A 
HETATM    6  C   LIG     1      15.330  34.177  17.722  1.00  0.00     0.016 A 
HETATM    7  C   LIG     1      15.031  32.820  17.931  1.00  0.00     0.013 A 
ENDROOT
BRANCH   4   8
HETATM    8  C   LIG     1      16.068  35.400  21.262  1.00  0.00     0.112 C 
HETATM    9  C   LIG     1      14.840  36.187  21.743  1.00  0.00     0.026 C 
BRANCH   8  10
HETATM   10  C   LIG     1      17.225  36.296  20.885  1.00  0.00     0.148 C 
HETATM   11  O   LIG     1      17.385  37.416  21.440  1.00  0.00    -0.649 OA
BRANCH  10  12
HETATM   12  O   LIG     1      18.132  35.888  19.912  1.00  0.00    -0.776 OA
HETATM   13  H   LIG     1      18.225  34.911  19.660  1.00  0.00     0.167 HD
ENDBRANCH  10  12
ENDBRANCH   8  10
ENDBRANCH   4   8
BRANCH   7  14
HETATM   14  C   LIG     1      14.677  31.953  16.781  1.00  0.00    -0.023 A 
HETATM   15  C   LIG     1      13.456  31.254  16.759  1.00  0.00     0.012 A 
HETATM   16  C   LIG     1      13.124  30.444  15.669  1.00  0.00     0.001 A 
HETATM   17  C   LIG     1      14.003  30.327  14.590  1.00  0.00     0.000 A 
HETATM   18  C   LIG     1      15.215  31.022  14.597  1.00  0.00     0.001 A 
HETATM   19  C   LIG     1      15.551  31.833  15.685  1.00  0.00     0.012 A 
ENDBRANCH   7  14
TORSDOF 4
ENDMDL
MODEL 5
REMARK VINA RESULT:      -7.4      4.154      7.275
REMARK  4 active torsions:
REMARK  status: ('A' for Active; 'I' for Inactive)
REMARK    1  A    between atoms: C_4  and  C_5 
REMARK    2  A    between atoms: C_5  and  C_6 
REMARK    3  A    between atoms: C_6  and  O_7 
REMARK    4  A    between atoms: C_12  and  C_13 
ROOT
HETATM    1  F   LIG     1      15.156  32.710  21.190  1.00  0.00    -0.205 F 
HETATM    2  C   LIG     1      15.201  33.051  19.877  1.00  0.00     0.128 A 
HETATM    3  C   LIG     1      14.899  32.080  18.917  1.00  0.00     0.051 A 
HETATM    4  C   LIG     1      14.900  32.401  17.548  1.00  0.00    -0.041 A 
HETATM    5  C   LIG     1      15.194  33.717  17.158  1.00  0.00     0.009 A 
HETATM    6  C   LIG     1      15.496  34.690  18.116  1.00  0.00     0.016 A 
HETATM    7  C   LIG     1      15.508  34.367  19.483  1.00  0.00     0.013 A 
ENDROOT
BRANCH   4   8
HETATM    8  C   LIG     1      14.561  31.356  16.505  1.00  0.00     0.112 C 
HETATM    9  C   LIG     1      15.276  31.667  15.183  1.00  0.00     0.026 C 
BRANCH   8  10
HETATM   10  C   LIG     1      13.063  31.235  16.346  1.00  0.00     0.148 C 
HETATM   11  O   LIG     1      12.563  30.425  15.520  1.00  0.00    -0.649 OA
BRANCH  10  12
HETATM   12  O   LIG     1      12.215  32.027  17.114  1.00  0.00    -0.776 OA
HETATM   13  H   LIG     1      11.290  31.703  17.374  1.00  0.00     0.167 HD
ENDBRANCH  10  12
ENDBRANCH   8  10
ENDBRANCH   4   8
BRANCH   7  14
HETATM   14  C   LIG     1      15.836  35.408  20.487  1.00  0.00    -0.023 A 
HETATM   15  C   LIG     1      14.848  35.898  21.362  1.00  0.00     0.012 A 
HETATM   16  C   LIG     1      15.166  36.874  22.311  1.00  0.00     0.001 A 
HETATM   17  C   LIG     1      16.470  37.368  22.400  1.00  0.00     0.000 A 
HETATM   18  C   LIG     1      17.460  36.884  21.542  1.00  0.00     0.001 A 
HETATM   19  C   LIG     1      17.148  35.907  20.591  1.00  0.00     0.012 A 
ENDBRANCH   7  14
TORSDOF 4
ENDMDL
MODEL 6
REMARK VINA RESULT:      -7.2      6.815      8.995
REMARK  4 active torsions:
REMARK  status: ('A' for Active; 'I' for Inactive)
REMARK    1  A    between atoms: C_4  and  C_5 
REMARK    2  A    between atoms: C_5  and  C_6 
REMARK    3  A    between atoms: C_6  and  O_7 
REMARK    4  A    between atoms: C_12  and  C_13 
ROOT
HETATM    1  F   LIG     1      17.516  34.554  15.433  1.00  0.00    -0.205 F 
HETATM    2  C   LIG     1      16.891  33.448  14.956  1.00  0.00     0.128 A 
HETATM    3  C   LIG     1      15.943  32.809  15.761  1.00  0.00     0.051 A 
HETATM    4  C   LIG     1      15.248  31.680  15.290  1.00  0.00    -0.041 A 
HETATM    5  C   LIG     1      15.509  31.212  13.993  1.00  0.00     0.009 A 
HETATM    6  C   LIG     1      16.456  31.849  13.187  1.00  0.00     0.016 A 
HETATM    7  C   LIG     1      17.161  32.969  13.660  1.00  0.00     0.013 A 
ENDROOT
BRANCH   4   8
HETATM    8  C   LIG     1      14.210  30.993  16.153  1.00  0.00     0.112 C 
HETATM    9  C   LIG     1      13.189  30.254  15.277  1.00  0.00     0.026 C 
BRANCH   8  10
HETATM   10  C   LIG     1      13.564  31.983  17.094  1.00  0.00     0.148 C 
HETATM   11  O   LIG     1      12.676  32.779  16.687  1.00  0.00    -0.649 OA
BRANCH  10  12
HETATM   12  O   LIG     1      13.951  32.028  18.431  1.00  0.00    -0.776 OA
HETATM   13  H   LIG     1      14.756  31.507  18.760  1.00  0.00     0.167 HD
ENDBRANCH  10  12
ENDBRANCH   8  10
ENDBRANCH   4   8
BRANCH   7  14
HETATM   14  C   LIG     1      18.168  33.630  12.795  1.00  0.00    -0.023 A 
HETATM   15  C   LIG     1      17.766  34.412  11.695  1.00  0.00     0.012 A 
HETATM   16  C   LIG     1      18.721  35.039  10.889  1.00  0.00     0.001 A 
HETATM   17  C   LIG     1      20.081  34.897  11.171  1.00  0.00     0.000 A 
HETATM   18  C   LIG     1      20.491  34.129  12.264  1.00  0.00     0.001 A 
HETATM   19  C   LIG     1      19.541  33.500  13.075  1.00  0.00     0.012 A 
ENDBRANCH   7  14
TORSDOF 4
ENDMDL
MODEL 7
REMARK VINA RESULT:      -7.2      1.522      2.250
REMARK  4 active torsions:
REMARK  status: ('A' for Active; 'I' for Inactive)
REMARK    1  A    between atoms: C_4  and  C_5 
REMARK    2  A    between atoms: C_5  and  C_6 
REMARK    3  A    between atoms: C_6  and  O_7 
REMARK    4  A    between atoms: C_12  and  C_13 
ROOT
HETATM    1  F   LIG     1      14.406  33.253  21.539  1.00  0.00    -0.205 F 
HETATM    2  C   LIG     1      15.286  34.247  21.256  1.00  0.00     0.128 A 
HETATM    3  C   LIG     1      15.745  35.059  22.297  1.00  0.00     0.051 A 
HETATM    4  C   LIG     1      16.683  36.078  22.051  1.00  0.00    -0.041 A 
HETATM    5  C   LIG     1      17.164  36.259  20.745  1.00  0.00     0.009 A 
HETATM    6  C   LIG     1      16.706  35.449  19.703  1.00  0.00     0.016 A 
HETATM    7  C   LIG     1      15.760  34.439  19.944  1.00  0.00     0.013 A 
ENDROOT
BRANCH   4   8
HETATM    8  C   LIG     1      17.194  36.951  23.179  1.00  0.00     0.112 C 
HETATM    9  C   LIG     1      17.285  36.144  24.481  1.00  0.00     0.026 C 
BRANCH   8  10
HETATM   10  C   LIG     1      16.340  38.190  23.317  1.00  0.00     0.148 C 
HETATM   11  O   LIG     1      16.846  39.340  23.225  1.00  0.00    -0.649 OA
BRANCH  10  12
HETATM   12  O   LIG     1      14.973  38.070  23.552  1.00  0.00    -0.776 OA
HETATM   13  H   LIG     1      14.609  37.355  24.172  1.00  0.00     0.167 HD
ENDBRANCH  10  12
ENDBRANCH   8  10
ENDBRANCH   4   8
BRANCH   7  14
HETATM   14  C   LIG     1      15.279  33.592  18.826  1.00  0.00    -0.023 A 
HETATM   15  C   LIG     1      15.235  34.094  17.512  1.00  0.00     0.012 A 
HETATM   16  C   LIG     1      14.788  33.286  16.462  1.00  0.00     0.001 A 
HETATM   17  C   LIG     1      14.384  31.973  16.710  1.00  0.00     0.000 A 
HETATM   18  C   LIG     1      14.429  31.461  18.009  1.00  0.00     0.001 A 
HETATM   19  C   LIG     1      14.876  32.264  19.063  1.00  0.00     0.012 A 
ENDBRANCH   7  14
TORSDOF 4
ENDMDL
MODEL 8
REMARK VINA RESULT:      -7.1      1.598      2.375
REMARK  4 active torsions:
REMARK  status: ('A' for Active; 'I' for Inactive)
REMARK    1  A    between atoms: C_4  and  C_5 
REMARK    2  A    between atoms: C_5  and  C_6 
REMARK    3  A    between atoms: C_6  and  O_7 
REMARK    4  A    between atoms: C_12  and  C_13 
ROOT
HETATM    1  F   LIG     1      17.410  36.010  18.733  1.00  0.00    -0.205 F 
HETATM    2  C   LIG     1      17.028  35.881  20.028  1.00  0.00     0.128 A 
HETATM    3  C   LIG     1      17.547  36.768  20.976  1.00  0.00     0.051 A 
HETATM    4  C   LIG     1      17.150  36.690  22.324  1.00  0.00    -0.041 A 
HETATM    5  C   LIG     1      16.212  35.717  22.701  1.00  0.00     0.009 A 
HETATM    6  C   LIG     1      15.692  34.829  21.756  1.00  0.00     0.016 A 
HETATM    7  C   LIG     1      16.097  34.897  20.412  1.00  0.00     0.013 A 
ENDROOT
BRANCH   4   8
HETATM    8  C   LIG     1      17.699  37.658  23.351  1.00  0.00     0.112 C 
HETATM    9  C   LIG     1      17.059  37.402  24.723  1.00  0.00     0.026 C 
BRANCH   8  10
HETATM   10  C   LIG     1      17.524  39.084  22.882  1.00  0.00     0.148 C 
HETATM   11  O   LIG     1      16.450  39.708  23.092  1.00  0.00    -0.649 OA
BRANCH  10  12
HETATM   12  O   LIG     1      18.557  39.725  22.204  1.00  0.00    -0.776 OA
HETATM   13  H   LIG     1      19.208  39.203  21.629  1.00  0.00     0.167 HD
ENDBRANCH  10  12
ENDBRANCH   8  10
ENDBRANCH   4   8
BRANCH   7  14
HETATM   14  C   LIG     1      15.542  33.944  19.421  1.00  0.00    -0.023 A 
HETATM   15  C   LIG     1      15.296  34.348  18.096  1.00  0.00     0.012 A 
HETATM   16  C   LIG     1      14.779  33.442  17.165  1.00  0.00     0.001 A 
HETATM   17  C   LIG     1      14.505  32.126  17.543  1.00  0.00     0.000 A 
HETATM   18  C   LIG     1      14.752  31.711  18.855  1.00  0.00     0.001 A 
HETATM   19  C   LIG     1      15.270  32.613  19.790  1.00  0.00     0.012 A 
ENDBRANCH   7  14
TORSDOF 4
ENDMDL
MODEL 9
REMARK VINA RESULT:      -7.0      4.523      7.498
REMARK  4 active torsions:
REMARK  status: ('A' for Active; 'I' for Inactive)
REMARK    1  A    between atoms: C_4  and  C_5 
REMARK    2  A    between atoms: C_5  and  C_6 
REMARK    3  A    between atoms: C_6  and  O_7 
REMARK    4  A    between atoms: C_12  and  C_13 
ROOT
HETATM    1  F   LIG     1      14.930  31.930  20.543  1.00  0.00    -0.205 F 
HETATM    2  C   LIG     1      14.978  32.545  19.334  1.00  0.00     0.128 A 
HETATM    3  C   LIG     1      14.653  31.809  18.190  1.00  0.00     0.051 A 
HETATM    4  C   LIG     1      14.656  32.419  16.922  1.00  0.00    -0.041 A 
HETATM    5  C   LIG     1      14.976  33.782  16.823  1.00  0.00     0.009 A 
HETATM    6  C   LIG     1      15.301  34.518  17.965  1.00  0.00     0.016 A 
HETATM    7  C   LIG     1      15.311  33.908  19.231  1.00  0.00     0.013 A 
ENDROOT
BRANCH   4   8
HETATM    8  C   LIG     1      14.291  31.630  15.682  1.00  0.00     0.112 C 
HETATM    9  C   LIG     1      13.214  30.587  16.008  1.00  0.00     0.026 C 
BRANCH   8  10
HETATM   10  C   LIG     1      15.527  31.020  15.060  1.00  0.00     0.148 C 
HETATM   11  O   LIG     1      15.495  29.866  14.554  1.00  0.00    -0.649 OA
BRANCH  10  12
HETATM   12  O   LIG     1      16.722  31.733  15.044  1.00  0.00    -0.776 OA
HETATM   13  H   LIG     1      17.613  31.259  14.952  1.00  0.00     0.167 HD
ENDBRANCH  10  12
ENDBRANCH   8  10
ENDBRANCH   4   8
BRANCH   7  14
HETATM   14  C   LIG     1      15.664  34.702  20.433  1.00  0.00    -0.023 A 
HETATM   15  C   LIG     1      16.867  34.462  21.124  1.00  0.00     0.012 A 
HETATM   16  C   LIG     1      17.197  35.218  22.252  1.00  0.00     0.001 A 
HETATM   17  C   LIG     1      16.336  36.222  22.700  1.00  0.00     0.000 A 
HETATM   18  C   LIG     1      15.142  36.474  22.019  1.00  0.00     0.001 A 
HETATM   19  C   LIG     1      14.807  35.720  20.889  1.00  0.00     0.012 A 
ENDBRANCH   7  14
TORSDOF 4
ENDMDL
MODEL 10
REMARK VINA RESULT:      -6.7      2.987      4.813
REMARK  4 active torsions:
REMARK  status: ('A' for Active; 'I' for Inactive)
REMARK    1  A    between atoms: C_4  and  C_5 
REMARK    2  A    between atoms: C_5  and  C_6 
REMARK    3  A    between atoms: C_6  and  O_7 
REMARK    4  A    between atoms: C_12  and  C_13 
ROOT
HETATM    1  F   LIG     1      15.309  34.340  15.660  1.00  0.00    -0.205 F 
HETATM    2  C   LIG     1      15.313  33.900  16.944  1.00  0.00     0.128 A 
HETATM    3  C   LIG     1      15.575  34.814  17.970  1.00  0.00     0.051 A 
HETATM    4  C   LIG     1      15.553  34.406  19.316  1.00  0.00    -0.041 A 
HETATM    5  C   LIG     1      15.250  33.069  19.616  1.00  0.00     0.009 A 
HETATM    6  C   LIG     1      14.987  32.154  18.593  1.00  0.00     0.016 A 
HETATM    7  C   LIG     1      15.021  32.557  17.248  1.00  0.00     0.013 A 
ENDROOT
BRANCH   4   8
HETATM    8  C   LIG     1      15.824  35.394  20.431  1.00  0.00     0.112 C 
HETATM    9  C   LIG     1      17.315  35.755  20.477  1.00  0.00     0.026 C 
BRANCH   8  10
HETATM   10  C   LIG     1      15.310  34.860  21.748  1.00  0.00     0.148 C 
HETATM   11  O   LIG     1      16.065  34.784  22.755  1.00  0.00    -0.649 OA
BRANCH  10  12
HETATM   12  O   LIG     1      13.988  34.441  21.861  1.00  0.00    -0.776 OA
HETATM   13  H   LIG     1      13.678  33.896  22.658  1.00  0.00     0.167 HD
ENDBRANCH  10  12
ENDBRANCH   8  10
ENDBRANCH   4   8
BRANCH   7  14
HETATM   14  C   LIG     1      14.746  31.573  16.172  1.00  0.00    -0.023 A 
HETATM   15  C   LIG     1      13.528  30.870  16.137  1.00  0.00     0.012 A 
HETATM   16  C   LIG     1      13.272  29.950  15.116  1.00  0.00     0.001 A 
HETATM   17  C   LIG     1      14.225  29.724  14.120  1.00  0.00     0.000 A 
HETATM   18  C   LIG     1      15.436  30.421  14.141  1.00  0.00     0.001 A 
HETATM   19  C   LIG     1      15.696  31.344  15.160  1.00  0.00     0.012 A 
ENDBRANCH   7  14
TORSDOF 4
ENDMDL
MODEL 11
REMARK VINA RESULT:      -6.5      6.408      8.975
REMARK  4 active torsions:
REMARK  status: ('A' for Active; 'I' for Inactive)
REMARK    1  A    between atoms: C_4  and  C_5 
REMARK    2  A    between atoms: C_5  and  C_6 
REMARK    3  A    between atoms: C_6  and  O_7 
REMARK    4  A    between atoms: C_12  and  C_13 
ROOT
HETATM    1  F   LIG     1      12.251  29.957  16.390  1.00  0.00    -0.205 F 
HETATM    2  C   LIG     1      13.336  30.391  15.700  1.00  0.00     0.128 A 
HETATM    3  C   LIG     1      14.130  31.400  16.255  1.00  0.00     0.051 A 
HETATM    4  C   LIG     1      15.283  31.853  15.588  1.00  0.00    -0.041 A 
HETATM    5  C   LIG     1      15.634  31.268  14.362  1.00  0.00     0.009 A 
HETATM    6  C   LIG     1      14.842  30.259  13.805  1.00  0.00     0.016 A 
HETATM    7  C   LIG     1      13.684  29.814  14.464  1.00  0.00     0.013 A 
ENDROOT
BRANCH   4   8
HETATM    8  C   LIG     1      16.153  32.936  16.192  1.00  0.00     0.112 C 
HETATM    9  C   LIG     1      15.288  34.104  16.687  1.00  0.00     0.026 C 
BRANCH   8  10
HETATM   10  C   LIG     1      17.215  33.370  15.210  1.00  0.00     0.148 C 
HETATM   11  O   LIG     1      18.297  32.733  15.101  1.00  0.00    -0.649 OA
BRANCH  10  12
HETATM   12  O   LIG     1      17.008  34.490  14.410  1.00  0.00    -0.776 OA
HETATM   13  H   LIG     1      17.750  35.159  14.244  1.00  0.00     0.167 HD
ENDBRANCH  10  12
ENDBRANCH   8  10
ENDBRANCH   4   8
BRANCH   7  14
HETATM   14  C   LIG     1      12.850  28.748  13.857  1.00  0.00    -0.023 A 
HETATM   15  C   LIG     1      11.533  29.017  13.440  1.00  0.00     0.012 A 
HETATM   16  C   LIG     1      10.755  28.009  12.862  1.00  0.00     0.001 A 
HETATM   17  C   LIG     1      11.282  26.727  12.691  1.00  0.00     0.000 A 
HETATM   18  C   LIG     1      12.591  26.450  13.096  1.00  0.00     0.001 A 
HETATM   19  C   LIG     1      13.373  27.455  13.674  1.00  0.00     0.012 A 
ENDBRANCH   7  14
TORSDOF 4
ENDMDL
MODEL 12
REMARK VINA RESULT:      -6.0      6.396      9.819
REMARK  4 active torsions:
REMARK  status: ('A' for Active; 'I' for Inactive)
REMARK    1  A    between atoms: C_4  and  C_5 
REMARK    2  A    between atoms: C_5  and  C_6 
REMARK    3  A    between atoms: C_6  and  O_7 
REMARK    4  A    between atoms: C_12  and  C_13 
ROOT
HETATM    1  F   LIG     1      12.473  31.349  17.186  1.00  0.00    -0.205 F 
HETATM    2  C   LIG     1      13.494  31.003  16.362  1.00  0.00     0.128 A 
HETATM    3  C   LIG     1      13.259  30.062  15.355  1.00  0.00     0.051 A 
HETATM    4  C   LIG     1      14.281  29.702  14.458  1.00  0.00    -0.041 A 
HETATM    5  C   LIG     1      15.539  30.313  14.579  1.00  0.00     0.009 A 
HETATM    6  C   LIG     1      15.776  31.254  15.584  1.00  0.00     0.016 A 
HETATM    7  C   LIG     1      14.760  31.606  16.489  1.00  0.00     0.013 A 
ENDROOT
BRANCH   4   8
HETATM    8  C   LIG     1      14.028  28.693  13.358  1.00  0.00     0.112 C 
HETATM    9  C   LIG     1      12.770  27.869  13.667  1.00  0.00     0.026 C 
BRANCH   8  10
HETATM   10  C   LIG     1      15.250  27.832  13.136  1.00  0.00     0.148 C 
HETATM   11  O   LIG     1      15.830  27.268  14.103  1.00  0.00    -0.649 OA
BRANCH  10  12
HETATM   12  O   LIG     1      15.753  27.655  11.851  1.00  0.00    -0.776 OA
HETATM   13  H   LIG     1      16.559  27.064  11.681  1.00  0.00     0.167 HD
ENDBRANCH  10  12
ENDBRANCH   8  10
ENDBRANCH   4   8
BRANCH   7  14
HETATM   14  C   LIG     1      15.028  32.602  17.554  1.00  0.00    -0.023 A 
HETATM   15  C   LIG     1      15.129  33.972  17.248  1.00  0.00     0.012 A 
HETATM   16  C   LIG     1      15.375  34.906  18.258  1.00  0.00     0.001 A 
HETATM   17  C   LIG     1      15.519  34.485  19.582  1.00  0.00     0.000 A 
HETATM   18  C   LIG     1      15.414  33.129  19.900  1.00  0.00     0.001 A 
HETATM   19  C   LIG     1      15.167  32.190  18.893  1.00  0.00     0.012 A 
ENDBRANCH   7  14
TORSDOF 4
ENDMDL
MODEL 13
REMARK VINA RESULT:      -5.6      4.897      7.497
REMARK  4 active torsions:
REMARK  status: ('A' for Active; 'I' for Inactive)
REMARK    1  A    between atoms: C_4  and  C_5 
REMARK    2  A    between atoms: C_5  and  C_6 
REMARK    3  A    between atoms: C_6  and  O_7 
REMARK    4  A    between atoms: C_12  and  C_13 
ROOT
HETATM    1  F   LIG     1      12.531  30.162  16.469  1.00  0.00    -0.205 F 
HETATM    2  C   LIG     1      13.589  30.921  16.089  1.00  0.00     0.128 A 
HETATM    3  C   LIG     1      13.834  32.122  16.763  1.00  0.00     0.051 A 
HETATM    4  C   LIG     1      14.941  32.922  16.423  1.00  0.00    -0.041 A 
HETATM    5  C   LIG     1      15.806  32.489  15.406  1.00  0.00     0.009 A 
HETATM    6  C   LIG     1      15.563  31.290  14.731  1.00  0.00     0.016 A 
HETATM    7  C   LIG     1      14.451  30.496  15.061  1.00  0.00     0.013 A 
ENDROOT
BRANCH   4   8
HETATM    8  C   LIG     1      15.218  34.215  17.159  1.00  0.00     0.112 C 
HETATM    9  C   LIG     1      16.429  34.932  16.546  1.00  0.00     0.026 C 
BRANCH   8  10
HETATM   10  C   LIG     1      15.379  33.958  18.640  1.00  0.00     0.148 C 
HETATM   11  O   LIG     1      15.744  32.829  19.065  1.00  0.00    -0.649 OA
BRANCH  10  12
HETATM   12  O   LIG     1      15.122  34.975  19.555  1.00  0.00    -0.776 OA
HETATM   13  H   LIG     1      15.024  34.776  20.544  1.00  0.00     0.167 HD
ENDBRANCH  10  12
ENDBRANCH   8  10
ENDBRANCH   4   8
BRANCH   7  14
HETATM   14  C   LIG     1      14.203  29.229  14.331  1.00  0.00    -0.023 A 
HETATM   15  C   LIG     1      15.275  28.463  13.838  1.00  0.00     0.012 A 
HETATM   16  C   LIG     1      15.034  27.265  13.158  1.00  0.00     0.001 A 
HETATM   17  C   LIG     1      13.725  26.819  12.966  1.00  0.00     0.000 A 
HETATM   18  C   LIG     1      12.653  27.567  13.457  1.00  0.00     0.001 A 
HETATM   19  C   LIG     1      12.888  28.765  14.139  1.00  0.00     0.012 A 
ENDBRANCH   7  14
TORSDOF 4
ENDMDL
MODEL 14
REMARK VINA RESULT:      -5.5      5.434      8.568
REMARK  4 active torsions:
REMARK  status: ('A' for Active; 'I' for Inactive)
REMARK    1  A    between atoms: C_4  and  C_5 
REMARK    2  A    between atoms: C_5  and  C_6 
REMARK    3  A    between atoms: C_6  and  O_7 
REMARK    4  A    between atoms: C_12  and  C_13 
ROOT
HETATM    1  F   LIG     1      13.847  31.118  19.137  1.00  0.00    -0.205 F 
HETATM    2  C   LIG     1      14.321  31.523  17.932  1.00  0.00     0.128 A 
HETATM    3  C   LIG     1      14.052  30.741  16.805  1.00  0.00     0.051 A 
HETATM    4  C   LIG     1      14.496  31.143  15.531  1.00  0.00    -0.041 A 
HETATM    5  C   LIG     1      15.200  32.350  15.406  1.00  0.00     0.009 A 
HETATM    6  C   LIG     1      15.470  33.134  16.532  1.00  0.00     0.016 A 
HETATM    7  C   LIG     1      15.039  32.727  17.806  1.00  0.00     0.013 A 
ENDROOT
BRANCH   4   8
HETATM    8  C   LIG     1      14.195  30.306  14.305  1.00  0.00     0.112 C 
HETATM    9  C   LIG     1      12.856  29.574  14.472  1.00  0.00     0.026 C 
BRANCH   8  10
HETATM   10  C   LIG     1      15.343  29.367  14.012  1.00  0.00     0.148 C 
HETATM   11  O   LIG     1      16.419  29.434  14.664  1.00  0.00    -0.649 OA
BRANCH  10  12
HETATM   12  O   LIG     1      15.220  28.412  13.007  1.00  0.00    -0.776 OA
HETATM   13  H   LIG     1      15.839  27.610  12.969  1.00  0.00     0.167 HD
ENDBRANCH  10  12
ENDBRANCH   8  10
ENDBRANCH   4   8
BRANCH   7  14
HETATM   14  C   LIG     1      15.338  33.566  18.992  1.00  0.00    -0.023 A 
HETATM   15  C   LIG     1      15.123  33.073  20.292  1.00  0.00     0.012 A 
HETATM   16  C   LIG     1      15.414  33.866  21.406  1.00  0.00     0.001 A 
HETATM   17  C   LIG     1      15.925  35.154  21.236  1.00  0.00     0.000 A 
HETATM   18  C   LIG     1      16.149  35.652  19.950  1.00  0.00     0.001 A 
HETATM   19  C   LIG     1      15.860  34.863  18.832  1.00  0.00     0.012 A 
ENDBRANCH   7  14
TORSDOF 4
ENDMDL
