REMARK  4 active torsions:
REMARK  status: ('A' for Active; 'I' for Inactive)
REMARK    1  A    between atoms: C_4  and  C_5 
REMARK    2  A    between atoms: C_5  and  C_6 
REMARK    3  A    between atoms: C_6  and  O_7 
REMARK    4  A    between atoms: C_12  and  C_13 
ROOT
HETATM    1  F   LIG     1       0.921   1.754  -1.423  1.00  0.00    -0.205 F 
HETATM    2  C   LIG     1       0.225   0.836  -0.706  1.00  0.00     0.128 A 
HETATM    3  C   LIG     1      -1.165   0.782  -0.848  1.00  0.00     0.051 A 
HETATM    4  C   LIG     1      -1.920  -0.178  -0.149  1.00  0.00    -0.041 A 
HETATM    5  C   LIG     1      -1.255  -1.092   0.683  1.00  0.00     0.009 A 
HETATM    6  C   LIG     1       0.134  -1.040   0.826  1.00  0.00     0.016 A 
HETATM    7  C   LIG     1       0.888  -0.074   0.139  1.00  0.00     0.013 A 
ENDROOT
BRANCH   4   8
HETATM    8  C   LIG     1      -3.424  -0.249  -0.310  1.00  0.00     0.112 C 
HETATM    9  C   LIG     1      -3.789  -0.737  -1.719  1.00  0.00     0.026 C 
BRANCH   8  10
HETATM   10  C   LIG     1      -4.056   1.081   0.030  1.00  0.00     0.148 C 
HETATM   11  O   LIG     1      -4.676   1.746  -0.843  1.00  0.00    -0.649 OA
BRANCH  10  12
HETATM   12  O   LIG     1      -3.956   1.589   1.322  1.00  0.00    -0.776 OA
HETATM   13  H   LIG     1      -3.466   1.079   2.048  1.00  0.00     0.167 HD
ENDBRANCH  10  12
ENDBRANCH   8  10
ENDBRANCH   4   8
BRANCH   7  14
HETATM   14  C   LIG     1       2.361  -0.027   0.306  1.00  0.00    -0.023 A 
HETATM   15  C   LIG     1       3.017   1.194   0.551  1.00  0.00     0.012 A 
HETATM   16  C   LIG     1       4.405   1.230   0.715  1.00  0.00     0.001 A 
HETATM   17  C   LIG     1       5.151   0.052   0.640  1.00  0.00     0.000 A 
HETATM   18  C   LIG     1       4.510  -1.167   0.404  1.00  0.00     0.001 A 
HETATM   19  C   LIG     1       3.122  -1.209   0.240  1.00  0.00     0.012 A 
ENDBRANCH   7  14
TORSDOF 4
