REMARK  1 active torsions:
REMARK  status: ('A' for Active; 'I' for Inactive)
REMARK    1  A    between atoms: C_19  and  O_20 
ROOT
HETATM    1  C   LIG     1       2.984   1.638   0.435  1.00  0.00     0.016 C 
HETATM    2  C   LIG     1       3.009   0.100   0.449  1.00  0.00     0.051 C 
HETATM    3  C   LIG     1       3.311  -0.616  -0.944  1.00  0.00     0.168 C 
HETATM    4  O   LIG     1       4.162  -1.741  -0.749  1.00  0.00    -0.354 OA
HETATM    5  C   LIG     1       5.485  -1.439  -0.317  1.00  0.00     0.175 C 
HETATM    6  C   LIG     1       6.032  -0.063  -0.761  1.00  0.00     0.005 C 
HETATM    7  C   LIG     1       7.564  -0.071  -0.830  1.00  0.00     0.012 C 
HETATM    8  C   LIG     1       5.426   0.332  -2.107  1.00  0.00     0.011 C 
HETATM    9  C   LIG     1       3.891   0.283  -2.078  1.00  0.00     0.069 C 
HETATM   10  O   LIG     1       2.073  -1.150  -1.430  1.00  0.00    -0.349 OA
HETATM   11  C   LIG     1       1.074  -0.644  -0.588  1.00  0.00     0.131 C 
HETATM   12  C   LIG     1      -0.171  -1.502  -0.368  1.00  0.00     0.038 C 
HETATM   13  C   LIG     1      -0.506  -1.341   1.154  1.00  0.00     0.001 C 
HETATM   14  C   LIG     1      -2.004  -1.096   1.518  1.00  0.00    -0.001 C 
HETATM   15  C   LIG     1      -2.906  -2.201   0.910  1.00  0.00     0.033 C 
HETATM   16  C   LIG     1      -3.447  -1.803  -0.427  1.00  0.00    -0.023 C 
HETATM   17  C   LIG     1      -3.908  -0.560  -0.642  1.00  0.00    -0.072 C 
HETATM   18  C   LIG     1      -4.333  -0.156  -2.039  1.00  0.00     0.066 C 
HETATM   19  C   LIG     1      -5.551   0.780  -1.999  1.00  0.00     0.122 C 
HETATM   20  C   LIG     1      -5.373   1.976  -1.022  1.00  0.00     0.033 C 
HETATM   21  C   LIG     1      -4.102   1.890  -0.156  1.00  0.00     0.016 C 
HETATM   22  C   LIG     1      -3.882   0.479   0.479  1.00  0.00    -0.017 C 
HETATM   23  C   LIG     1      -5.066   0.214   1.452  1.00  0.00     0.020 C 
HETATM   24  C   LIG     1      -2.522   0.380   1.295  1.00  0.00     0.003 C 
HETATM   25  C   LIG     1      -1.393   1.298   0.778  1.00  0.00     0.007 C 
HETATM   26  C   LIG     1      -0.122   1.173   1.631  1.00  0.00     0.010 C 
HETATM   27  C   LIG     1       0.492  -0.268   1.706  1.00  0.00    -0.033 C 
HETATM   28  C   LIG     1       0.906  -0.576   3.163  1.00  0.00     0.016 C 
HETATM   29  C   LIG     1       1.679  -0.556   0.755  1.00  0.00     0.032 C 
ENDROOT
BRANCH  19  30
HETATM   30  O   LIG     1      -6.689   0.033  -1.649  1.00  0.00    -0.395 OA
HETATM   31  H   LIG     1      -7.479   0.568  -1.921  1.00  0.00     0.210 HD
ENDBRANCH  19  30
TORSDOF 1
