MODEL 1
REMARK VINA RESULT:      -6.5      0.000      0.000
REMARK  1 active torsions:
REMARK  status: ('A' for Active; 'I' for Inactive)
REMARK    1  A    between atoms: C_19  and  O_20 
ROOT
HETATM    1  C   LIG     1      29.550  28.846  34.864  1.00  0.00     0.016 C 
HETATM    2  C   LIG     1      28.269  29.327  34.162  1.00  0.00     0.051 C 
HETATM    3  C   LIG     1      26.888  28.873  34.819  1.00  0.00     0.168 C 
HETATM    4  O   LIG     1      25.943  29.937  34.773  1.00  0.00    -0.354 OA
HETATM    5  C   LIG     1      26.258  31.068  35.579  1.00  0.00     0.175 C 
HETATM    6  C   LIG     1      27.101  30.773  36.840  1.00  0.00     0.005 C 
HETATM    7  C   LIG     1      26.862  31.828  37.927  1.00  0.00     0.012 C 
HETATM    8  C   LIG     1      26.790  29.371  37.362  1.00  0.00     0.011 C 
HETATM    9  C   LIG     1      26.960  28.305  36.269  1.00  0.00     0.069 C 
HETATM   10  O   LIG     1      26.340  27.837  33.994  1.00  0.00    -0.349 OA
HETATM   11  C   LIG     1      27.339  27.505  33.070  1.00  0.00     0.131 C 
HETATM   12  C   LIG     1      26.898  27.007  31.695  1.00  0.00     0.038 C 
HETATM   13  C   LIG     1      27.888  27.683  30.686  1.00  0.00     0.001 C 
HETATM   14  C   LIG     1      28.478  26.768  29.567  1.00  0.00    -0.001 C 
HETATM   15  C   LIG     1      27.345  26.064  28.777  1.00  0.00     0.033 C 
HETATM   16  C   LIG     1      27.033  24.713  29.339  1.00  0.00    -0.023 C 
HETATM   17  C   LIG     1      28.016  23.880  29.718  1.00  0.00    -0.072 C 
HETATM   18  C   LIG     1      27.662  22.573  30.397  1.00  0.00     0.066 C 
HETATM   19  C   LIG     1      28.621  21.450  29.971  1.00  0.00     0.122 C 
HETATM   20  C   LIG     1      30.119  21.843  30.099  1.00  0.00     0.033 C 
HETATM   21  C   LIG     1      30.348  23.326  30.447  1.00  0.00     0.016 C 
HETATM   22  C   LIG     1      29.479  24.302  29.589  1.00  0.00    -0.017 C 
HETATM   23  C   LIG     1      29.928  24.148  28.107  1.00  0.00     0.020 C 
HETATM   24  C   LIG     1      29.659  25.821  30.019  1.00  0.00     0.003 C 
HETATM   25  C   LIG     1      30.006  26.031  31.509  1.00  0.00     0.007 C 
HETATM   26  C   LIG     1      30.196  27.517  31.846  1.00  0.00     0.010 C 
HETATM   27  C   LIG     1      28.953  28.429  31.558  1.00  0.00    -0.033 C 
HETATM   28  C   LIG     1      29.421  29.739  30.883  1.00  0.00     0.016 C 
HETATM   29  C   LIG     1      28.053  28.762  32.773  1.00  0.00     0.032 C 
ENDROOT
BRANCH  19  30
HETATM   30  O   LIG     1      28.328  21.077  28.648  1.00  0.00    -0.395 OA
HETATM   31  H   LIG     1      27.439  20.638  28.663  1.00  0.00     0.210 HD
ENDBRANCH  19  30
TORSDOF 1
ENDMDL
MODEL 2
REMARK VINA RESULT:      -6.2      8.891     12.103
REMARK  1 active torsions:
REMARK  status: ('A' for Active; 'I' for Inactive)
REMARK    1  A    between atoms: C_19  and  O_20 
ROOT
HETATM    1  C   LIG     1      27.568  21.284  24.803  1.00  0.00     0.016 C 
HETATM    2  C   LIG     1      27.017  22.688  24.502  1.00  0.00     0.051 C 
HETATM    3  C   LIG     1      25.587  23.034  25.118  1.00  0.00     0.168 C 
HETATM    4  O   LIG     1      25.563  24.376  25.594  1.00  0.00    -0.354 OA
HETATM    5  C   LIG     1      26.402  24.642  26.714  1.00  0.00     0.175 C 
HETATM    6  C   LIG     1      26.657  23.442  27.654  1.00  0.00     0.005 C 
HETATM    7  C   LIG     1      26.988  23.911  29.076  1.00  0.00     0.012 C 
HETATM    8  C   LIG     1      25.447  22.510  27.654  1.00  0.00     0.011 C 
HETATM    9  C   LIG     1      25.058  22.079  26.231  1.00  0.00     0.069 C 
HETATM   10  O   LIG     1      24.635  22.989  24.047  1.00  0.00    -0.349 OA
HETATM   11  C   LIG     1      25.316  22.457  22.944  1.00  0.00     0.131 C 
HETATM   12  C   LIG     1      24.873  22.905  21.552  1.00  0.00     0.038 C 
HETATM   13  C   LIG     1      26.204  23.088  20.746  1.00  0.00     0.001 C 
HETATM   14  C   LIG     1      26.233  22.499  19.301  1.00  0.00    -0.001 C 
HETATM   15  C   LIG     1      25.048  23.042  18.461  1.00  0.00     0.033 C 
HETATM   16  C   LIG     1      23.863  22.130  18.518  1.00  0.00    -0.023 C 
HETATM   17  C   LIG     1      24.013  20.798  18.430  1.00  0.00    -0.072 C 
HETATM   18  C   LIG     1      22.807  19.900  18.615  1.00  0.00     0.066 C 
HETATM   19  C   LIG     1      22.875  18.681  17.682  1.00  0.00     0.122 C 
HETATM   20  C   LIG     1      24.236  17.933  17.750  1.00  0.00     0.033 C 
HETATM   21  C   LIG     1      25.305  18.658  18.590  1.00  0.00     0.016 C 
HETATM   22  C   LIG     1      25.405  20.185  18.276  1.00  0.00    -0.017 C 
HETATM   23  C   LIG     1      25.869  20.330  16.799  1.00  0.00     0.020 C 
HETATM   24  C   LIG     1      26.447  20.936  19.212  1.00  0.00     0.003 C 
HETATM   25  C   LIG     1      26.618  20.312  20.614  1.00  0.00     0.007 C 
HETATM   26  C   LIG     1      27.661  21.069  21.450  1.00  0.00     0.010 C 
HETATM   27  C   LIG     1      27.352  22.588  21.687  1.00  0.00    -0.033 C 
HETATM   28  C   LIG     1      28.644  23.413  21.490  1.00  0.00     0.016 C 
HETATM   29  C   LIG     1      26.703  22.951  23.044  1.00  0.00     0.032 C 
ENDROOT
BRANCH  19  30
HETATM   30  O   LIG     1      22.616  19.099  16.365  1.00  0.00    -0.395 OA
HETATM   31  H   LIG     1      22.788  20.076  16.335  1.00  0.00     0.210 HD
ENDBRANCH  19  30
TORSDOF 1
ENDMDL
MODEL 3
REMARK VINA RESULT:      -6.0      9.671     14.815
REMARK  1 active torsions:
REMARK  status: ('A' for Active; 'I' for Inactive)
REMARK    1  A    between atoms: C_19  and  O_20 
ROOT
HETATM    1  C   LIG     1      22.595  21.516  18.670  1.00  0.00     0.016 C 
HETATM    2  C   LIG     1      23.863  20.717  18.323  1.00  0.00     0.051 C 
HETATM    3  C   LIG     1      23.782  19.137  18.528  1.00  0.00     0.168 C 
HETATM    4  O   LIG     1      24.451  18.465  17.466  1.00  0.00    -0.354 OA
HETATM    5  C   LIG     1      23.847  18.595  16.183  1.00  0.00     0.175 C 
HETATM    6  C   LIG     1      22.315  18.802  16.187  1.00  0.00     0.005 C 
HETATM    7  C   LIG     1      21.684  18.307  14.880  1.00  0.00     0.012 C 
HETATM    8  C   LIG     1      21.695  18.097  17.393  1.00  0.00     0.011 C 
HETATM    9  C   LIG     1      22.358  18.531  18.710  1.00  0.00     0.069 C 
HETATM   10  O   LIG     1      24.523  18.819  19.712  1.00  0.00    -0.349 OA
HETATM   11  C   LIG     1      24.837  20.043  20.316  1.00  0.00     0.131 C 
HETATM   12  C   LIG     1      26.129  20.125  21.127  1.00  0.00     0.038 C 
HETATM   13  C   LIG     1      26.733  21.528  20.780  1.00  0.00     0.001 C 
HETATM   14  C   LIG     1      27.271  22.374  21.976  1.00  0.00    -0.001 C 
HETATM   15  C   LIG     1      28.303  21.563  22.803  1.00  0.00     0.033 C 
HETATM   16  C   LIG     1      27.658  20.850  23.949  1.00  0.00    -0.023 C 
HETATM   17  C   LIG     1      26.728  21.457  24.704  1.00  0.00    -0.072 C 
HETATM   18  C   LIG     1      26.008  20.665  25.777  1.00  0.00     0.066 C 
HETATM   19  C   LIG     1      25.735  21.532  27.016  1.00  0.00     0.122 C 
HETATM   20  C   LIG     1      25.062  22.892  26.677  1.00  0.00     0.033 C 
HETATM   21  C   LIG     1      24.972  23.183  25.167  1.00  0.00     0.016 C 
HETATM   22  C   LIG     1      26.303  22.894  24.401  1.00  0.00    -0.017 C 
HETATM   23  C   LIG     1      27.380  23.874  24.949  1.00  0.00     0.020 C 
HETATM   24  C   LIG     1      26.168  23.112  22.833  1.00  0.00     0.003 C 
HETATM   25  C   LIG     1      24.754  22.856  22.267  1.00  0.00     0.007 C 
HETATM   26  C   LIG     1      24.691  23.116  20.755  1.00  0.00     0.010 C 
HETATM   27  C   LIG     1      25.668  22.250  19.887  1.00  0.00    -0.033 C 
HETATM   28  C   LIG     1      26.336  23.143  18.817  1.00  0.00     0.016 C 
HETATM   29  C   LIG     1      25.056  20.998  19.212  1.00  0.00     0.032 C 
ENDROOT
BRANCH  19  30
HETATM   30  O   LIG     1      26.944  21.746  27.699  1.00  0.00    -0.395 OA
HETATM   31  H   LIG     1      26.749  22.378  28.439  1.00  0.00     0.210 HD
ENDBRANCH  19  30
TORSDOF 1
ENDMDL
MODEL 4
REMARK VINA RESULT:      -5.9     11.487     13.940
REMARK  1 active torsions:
REMARK  status: ('A' for Active; 'I' for Inactive)
REMARK    1  A    between atoms: C_19  and  O_20 
ROOT
HETATM    1  C   LIG     1      22.486  21.682  21.959  1.00  0.00     0.016 C 
HETATM    2  C   LIG     1      23.427  20.466  21.919  1.00  0.00     0.051 C 
HETATM    3  C   LIG     1      24.276  20.184  23.239  1.00  0.00     0.168 C 
HETATM    4  O   LIG     1      24.342  18.785  23.497  1.00  0.00    -0.354 OA
HETATM    5  C   LIG     1      23.106  18.168  23.843  1.00  0.00     0.175 C 
HETATM    6  C   LIG     1      22.080  19.084  24.547  1.00  0.00     0.005 C 
HETATM    7  C   LIG     1      21.117  18.271  25.420  1.00  0.00     0.012 C 
HETATM    8  C   LIG     1      22.805  20.145  25.374  1.00  0.00     0.011 C 
HETATM    9  C   LIG     1      23.822  20.928  24.532  1.00  0.00     0.069 C 
HETATM   10  O   LIG     1      25.625  20.591  22.978  1.00  0.00    -0.349 OA
HETATM   11  C   LIG     1      25.598  21.260  21.747  1.00  0.00     0.131 C 
HETATM   12  C   LIG     1      26.851  21.196  20.875  1.00  0.00     0.038 C 
HETATM   13  C   LIG     1      26.315  21.022  19.413  1.00  0.00     0.001 C 
HETATM   14  C   LIG     1      26.981  21.909  18.315  1.00  0.00    -0.001 C 
HETATM   15  C   LIG     1      28.521  21.728  18.320  1.00  0.00     0.033 C 
HETATM   16  C   LIG     1      29.198  22.753  19.174  1.00  0.00    -0.023 C 
HETATM   17  C   LIG     1      28.812  24.039  19.145  1.00  0.00    -0.072 C 
HETATM   18  C   LIG     1      29.436  25.025  20.112  1.00  0.00     0.066 C 
HETATM   19  C   LIG     1      29.626  26.401  19.455  1.00  0.00     0.122 C 
HETATM   20  C   LIG     1      28.342  26.928  18.755  1.00  0.00     0.033 C 
HETATM   21  C   LIG     1      27.197  25.900  18.696  1.00  0.00     0.016 C 
HETATM   22  C   LIG     1      27.664  24.481  18.238  1.00  0.00    -0.017 C 
HETATM   23  C   LIG     1      28.183  24.608  16.777  1.00  0.00     0.020 C 
HETATM   24  C   LIG     1      26.490  23.410  18.268  1.00  0.00     0.003 C 
HETATM   25  C   LIG     1      25.402  23.678  19.331  1.00  0.00     0.007 C 
HETATM   26  C   LIG     1      24.287  22.624  19.281  1.00  0.00     0.010 C 
HETATM   27  C   LIG     1      24.757  21.144  19.506  1.00  0.00    -0.033 C 
HETATM   28  C   LIG     1      24.055  20.221  18.485  1.00  0.00     0.016 C 
HETATM   29  C   LIG     1      24.572  20.578  20.935  1.00  0.00     0.032 C 
ENDROOT
BRANCH  19  30
HETATM   30  O   LIG     1      30.684  26.324  18.533  1.00  0.00    -0.395 OA
HETATM   31  H   LIG     1      31.519  26.504  19.038  1.00  0.00     0.210 HD
ENDBRANCH  19  30
TORSDOF 1
ENDMDL
MODEL 5
REMARK VINA RESULT:      -5.9     11.357     13.578
REMARK  1 active torsions:
REMARK  status: ('A' for Active; 'I' for Inactive)
REMARK    1  A    between atoms: C_19  and  O_20 
ROOT
HETATM    1  C   LIG     1      23.607  21.424  24.820  1.00  0.00     0.016 C 
HETATM    2  C   LIG     1      22.810  20.568  23.820  1.00  0.00     0.051 C 
HETATM    3  C   LIG     1      23.163  19.013  23.780  1.00  0.00     0.168 C 
HETATM    4  O   LIG     1      21.977  18.239  23.634  1.00  0.00    -0.354 OA
HETATM    5  C   LIG     1      21.082  18.276  24.741  1.00  0.00     0.175 C 
HETATM    6  C   LIG     1      21.740  18.519  26.119  1.00  0.00     0.005 C 
HETATM    7  C   LIG     1      20.887  17.933  27.252  1.00  0.00     0.012 C 
HETATM    8  C   LIG     1      23.151  17.933  26.137  1.00  0.00     0.011 C 
HETATM    9  C   LIG     1      24.001  18.458  24.971  1.00  0.00     0.069 C 
HETATM   10  O   LIG     1      23.925  18.776  22.590  1.00  0.00    -0.349 OA
HETATM   11  C   LIG     1      24.224  20.039  22.062  1.00  0.00     0.131 C 
HETATM   12  C   LIG     1      24.377  20.157  20.546  1.00  0.00     0.038 C 
HETATM   13  C   LIG     1      23.682  21.512  20.176  1.00  0.00     0.001 C 
HETATM   14  C   LIG     1      24.445  22.441  19.181  1.00  0.00    -0.001 C 
HETATM   15  C   LIG     1      24.802  21.678  17.880  1.00  0.00     0.033 C 
HETATM   16  C   LIG     1      26.171  21.077  17.946  1.00  0.00    -0.023 C 
HETATM   17  C   LIG     1      27.203  21.767  18.460  1.00  0.00    -0.072 C 
HETATM   18  C   LIG     1      28.545  21.085  18.624  1.00  0.00     0.066 C 
HETATM   19  C   LIG     1      29.700  22.058  18.340  1.00  0.00     0.122 C 
HETATM   20  C   LIG     1      29.575  23.401  19.114  1.00  0.00     0.033 C 
HETATM   21  C   LIG     1      28.238  23.567  19.862  1.00  0.00     0.016 C 
HETATM   22  C   LIG     1      26.995  23.184  18.996  1.00  0.00    -0.017 C 
HETATM   23  C   LIG     1      26.930  24.180  17.803  1.00  0.00     0.020 C 
HETATM   24  C   LIG     1      25.632  23.274  19.808  1.00  0.00     0.003 C 
HETATM   25  C   LIG     1      25.766  23.006  21.323  1.00  0.00     0.007 C 
HETATM   26  C   LIG     1      24.419  23.141  22.047  1.00  0.00     0.010 C 
HETATM   27  C   LIG     1      23.288  22.182  21.536  1.00  0.00    -0.033 C 
HETATM   28  C   LIG     1      21.962  22.967  21.418  1.00  0.00     0.016 C 
HETATM   29  C   LIG     1      23.059  20.893  22.363  1.00  0.00     0.032 C 
ENDROOT
BRANCH  19  30
HETATM   30  O   LIG     1      29.764  22.299  16.957  1.00  0.00    -0.395 OA
HETATM   31  H   LIG     1      29.581  21.435  16.506  1.00  0.00     0.210 HD
ENDBRANCH  19  30
TORSDOF 1
ENDMDL
MODEL 6
REMARK VINA RESULT:      -5.7      5.604     10.903
REMARK  1 active torsions:
REMARK  status: ('A' for Active; 'I' for Inactive)
REMARK    1  A    between atoms: C_19  and  O_20 
ROOT
HETATM    1  C   LIG     1      26.522  23.166  21.729  1.00  0.00     0.016 C 
HETATM    2  C   LIG     1      25.937  22.023  22.576  1.00  0.00     0.051 C 
HETATM    3  C   LIG     1      24.390  22.140  22.950  1.00  0.00     0.168 C 
HETATM    4  O   LIG     1      23.763  20.864  22.867  1.00  0.00    -0.354 OA
HETATM    5  C   LIG     1      23.675  20.311  21.558  1.00  0.00     0.175 C 
HETATM    6  C   LIG     1      23.603  21.338  20.405  1.00  0.00     0.005 C 
HETATM    7  C   LIG     1      22.897  20.747  19.178  1.00  0.00     0.012 C 
HETATM    8  C   LIG     1      22.903  22.610  20.879  1.00  0.00     0.011 C 
HETATM    9  C   LIG     1      23.556  23.183  22.146  1.00  0.00     0.069 C 
HETATM   10  O   LIG     1      24.310  22.519  24.330  1.00  0.00    -0.349 OA
HETATM   11  C   LIG     1      25.617  22.833  24.724  1.00  0.00     0.131 C 
HETATM   12  C   LIG     1      25.996  22.591  26.184  1.00  0.00     0.038 C 
HETATM   13  C   LIG     1      27.451  22.012  26.131  1.00  0.00     0.001 C 
HETATM   14  C   LIG     1      28.476  22.600  27.150  1.00  0.00    -0.001 C 
HETATM   15  C   LIG     1      27.935  22.492  28.600  1.00  0.00     0.033 C 
HETATM   16  C   LIG     1      27.216  23.735  29.018  1.00  0.00    -0.023 C 
HETATM   17  C   LIG     1      27.707  24.949  28.722  1.00  0.00    -0.072 C 
HETATM   18  C   LIG     1      26.892  26.183  29.053  1.00  0.00     0.066 C 
HETATM   19  C   LIG     1      27.796  27.340  29.505  1.00  0.00     0.122 C 
HETATM   20  C   LIG     1      28.980  27.607  28.534  1.00  0.00     0.033 C 
HETATM   21  C   LIG     1      29.123  26.554  27.419  1.00  0.00     0.016 C 
HETATM   22  C   LIG     1      29.015  25.085  27.941  1.00  0.00    -0.017 C 
HETATM   23  C   LIG     1      30.214  24.839  28.901  1.00  0.00     0.020 C 
HETATM   24  C   LIG     1      29.074  24.013  26.770  1.00  0.00     0.003 C 
HETATM   25  C   LIG     1      28.522  24.508  25.415  1.00  0.00     0.007 C 
HETATM   26  C   LIG     1      28.640  23.433  24.325  1.00  0.00     0.010 C 
HETATM   27  C   LIG     1      27.893  22.089  24.631  1.00  0.00    -0.033 C 
HETATM   28  C   LIG     1      28.799  20.897  24.245  1.00  0.00     0.016 C 
HETATM   29  C   LIG     1      26.500  21.916  23.978  1.00  0.00     0.032 C 
ENDROOT
BRANCH  19  30
HETATM   30  O   LIG     1      28.279  27.065  30.795  1.00  0.00    -0.395 OA
HETATM   31  H   LIG     1      29.056  27.664  30.946  1.00  0.00     0.210 HD
ENDBRANCH  19  30
TORSDOF 1
ENDMDL
MODEL 7
REMARK VINA RESULT:      -5.7      3.203      5.131
REMARK  1 active torsions:
REMARK  status: ('A' for Active; 'I' for Inactive)
REMARK    1  A    between atoms: C_19  and  O_20 
ROOT
HETATM    1  C   LIG     1      28.300  24.869  32.583  1.00  0.00     0.016 C 
HETATM    2  C   LIG     1      28.562  25.820  31.402  1.00  0.00     0.051 C 
HETATM    3  C   LIG     1      27.550  27.042  31.240  1.00  0.00     0.168 C 
HETATM    4  O   LIG     1      28.253  28.221  30.859  1.00  0.00    -0.354 OA
HETATM    5  C   LIG     1      29.142  28.746  31.839  1.00  0.00     0.175 C 
HETATM    6  C   LIG     1      28.758  28.458  33.309  1.00  0.00     0.005 C 
HETATM    7  C   LIG     1      29.334  29.522  34.251  1.00  0.00     0.012 C 
HETATM    8  C   LIG     1      27.239  28.371  33.445  1.00  0.00     0.011 C 
HETATM    9  C   LIG     1      26.635  27.356  32.462  1.00  0.00     0.069 C 
HETATM   10  O   LIG     1      26.683  26.739  30.140  1.00  0.00    -0.349 OA
HETATM   11  C   LIG     1      26.944  25.406  29.794  1.00  0.00     0.131 C 
HETATM   12  C   LIG     1      26.758  25.002  28.333  1.00  0.00     0.038 C 
HETATM   13  C   LIG     1      27.958  24.043  28.025  1.00  0.00     0.001 C 
HETATM   14  C   LIG     1      27.624  22.734  27.243  1.00  0.00    -0.001 C 
HETATM   15  C   LIG     1      26.876  23.056  25.924  1.00  0.00     0.033 C 
HETATM   16  C   LIG     1      25.391  23.007  26.101  1.00  0.00    -0.023 C 
HETATM   17  C   LIG     1      24.814  22.027  26.815  1.00  0.00    -0.072 C 
HETATM   18  C   LIG     1      23.323  22.078  27.077  1.00  0.00     0.066 C 
HETATM   19  C   LIG     1      22.708  20.670  27.052  1.00  0.00     0.122 C 
HETATM   20  C   LIG     1      23.472  19.651  27.943  1.00  0.00     0.033 C 
HETATM   21  C   LIG     1      24.789  20.197  28.525  1.00  0.00     0.016 C 
HETATM   22  C   LIG     1      25.669  20.942  27.470  1.00  0.00    -0.017 C 
HETATM   23  C   LIG     1      26.090  19.902  26.394  1.00  0.00     0.020 C 
HETATM   24  C   LIG     1      26.980  21.576  28.105  1.00  0.00     0.003 C 
HETATM   25  C   LIG     1      26.843  21.990  29.586  1.00  0.00     0.007 C 
HETATM   26  C   LIG     1      28.155  22.565  30.140  1.00  0.00     0.010 C 
HETATM   27  C   LIG     1      28.701  23.828  29.387  1.00  0.00    -0.033 C 
HETATM   28  C   LIG     1      30.226  23.686  29.184  1.00  0.00     0.016 C 
HETATM   29  C   LIG     1      28.386  25.199  30.033  1.00  0.00     0.032 C 
ENDROOT
BRANCH  19  30
HETATM   30  O   LIG     1      22.665  20.215  25.722  1.00  0.00    -0.395 OA
HETATM   31  H   LIG     1      21.743  19.886  25.561  1.00  0.00     0.210 HD
ENDBRANCH  19  30
TORSDOF 1
ENDMDL
MODEL 8
REMARK VINA RESULT:      -5.4      5.438      8.578
REMARK  1 active torsions:
REMARK  status: ('A' for Active; 'I' for Inactive)
REMARK    1  A    between atoms: C_19  and  O_20 
ROOT
HETATM    1  C   LIG     1      26.223  23.779  28.215  1.00  0.00     0.016 C 
HETATM    2  C   LIG     1      27.746  23.992  28.263  1.00  0.00     0.051 C 
HETATM    3  C   LIG     1      28.244  25.496  28.450  1.00  0.00     0.168 C 
HETATM    4  O   LIG     1      29.362  25.542  29.331  1.00  0.00    -0.354 OA
HETATM    5  C   LIG     1      29.090  25.186  30.683  1.00  0.00     0.175 C 
HETATM    6  C   LIG     1      27.650  25.469  31.168  1.00  0.00     0.005 C 
HETATM    7  C   LIG     1      27.606  25.670  32.688  1.00  0.00     0.012 C 
HETATM    8  C   LIG     1      27.081  26.685  30.439  1.00  0.00     0.011 C 
HETATM    9  C   LIG     1      27.175  26.532  28.914  1.00  0.00     0.069 C 
HETATM   10  O   LIG     1      28.736  25.947  27.181  1.00  0.00    -0.349 OA
HETATM   11  C   LIG     1      28.384  24.957  26.254  1.00  0.00     0.131 C 
HETATM   12  C   LIG     1      29.298  24.758  25.046  1.00  0.00     0.038 C 
HETATM   13  C   LIG     1      29.369  23.206  24.846  1.00  0.00     0.001 C 
HETATM   14  C   LIG     1      29.220  22.683  23.383  1.00  0.00    -0.001 C 
HETATM   15  C   LIG     1      30.249  23.366  22.446  1.00  0.00     0.033 C 
HETATM   16  C   LIG     1      29.677  24.579  21.783  1.00  0.00    -0.023 C 
HETATM   17  C   LIG     1      28.428  24.569  21.287  1.00  0.00    -0.072 C 
HETATM   18  C   LIG     1      27.838  25.850  20.733  1.00  0.00     0.066 C 
HETATM   19  C   LIG     1      26.951  25.568  19.510  1.00  0.00     0.122 C 
HETATM   20  C   LIG     1      25.905  24.446  19.757  1.00  0.00     0.033 C 
HETATM   21  C   LIG     1      26.081  23.714  21.102  1.00  0.00     0.016 C 
HETATM   22  C   LIG     1      27.562  23.314  21.397  1.00  0.00    -0.017 C 
HETATM   23  C   LIG     1      27.997  22.292  20.309  1.00  0.00     0.020 C 
HETATM   24  C   LIG     1      27.741  22.642  22.826  1.00  0.00     0.003 C 
HETATM   25  C   LIG     1      26.728  23.114  23.891  1.00  0.00     0.007 C 
HETATM   26  C   LIG     1      26.941  22.401  25.235  1.00  0.00     0.010 C 
HETATM   27  C   LIG     1      28.360  22.591  25.874  1.00  0.00    -0.033 C 
HETATM   28  C   LIG     1      28.864  21.236  26.420  1.00  0.00     0.016 C 
HETATM   29  C   LIG     1      28.475  23.672  26.975  1.00  0.00     0.032 C 
ENDROOT
BRANCH  19  30
HETATM   30  O   LIG     1      27.772  25.235  18.419  1.00  0.00    -0.395 OA
HETATM   31  H   LIG     1      28.609  24.856  18.793  1.00  0.00     0.210 HD
ENDBRANCH  19  30
TORSDOF 1
ENDMDL
MODEL 9
REMARK VINA RESULT:      -5.4      8.121     11.430
REMARK  1 active torsions:
REMARK  status: ('A' for Active; 'I' for Inactive)
REMARK    1  A    between atoms: C_19  and  O_20 
ROOT
HETATM    1  C   LIG     1      27.851  20.251  26.004  1.00  0.00     0.016 C 
HETATM    2  C   LIG     1      26.624  21.040  26.492  1.00  0.00     0.051 C 
HETATM    3  C   LIG     1      25.432  20.183  27.115  1.00  0.00     0.168 C 
HETATM    4  O   LIG     1      24.881  20.849  28.247  1.00  0.00    -0.354 OA
HETATM    5  C   LIG     1      25.745  20.954  29.374  1.00  0.00     0.175 C 
HETATM    6  C   LIG     1      26.796  19.830  29.514  1.00  0.00     0.005 C 
HETATM    7  C   LIG     1      27.219  19.645  30.977  1.00  0.00     0.012 C 
HETATM    8  C   LIG     1      26.249  18.526  28.934  1.00  0.00     0.011 C 
HETATM    9  C   LIG     1      25.759  18.705  27.490  1.00  0.00     0.069 C 
HETATM   10  O   LIG     1      24.380  20.141  26.143  1.00  0.00    -0.349 OA
HETATM   11  C   LIG     1      24.912  20.692  24.969  1.00  0.00     0.131 C 
HETATM   12  C   LIG     1      23.953  21.421  24.029  1.00  0.00     0.038 C 
HETATM   13  C   LIG     1      24.753  22.673  23.532  1.00  0.00     0.001 C 
HETATM   14  C   LIG     1      24.681  22.988  22.005  1.00  0.00    -0.001 C 
HETATM   15  C   LIG     1      23.208  23.102  21.535  1.00  0.00     0.033 C 
HETATM   16  C   LIG     1      22.688  21.800  21.015  1.00  0.00    -0.023 C 
HETATM   17  C   LIG     1      23.442  21.024  20.220  1.00  0.00    -0.072 C 
HETATM   18  C   LIG     1      22.931  19.657  19.813  1.00  0.00     0.066 C 
HETATM   19  C   LIG     1      23.338  19.319  18.370  1.00  0.00     0.122 C 
HETATM   20  C   LIG     1      24.852  19.536  18.094  1.00  0.00     0.033 C 
HETATM   21  C   LIG     1      25.607  20.215  19.252  1.00  0.00     0.016 C 
HETATM   22  C   LIG     1      24.856  21.457  19.834  1.00  0.00    -0.017 C 
HETATM   23  C   LIG     1      24.777  22.526  18.707  1.00  0.00     0.020 C 
HETATM   24  C   LIG     1      25.602  22.092  21.085  1.00  0.00     0.003 C 
HETATM   25  C   LIG     1      26.423  21.088  21.923  1.00  0.00     0.007 C 
HETATM   26  C   LIG     1      27.140  21.775  23.094  1.00  0.00     0.010 C 
HETATM   27  C   LIG     1      26.201  22.518  24.107  1.00  0.00    -0.033 C 
HETATM   28  C   LIG     1      26.817  23.889  24.469  1.00  0.00     0.016 C 
HETATM   29  C   LIG     1      25.847  21.748  25.402  1.00  0.00     0.032 C 
ENDROOT
BRANCH  19  30
HETATM   30  O   LIG     1      22.567  20.095  17.486  1.00  0.00    -0.395 OA
HETATM   31  H   LIG     1      21.829  20.490  18.019  1.00  0.00     0.210 HD
ENDBRANCH  19  30
TORSDOF 1
ENDMDL
MODEL 10
REMARK VINA RESULT:      -5.3      7.810     11.063
REMARK  1 active torsions:
REMARK  status: ('A' for Active; 'I' for Inactive)
REMARK    1  A    between atoms: C_19  and  O_20 
ROOT
HETATM    1  C   LIG     1      26.988  22.383  27.701  1.00  0.00     0.016 C 
HETATM    2  C   LIG     1      26.359  20.982  27.781  1.00  0.00     0.051 C 
HETATM    3  C   LIG     1      27.347  19.749  27.560  1.00  0.00     0.168 C 
HETATM    4  O   LIG     1      27.029  18.691  28.459  1.00  0.00    -0.354 OA
HETATM    5  C   LIG     1      27.261  18.969  29.836  1.00  0.00     0.175 C 
HETATM    6  C   LIG     1      28.390  19.984  30.129  1.00  0.00     0.005 C 
HETATM    7  C   LIG     1      28.991  19.759  31.522  1.00  0.00     0.012 C 
HETATM    8  C   LIG     1      29.466  19.898  29.048  1.00  0.00     0.011 C 
HETATM    9  C   LIG     1      28.873  20.056  27.639  1.00  0.00     0.069 C 
HETATM   10  O   LIG     1      27.097  19.227  26.249  1.00  0.00    -0.349 OA
HETATM   11  C   LIG     1      26.238  20.142  25.624  1.00  0.00     0.131 C 
HETATM   12  C   LIG     1      25.259  19.600  24.583  1.00  0.00     0.038 C 
HETATM   13  C   LIG     1      23.926  20.380  24.841  1.00  0.00     0.001 C 
HETATM   14  C   LIG     1      23.184  20.932  23.583  1.00  0.00    -0.001 C 
HETATM   15  C   LIG     1      22.924  19.800  22.556  1.00  0.00     0.033 C 
HETATM   16  C   LIG     1      24.017  19.712  21.539  1.00  0.00    -0.023 C 
HETATM   17  C   LIG     1      24.539  20.820  20.989  1.00  0.00    -0.072 C 
HETATM   18  C   LIG     1      25.727  20.699  20.056  1.00  0.00     0.066 C 
HETATM   19  C   LIG     1      25.639  21.722  18.912  1.00  0.00     0.122 C 
HETATM   20  C   LIG     1      25.368  23.171  19.405  1.00  0.00     0.033 C 
HETATM   21  C   LIG     1      25.058  23.270  20.910  1.00  0.00     0.016 C 
HETATM   22  C   LIG     1      24.029  22.201  21.401  1.00  0.00    -0.017 C 
HETATM   23  C   LIG     1      22.680  22.486  20.680  1.00  0.00     0.020 C 
HETATM   24  C   LIG     1      23.788  22.258  22.970  1.00  0.00     0.003 C 
HETATM   25  C   LIG     1      24.999  22.754  23.790  1.00  0.00     0.007 C 
HETATM   26  C   LIG     1      24.685  22.812  25.292  1.00  0.00     0.010 C 
HETATM   27  C   LIG     1      24.254  21.449  25.937  1.00  0.00    -0.033 C 
HETATM   28  C   LIG     1      23.052  21.683  26.880  1.00  0.00     0.016 C 
HETATM   29  C   LIG     1      25.360  20.668  26.687  1.00  0.00     0.032 C 
ENDROOT
BRANCH  19  30
HETATM   30  O   LIG     1      24.635  21.318  18.015  1.00  0.00    -0.395 OA
HETATM   31  H   LIG     1      24.805  20.364  17.803  1.00  0.00     0.210 HD
ENDBRANCH  19  30
TORSDOF 1
ENDMDL
MODEL 11
REMARK VINA RESULT:      -5.3      8.069     11.767
REMARK  1 active torsions:
REMARK  status: ('A' for Active; 'I' for Inactive)
REMARK    1  A    between atoms: C_19  and  O_20 
ROOT
HETATM    1  C   LIG     1      23.816  22.110  26.369  1.00  0.00     0.016 C 
HETATM    2  C   LIG     1      24.515  20.764  26.114  1.00  0.00     0.051 C 
HETATM    3  C   LIG     1      26.000  20.618  26.677  1.00  0.00     0.168 C 
HETATM    4  O   LIG     1      26.200  19.316  27.218  1.00  0.00    -0.354 OA
HETATM    5  C   LIG     1      25.446  19.019  28.388  1.00  0.00     0.175 C 
HETATM    6  C   LIG     1      25.092  20.232  29.278  1.00  0.00     0.005 C 
HETATM    7  C   LIG     1      24.878  19.807  30.736  1.00  0.00     0.012 C 
HETATM    8  C   LIG     1      26.184  21.295  29.173  1.00  0.00     0.011 C 
HETATM    9  C   LIG     1      26.460  21.688  27.714  1.00  0.00     0.069 C 
HETATM   10  O   LIG     1      26.894  20.712  25.560  1.00  0.00    -0.349 OA
HETATM   11  C   LIG     1      26.110  21.101  24.466  1.00  0.00     0.131 C 
HETATM   12  C   LIG     1      26.544  20.630  23.079  1.00  0.00     0.038 C 
HETATM   13  C   LIG     1      25.211  20.251  22.348  1.00  0.00     0.001 C 
HETATM   14  C   LIG     1      25.052  20.752  20.878  1.00  0.00    -0.001 C 
HETATM   15  C   LIG     1      26.257  20.303  20.011  1.00  0.00     0.033 C 
HETATM   16  C   LIG     1      27.328  21.346  19.964  1.00  0.00    -0.023 C 
HETATM   17  C   LIG     1      27.020  22.645  19.816  1.00  0.00    -0.072 C 
HETATM   18  C   LIG     1      28.120  23.684  19.898  1.00  0.00     0.066 C 
HETATM   19  C   LIG     1      27.870  24.833  18.909  1.00  0.00     0.122 C 
HETATM   20  C   LIG     1      26.435  25.423  19.005  1.00  0.00     0.033 C 
HETATM   21  C   LIG     1      25.495  24.629  19.930  1.00  0.00     0.016 C 
HETATM   22  C   LIG     1      25.561  23.085  19.699  1.00  0.00    -0.017 C 
HETATM   23  C   LIG     1      25.055  22.806  18.255  1.00  0.00     0.020 C 
HETATM   24  C   LIG     1      24.653  22.273  20.720  1.00  0.00     0.003 C 
HETATM   25  C   LIG     1      24.470  22.950  22.096  1.00  0.00     0.007 C 
HETATM   26  C   LIG     1      23.559  22.127  23.019  1.00  0.00     0.010 C 
HETATM   27  C   LIG     1      24.052  20.668  23.316  1.00  0.00    -0.033 C 
HETATM   28  C   LIG     1      22.858  19.691  23.224  1.00  0.00     0.016 C 
HETATM   29  C   LIG     1      24.796  20.458  24.657  1.00  0.00     0.032 C 
ENDROOT
BRANCH  19  30
HETATM   30  O   LIG     1      28.120  24.375  17.604  1.00  0.00    -0.395 OA
HETATM   31  H   LIG     1      27.526  23.595  17.454  1.00  0.00     0.210 HD
ENDBRANCH  19  30
TORSDOF 1
ENDMDL
MODEL 12
REMARK VINA RESULT:      -5.2      7.190     10.828
REMARK  1 active torsions:
REMARK  status: ('A' for Active; 'I' for Inactive)
REMARK    1  A    between atoms: C_19  and  O_20 
ROOT
HETATM    1  C   LIG     1      26.260  24.642  26.350  1.00  0.00     0.016 C 
HETATM    2  C   LIG     1      27.411  23.621  26.304  1.00  0.00     0.051 C 
HETATM    3  C   LIG     1      28.756  24.102  25.595  1.00  0.00     0.168 C 
HETATM    4  O   LIG     1      29.891  23.630  26.313  1.00  0.00    -0.354 OA
HETATM    5  C   LIG     1      30.067  24.187  27.613  1.00  0.00     0.175 C 
HETATM    6  C   LIG     1      29.508  25.615  27.805  1.00  0.00     0.005 C 
HETATM    7  C   LIG     1      30.253  26.356  28.923  1.00  0.00     0.012 C 
HETATM    8  C   LIG     1      29.586  26.389  26.490  1.00  0.00     0.011 C 
HETATM    9  C   LIG     1      28.901  25.633  25.342  1.00  0.00     0.069 C 
HETATM   10  O   LIG     1      28.819  23.461  24.314  1.00  0.00    -0.349 OA
HETATM   11  C   LIG     1      27.575  22.844  24.127  1.00  0.00     0.131 C 
HETATM   12  C   LIG     1      27.534  21.570  23.284  1.00  0.00     0.038 C 
HETATM   13  C   LIG     1      26.525  20.629  24.025  1.00  0.00     0.001 C 
HETATM   14  C   LIG     1      25.477  19.889  23.136  1.00  0.00    -0.001 C 
HETATM   15  C   LIG     1      26.178  19.095  22.004  1.00  0.00     0.033 C 
HETATM   16  C   LIG     1      26.279  19.896  20.744  1.00  0.00    -0.023 C 
HETATM   17  C   LIG     1      25.245  20.637  20.314  1.00  0.00    -0.072 C 
HETATM   18  C   LIG     1      25.424  21.531  19.104  1.00  0.00     0.066 C 
HETATM   19  C   LIG     1      24.147  21.570  18.250  1.00  0.00     0.122 C 
HETATM   20  C   LIG     1      22.866  21.874  19.077  1.00  0.00     0.033 C 
HETATM   21  C   LIG     1      23.096  21.894  20.600  1.00  0.00     0.016 C 
HETATM   22  C   LIG     1      23.942  20.683  21.112  1.00  0.00    -0.017 C 
HETATM   23  C   LIG     1      23.124  19.390  20.832  1.00  0.00     0.020 C 
HETATM   24  C   LIG     1      24.247  20.764  22.669  1.00  0.00     0.003 C 
HETATM   25  C   LIG     1      24.333  22.198  23.234  1.00  0.00     0.007 C 
HETATM   26  C   LIG     1      24.599  22.200  24.747  1.00  0.00     0.010 C 
HETATM   27  C   LIG     1      25.919  21.479  25.193  1.00  0.00    -0.033 C 
HETATM   28  C   LIG     1      25.634  20.609  26.438  1.00  0.00     0.016 C 
HETATM   29  C   LIG     1      27.139  22.392  25.462  1.00  0.00     0.032 C 
ENDROOT
BRANCH  19  30
HETATM   30  O   LIG     1      24.010  20.343  17.578  1.00  0.00    -0.395 OA
HETATM   31  H   LIG     1      23.631  19.699  18.230  1.00  0.00     0.210 HD
ENDBRANCH  19  30
TORSDOF 1
ENDMDL
MODEL 13
REMARK VINA RESULT:      -5.2      5.718      8.684
REMARK  1 active torsions:
REMARK  status: ('A' for Active; 'I' for Inactive)
REMARK    1  A    between atoms: C_19  and  O_20 
ROOT
HETATM    1  C   LIG     1      26.963  22.900  29.093  1.00  0.00     0.016 C 
HETATM    2  C   LIG     1      28.064  23.629  28.303  1.00  0.00     0.051 C 
HETATM    3  C   LIG     1      27.875  25.201  28.112  1.00  0.00     0.168 C 
HETATM    4  O   LIG     1      29.125  25.871  28.248  1.00  0.00    -0.354 OA
HETATM    5  C   LIG     1      29.699  25.832  29.551  1.00  0.00     0.175 C 
HETATM    6  C   LIG     1      28.693  25.725  30.719  1.00  0.00     0.005 C 
HETATM    7  C   LIG     1      29.277  26.311  32.010  1.00  0.00     0.012 C 
HETATM    8  C   LIG     1      27.383  26.419  30.347  1.00  0.00     0.011 C 
HETATM    9  C   LIG     1      26.814  25.892  29.022  1.00  0.00     0.069 C 
HETATM   10  O   LIG     1      27.467  25.423  26.756  1.00  0.00    -0.349 OA
HETATM   11  C   LIG     1      27.199  24.158  26.218  1.00  0.00     0.131 C 
HETATM   12  C   LIG     1      27.428  23.960  24.720  1.00  0.00     0.038 C 
HETATM   13  C   LIG     1      28.069  22.535  24.597  1.00  0.00     0.001 C 
HETATM   14  C   LIG     1      27.504  21.609  23.475  1.00  0.00    -0.001 C 
HETATM   15  C   LIG     1      27.562  22.317  22.096  1.00  0.00     0.033 C 
HETATM   16  C   LIG     1      26.282  23.025  21.781  1.00  0.00    -0.023 C 
HETATM   17  C   LIG     1      25.095  22.449  22.036  1.00  0.00    -0.072 C 
HETATM   18  C   LIG     1      23.823  23.243  21.820  1.00  0.00     0.066 C 
HETATM   19  C   LIG     1      22.695  22.347  21.284  1.00  0.00     0.122 C 
HETATM   20  C   LIG     1      22.497  21.048  22.115  1.00  0.00     0.033 C 
HETATM   21  C   LIG     1      23.577  20.824  23.190  1.00  0.00     0.016 C 
HETATM   22  C   LIG     1      25.030  21.057  22.663  1.00  0.00    -0.017 C 
HETATM   23  C   LIG     1      25.307  19.988  21.567  1.00  0.00     0.020 C 
HETATM   24  C   LIG     1      26.126  20.910  23.804  1.00  0.00     0.003 C 
HETATM   25  C   LIG     1      25.634  21.280  25.220  1.00  0.00     0.007 C 
HETATM   26  C   LIG     1      26.734  21.086  26.274  1.00  0.00     0.010 C 
HETATM   27  C   LIG     1      28.040  21.921  26.037  1.00  0.00    -0.033 C 
HETATM   28  C   LIG     1      29.276  21.030  26.298  1.00  0.00     0.016 C 
HETATM   29  C   LIG     1      28.167  23.236  26.844  1.00  0.00     0.032 C 
ENDROOT
BRANCH  19  30
HETATM   30  O   LIG     1      22.966  22.028  19.942  1.00  0.00    -0.395 OA
HETATM   31  H   LIG     1      22.131  22.195  19.433  1.00  0.00     0.210 HD
ENDBRANCH  19  30
TORSDOF 1
ENDMDL
MODEL 14
REMARK VINA RESULT:      -5.1      4.275      7.062
REMARK  1 active torsions:
REMARK  status: ('A' for Active; 'I' for Inactive)
REMARK    1  A    between atoms: C_19  and  O_20 
ROOT
HETATM    1  C   LIG     1      26.923  26.498  29.681  1.00  0.00     0.016 C 
HETATM    2  C   LIG     1      28.343  25.910  29.621  1.00  0.00     0.051 C 
HETATM    3  C   LIG     1      29.448  26.801  28.892  1.00  0.00     0.168 C 
HETATM    4  O   LIG     1      30.684  26.730  29.595  1.00  0.00    -0.354 OA
HETATM    5  C   LIG     1      30.684  27.321  30.891  1.00  0.00     0.175 C 
HETATM    6  C   LIG     1      29.692  28.489  31.091  1.00  0.00     0.005 C 
HETATM    7  C   LIG     1      30.167  29.438  32.197  1.00  0.00     0.012 C 
HETATM    8  C   LIG     1      29.494  29.239  29.774  1.00  0.00     0.011 C 
HETATM    9  C   LIG     1      29.081  28.294  28.636  1.00  0.00     0.069 C 
HETATM   10  O   LIG     1      29.700  26.209  27.611  1.00  0.00    -0.349 OA
HETATM   11  C   LIG     1      28.725  25.218  27.442  1.00  0.00     0.131 C 
HETATM   12  C   LIG     1      29.093  23.997  26.600  1.00  0.00     0.038 C 
HETATM   13  C   LIG     1      28.456  22.781  27.357  1.00  0.00     0.001 C 
HETATM   14  C   LIG     1      27.697  21.734  26.483  1.00  0.00    -0.001 C 
HETATM   15  C   LIG     1      28.605  21.207  25.342  1.00  0.00     0.033 C 
HETATM   16  C   LIG     1      28.422  21.990  24.080  1.00  0.00    -0.023 C 
HETATM   17  C   LIG     1      27.197  22.350  23.664  1.00  0.00    -0.072 C 
HETATM   18  C   LIG     1      27.057  23.247  22.450  1.00  0.00     0.066 C 
HETATM   19  C   LIG     1      25.827  22.861  21.615  1.00  0.00     0.122 C 
HETATM   20  C   LIG     1      24.528  22.733  22.459  1.00  0.00     0.033 C 
HETATM   21  C   LIG     1      24.759  22.835  23.978  1.00  0.00     0.016 C 
HETATM   22  C   LIG     1      25.960  21.971  24.479  1.00  0.00    -0.017 C 
HETATM   23  C   LIG     1      25.607  20.480  24.212  1.00  0.00     0.020 C 
HETATM   24  C   LIG     1      26.243  22.156  26.032  1.00  0.00     0.003 C 
HETATM   25  C   LIG     1      25.861  23.542  26.595  1.00  0.00     0.007 C 
HETATM   26  C   LIG     1      26.132  23.638  28.104  1.00  0.00     0.010 C 
HETATM   27  C   LIG     1      27.620  23.392  28.531  1.00  0.00    -0.033 C 
HETATM   28  C   LIG     1      27.653  22.483  29.782  1.00  0.00     0.016 C 
HETATM   29  C   LIG     1      28.478  24.656  28.783  1.00  0.00     0.032 C 
ENDROOT
BRANCH  19  30
HETATM   30  O   LIG     1      26.091  21.653  20.945  1.00  0.00    -0.395 OA
HETATM   31  H   LIG     1      26.896  21.259  21.370  1.00  0.00     0.210 HD
ENDBRANCH  19  30
TORSDOF 1
ENDMDL
MODEL 15
REMARK VINA RESULT:      -5.1      8.142     12.216
REMARK  1 active torsions:
REMARK  status: ('A' for Active; 'I' for Inactive)
REMARK    1  A    between atoms: C_19  and  O_20 
ROOT
HETATM    1  C   LIG     1      24.801  22.822  24.310  1.00  0.00     0.016 C 
HETATM    2  C   LIG     1      25.859  21.710  24.212  1.00  0.00     0.051 C 
HETATM    3  C   LIG     1      27.112  21.836  25.191  1.00  0.00     0.168 C 
HETATM    4  O   LIG     1      27.473  20.557  25.702  1.00  0.00    -0.354 OA
HETATM    5  C   LIG     1      26.520  19.956  26.573  1.00  0.00     0.175 C 
HETATM    6  C   LIG     1      25.636  20.941  27.373  1.00  0.00     0.005 C 
HETATM    7  C   LIG     1      25.134  20.304  28.675  1.00  0.00     0.012 C 
HETATM    8  C   LIG     1      26.409  22.228  27.656  1.00  0.00     0.011 C 
HETATM    9  C   LIG     1      26.977  22.847  26.370  1.00  0.00     0.069 C 
HETATM   10  O   LIG     1      28.231  22.265  24.404  1.00  0.00    -0.349 OA
HETATM   11  C   LIG     1      27.715  22.597  23.144  1.00  0.00     0.131 C 
HETATM   12  C   LIG     1      28.626  22.409  21.932  1.00  0.00     0.038 C 
HETATM   13  C   LIG     1      27.693  21.831  20.814  1.00  0.00     0.001 C 
HETATM   14  C   LIG     1      27.834  22.459  19.391  1.00  0.00    -0.001 C 
HETATM   15  C   LIG     1      29.307  22.402  18.909  1.00  0.00     0.033 C 
HETATM   16  C   LIG     1      30.049  23.658  19.241  1.00  0.00    -0.023 C 
HETATM   17  C   LIG     1      29.478  24.862  19.070  1.00  0.00    -0.072 C 
HETATM   18  C   LIG     1      30.212  26.104  19.532  1.00  0.00     0.066 C 
HETATM   19  C   LIG     1      29.970  27.280  18.572  1.00  0.00     0.122 C 
HETATM   20  C   LIG     1      28.466  27.514  18.258  1.00  0.00     0.033 C 
HETATM   21  C   LIG     1      27.534  26.421  18.815  1.00  0.00     0.016 C 
HETATM   22  C   LIG     1      28.049  24.972  18.538  1.00  0.00    -0.017 C 
HETATM   23  C   LIG     1      28.058  24.764  16.997  1.00  0.00     0.020 C 
HETATM   24  C   LIG     1      27.126  23.858  19.196  1.00  0.00     0.003 C 
HETATM   25  C   LIG     1      26.398  24.303  20.483  1.00  0.00     0.007 C 
HETATM   26  C   LIG     1      25.502  23.189  21.044  1.00  0.00     0.010 C 
HETATM   27  C   LIG     1      26.243  21.855  21.405  1.00  0.00    -0.033 C 
HETATM   28  C   LIG     1      25.409  20.652  20.907  1.00  0.00     0.016 C 
HETATM   29  C   LIG     1      26.606  21.656  22.896  1.00  0.00     0.032 C 
ENDROOT
BRANCH  19  30
HETATM   30  O   LIG     1      30.684  27.052  17.384  1.00  0.00    -0.395 OA
HETATM   31  H   LIG     1      31.487  26.523  17.627  1.00  0.00     0.210 HD
ENDBRANCH  19  30
TORSDOF 1
ENDMDL
MODEL 16
REMARK VINA RESULT:      -5.0      8.162     11.524
REMARK  1 active torsions:
REMARK  status: ('A' for Active; 'I' for Inactive)
REMARK    1  A    between atoms: C_19  and  O_20 
ROOT
HETATM    1  C   LIG     1      29.163  22.822  24.811  1.00  0.00     0.016 C 
HETATM    2  C   LIG     1      27.988  23.798  24.628  1.00  0.00     0.051 C 
HETATM    3  C   LIG     1      26.557  23.282  25.108  1.00  0.00     0.168 C 
HETATM    4  O   LIG     1      25.839  24.333  25.745  1.00  0.00    -0.354 OA
HETATM    5  C   LIG     1      26.383  24.784  26.981  1.00  0.00     0.175 C 
HETATM    6  C   LIG     1      27.174  23.727  27.785  1.00  0.00     0.005 C 
HETATM    7  C   LIG     1      27.166  24.048  29.284  1.00  0.00     0.012 C 
HETATM    8  C   LIG     1      26.604  22.334  27.521  1.00  0.00     0.011 C 
HETATM    9  C   LIG     1      26.542  22.017  26.019  1.00  0.00     0.069 C 
HETATM   10  O   LIG     1      25.802  22.956  23.934  1.00  0.00    -0.349 OA
HETATM   11  C   LIG     1      26.701  23.026  22.862  1.00  0.00     0.131 C 
HETATM   12  C   LIG     1      26.147  23.426  21.495  1.00  0.00     0.038 C 
HETATM   13  C   LIG     1      27.232  24.376  20.884  1.00  0.00     0.001 C 
HETATM   14  C   LIG     1      27.611  24.134  19.389  1.00  0.00    -0.001 C 
HETATM   15  C   LIG     1      26.348  24.155  18.490  1.00  0.00     0.033 C 
HETATM   16  C   LIG     1      25.787  22.782  18.288  1.00  0.00    -0.023 C 
HETATM   17  C   LIG     1      26.595  21.736  18.050  1.00  0.00    -0.072 C 
HETATM   18  C   LIG     1      26.003  20.343  17.974  1.00  0.00     0.066 C 
HETATM   19  C   LIG     1      26.716  19.496  16.908  1.00  0.00     0.122 C 
HETATM   20  C   LIG     1      28.265  19.519  17.042  1.00  0.00     0.033 C 
HETATM   21  C   LIG     1      28.786  20.522  18.089  1.00  0.00     0.016 C 
HETATM   22  C   LIG     1      28.110  21.927  17.986  1.00  0.00    -0.017 C 
HETATM   23  C   LIG     1      28.494  22.531  16.606  1.00  0.00     0.020 C 
HETATM   24  C   LIG     1      28.591  22.923  19.128  1.00  0.00     0.003 C 
HETATM   25  C   LIG     1      29.000  22.237  20.450  1.00  0.00     0.007 C 
HETATM   26  C   LIG     1      29.482  23.254  21.494  1.00  0.00     0.010 C 
HETATM   27  C   LIG     1      28.437  24.357  21.883  1.00  0.00    -0.033 C 
HETATM   28  C   LIG     1      29.140  25.732  21.949  1.00  0.00     0.016 C 
HETATM   29  C   LIG     1      27.642  24.115  23.189  1.00  0.00     0.032 C 
ENDROOT
BRANCH  19  30
HETATM   30  O   LIG     1      26.333  19.949  15.634  1.00  0.00    -0.395 OA
HETATM   31  H   LIG     1      26.673  19.286  14.979  1.00  0.00     0.210 HD
ENDBRANCH  19  30
TORSDOF 1
ENDMDL
MODEL 17
REMARK VINA RESULT:      -4.9      7.430     10.958
REMARK  1 active torsions:
REMARK  status: ('A' for Active; 'I' for Inactive)
REMARK    1  A    between atoms: C_19  and  O_20 
ROOT
HETATM    1  C   LIG     1      24.551  23.095  27.101  1.00  0.00     0.016 C 
HETATM    2  C   LIG     1      25.864  22.297  27.035  1.00  0.00     0.051 C 
HETATM    3  C   LIG     1      27.185  23.133  26.717  1.00  0.00     0.168 C 
HETATM    4  O   LIG     1      28.273  22.660  27.505  1.00  0.00    -0.354 OA
HETATM    5  C   LIG     1      28.153  22.881  28.907  1.00  0.00     0.175 C 
HETATM    6  C   LIG     1      27.318  24.115  29.317  1.00  0.00     0.005 C 
HETATM    7  C   LIG     1      27.744  24.641  30.693  1.00  0.00     0.012 C 
HETATM    8  C   LIG     1      27.439  25.206  28.254  1.00  0.00     0.011 C 
HETATM    9  C   LIG     1      27.079  24.682  26.856  1.00  0.00     0.069 C 
HETATM   10  O   LIG     1      27.549  22.862  25.358  1.00  0.00    -0.349 OA
HETATM   11  C   LIG     1      26.481  22.141  24.806  1.00  0.00     0.131 C 
HETATM   12  C   LIG     1      26.799  21.137  23.699  1.00  0.00     0.038 C 
HETATM   13  C   LIG     1      25.885  19.901  24.004  1.00  0.00     0.001 C 
HETATM   14  C   LIG     1      25.131  19.273  22.790  1.00  0.00    -0.001 C 
HETATM   15  C   LIG     1      26.123  18.908  21.655  1.00  0.00     0.033 C 
HETATM   16  C   LIG     1      26.253  20.013  20.655  1.00  0.00    -0.023 C 
HETATM   17  C   LIG     1      25.173  20.684  20.224  1.00  0.00    -0.072 C 
HETATM   18  C   LIG     1      25.355  21.876  19.307  1.00  0.00     0.066 C 
HETATM   19  C   LIG     1      24.229  21.951  18.264  1.00  0.00     0.122 C 
HETATM   20  C   LIG     1      22.808  21.843  18.887  1.00  0.00     0.033 C 
HETATM   21  C   LIG     1      22.810  21.501  20.389  1.00  0.00     0.016 C 
HETATM   22  C   LIG     1      23.782  20.334  20.755  1.00  0.00    -0.017 C 
HETATM   23  C   LIG     1      23.267  19.054  20.038  1.00  0.00     0.020 C 
HETATM   24  C   LIG     1      23.840  20.053  22.318  1.00  0.00     0.003 C 
HETATM   25  C   LIG     1      23.577  21.289  23.204  1.00  0.00     0.007 C 
HETATM   26  C   LIG     1      23.618  20.938  24.699  1.00  0.00     0.010 C 
HETATM   27  C   LIG     1      24.970  20.324  25.203  1.00  0.00    -0.033 C 
HETATM   28  C   LIG     1      24.676  19.130  26.139  1.00  0.00     0.016 C 
HETATM   29  C   LIG     1      25.949  21.302  25.897  1.00  0.00     0.032 C 
ENDROOT
BRANCH  19  30
HETATM   30  O   LIG     1      24.420  20.933  17.313  1.00  0.00    -0.395 OA
HETATM   31  H   LIG     1      23.984  21.237  16.475  1.00  0.00     0.210 HD
ENDBRANCH  19  30
TORSDOF 1
ENDMDL
MODEL 18
REMARK VINA RESULT:      -4.5      6.871     10.521
REMARK  1 active torsions:
REMARK  status: ('A' for Active; 'I' for Inactive)
REMARK    1  A    between atoms: C_19  and  O_20 
ROOT
HETATM    1  C   LIG     1      25.810  24.302  26.331  1.00  0.00     0.016 C 
HETATM    2  C   LIG     1      26.974  23.307  26.472  1.00  0.00     0.051 C 
HETATM    3  C   LIG     1      28.420  23.938  26.709  1.00  0.00     0.168 C 
HETATM    4  O   LIG     1      29.150  23.164  27.655  1.00  0.00    -0.354 OA
HETATM    5  C   LIG     1      28.637  23.179  28.984  1.00  0.00     0.175 C 
HETATM    6  C   LIG     1      27.872  24.461  29.387  1.00  0.00     0.005 C 
HETATM    7  C   LIG     1      27.918  24.680  30.904  1.00  0.00     0.012 C 
HETATM    8  C   LIG     1      28.442  25.667  28.642  1.00  0.00     0.011 C 
HETATM    9  C   LIG     1      28.465  25.440  27.122  1.00  0.00     0.069 C 
HETATM   10  O   LIG     1      29.145  23.824  25.478  1.00  0.00    -0.349 OA
HETATM   11  C   LIG     1      28.217  23.398  24.518  1.00  0.00     0.131 C 
HETATM   12  C   LIG     1      28.734  22.540  23.364  1.00  0.00     0.038 C 
HETATM   13  C   LIG     1      27.628  21.451  23.147  1.00  0.00     0.001 C 
HETATM   14  C   LIG     1      27.210  21.164  21.671  1.00  0.00    -0.001 C 
HETATM   15  C   LIG     1      28.449  20.814  20.806  1.00  0.00     0.033 C 
HETATM   16  C   LIG     1      29.011  22.023  20.126  1.00  0.00    -0.023 C 
HETATM   17  C   LIG     1      28.202  22.932  19.557  1.00  0.00    -0.072 C 
HETATM   18  C   LIG     1      28.798  24.203  18.987  1.00  0.00     0.066 C 
HETATM   19  C   LIG     1      28.061  24.636  17.710  1.00  0.00     0.122 C 
HETATM   20  C   LIG     1      26.516  24.683  17.880  1.00  0.00     0.033 C 
HETATM   21  C   LIG     1      26.019  24.114  19.222  1.00  0.00     0.016 C 
HETATM   22  C   LIG     1      26.685  22.751  19.600  1.00  0.00    -0.017 C 
HETATM   23  C   LIG     1      26.262  21.710  18.525  1.00  0.00     0.020 C 
HETATM   24  C   LIG     1      26.229  22.222  21.027  1.00  0.00     0.003 C 
HETATM   25  C   LIG     1      25.860  23.330  22.036  1.00  0.00     0.007 C 
HETATM   26  C   LIG     1      25.400  22.746  23.381  1.00  0.00     0.010 C 
HETATM   27  C   LIG     1      26.450  21.834  24.105  1.00  0.00    -0.033 C 
HETATM   28  C   LIG     1      25.742  20.578  24.662  1.00  0.00     0.016 C 
HETATM   29  C   LIG     1      27.281  22.504  25.226  1.00  0.00     0.032 C 
ENDROOT
BRANCH  19  30
HETATM   30  O   LIG     1      28.408  23.763  16.665  1.00  0.00    -0.395 OA
HETATM   31  H   LIG     1      27.565  23.519  16.202  1.00  0.00     0.210 HD
ENDBRANCH  19  30
TORSDOF 1
ENDMDL
MODEL 19
REMARK VINA RESULT:      -4.4      4.159      9.810
REMARK  1 active torsions:
REMARK  status: ('A' for Active; 'I' for Inactive)
REMARK    1  A    between atoms: C_19  and  O_20 
ROOT
HETATM    1  C   LIG     1      26.511  23.124  23.783  1.00  0.00     0.016 C 
HETATM    2  C   LIG     1      26.647  21.862  24.652  1.00  0.00     0.051 C 
HETATM    3  C   LIG     1      25.303  21.306  25.308  1.00  0.00     0.168 C 
HETATM    4  O   LIG     1      25.282  19.883  25.263  1.00  0.00    -0.354 OA
HETATM    5  C   LIG     1      25.193  19.313  23.960  1.00  0.00     0.175 C 
HETATM    6  C   LIG     1      24.468  20.179  22.904  1.00  0.00     0.005 C 
HETATM    7  C   LIG     1      23.865  19.310  21.794  1.00  0.00     0.012 C 
HETATM    8  C   LIG     1      23.393  21.033  23.575  1.00  0.00     0.011 C 
HETATM    9  C   LIG     1      23.965  21.863  24.734  1.00  0.00     0.069 C 
HETATM   10  O   LIG     1      25.332  21.646  26.700  1.00  0.00    -0.349 OA
HETATM   11  C   LIG     1      26.425  22.506  26.867  1.00  0.00     0.131 C 
HETATM   12  C   LIG     1      27.142  22.489  28.216  1.00  0.00     0.038 C 
HETATM   13  C   LIG     1      28.665  22.596  27.864  1.00  0.00     0.001 C 
HETATM   14  C   LIG     1      29.510  23.596  28.713  1.00  0.00    -0.001 C 
HETATM   15  C   LIG     1      29.356  23.300  30.227  1.00  0.00     0.033 C 
HETATM   16  C   LIG     1      28.266  24.118  30.845  1.00  0.00    -0.023 C 
HETATM   17  C   LIG     1      28.122  25.418  30.538  1.00  0.00    -0.072 C 
HETATM   18  C   LIG     1      26.935  26.184  31.086  1.00  0.00     0.066 C 
HETATM   19  C   LIG     1      27.321  27.629  31.435  1.00  0.00     0.122 C 
HETATM   20  C   LIG     1      28.066  28.360  30.282  1.00  0.00     0.033 C 
HETATM   21  C   LIG     1      28.433  27.445  29.099  1.00  0.00     0.016 C 
HETATM   22  C   LIG     1      29.068  26.087  29.542  1.00  0.00    -0.017 C 
HETATM   23  C   LIG     1      30.415  26.409  30.250  1.00  0.00     0.020 C 
HETATM   24  C   LIG     1      29.359  25.118  28.316  1.00  0.00     0.003 C 
HETATM   25  C   LIG     1      28.401  25.292  27.117  1.00  0.00     0.007 C 
HETATM   26  C   LIG     1      28.759  24.347  25.961  1.00  0.00     0.010 C 
HETATM   27  C   LIG     1      28.736  22.820  26.315  1.00  0.00    -0.033 C 
HETATM   28  C   LIG     1      29.974  22.129  25.700  1.00  0.00     0.016 C 
HETATM   29  C   LIG     1      27.456  22.044  25.918  1.00  0.00     0.032 C 
ENDROOT
BRANCH  19  30
HETATM   30  O   LIG     1      28.111  27.623  32.597  1.00  0.00    -0.395 OA
HETATM   31  H   LIG     1      28.911  27.071  32.397  1.00  0.00     0.210 HD
ENDBRANCH  19  30
TORSDOF 1
ENDMDL
MODEL 20
REMARK VINA RESULT:      -4.1      4.284      7.131
REMARK  1 active torsions:
REMARK  status: ('A' for Active; 'I' for Inactive)
REMARK    1  A    between atoms: C_19  and  O_20 
ROOT
HETATM    1  C   LIG     1      26.706  26.436  29.089  1.00  0.00     0.016 C 
HETATM    2  C   LIG     1      27.941  25.630  29.523  1.00  0.00     0.051 C 
HETATM    3  C   LIG     1      29.291  26.456  29.724  1.00  0.00     0.168 C 
HETATM    4  O   LIG     1      29.999  25.980  30.865  1.00  0.00    -0.354 OA
HETATM    5  C   LIG     1      29.362  26.208  32.118  1.00  0.00     0.175 C 
HETATM    6  C   LIG     1      28.444  27.450  32.181  1.00  0.00     0.005 C 
HETATM    7  C   LIG     1      28.325  27.980  33.615  1.00  0.00     0.012 C 
HETATM    8  C   LIG     1      28.964  28.535  31.239  1.00  0.00     0.011 C 
HETATM    9  C   LIG     1      29.153  28.006  29.809  1.00  0.00     0.069 C 
HETATM   10  O   LIG     1      30.137  26.175  28.602  1.00  0.00    -0.349 OA
HETATM   11  C   LIG     1      29.350  25.459  27.691  1.00  0.00     0.131 C 
HETATM   12  C   LIG     1      30.053  24.447  26.787  1.00  0.00     0.038 C 
HETATM   13  C   LIG     1      29.082  23.219  26.728  1.00  0.00     0.001 C 
HETATM   14  C   LIG     1      28.836  22.590  25.321  1.00  0.00    -0.001 C 
HETATM   15  C   LIG     1      30.179  22.213  24.643  1.00  0.00     0.033 C 
HETATM   16  C   LIG     1      30.684  23.313  23.764  1.00  0.00    -0.023 C 
HETATM   17  C   LIG     1      29.851  23.988  22.956  1.00  0.00    -0.072 C 
HETATM   18  C   LIG     1      30.374  25.175  22.172  1.00  0.00     0.066 C 
HETATM   19  C   LIG     1      29.723  25.251  20.782  1.00  0.00     0.122 C 
HETATM   20  C   LIG     1      28.172  25.156  20.825  1.00  0.00     0.033 C 
HETATM   21  C   LIG     1      27.606  24.821  22.218  1.00  0.00     0.016 C 
HETATM   22  C   LIG     1      28.360  23.649  22.926  1.00  0.00    -0.017 C 
HETATM   23  C   LIG     1      28.143  22.369  22.070  1.00  0.00     0.020 C 
HETATM   24  C   LIG     1      27.824  23.375  24.396  1.00  0.00     0.003 C 
HETATM   25  C   LIG     1      27.256  24.618  25.116  1.00  0.00     0.007 C 
HETATM   26  C   LIG     1      26.729  24.273  26.517  1.00  0.00     0.010 C 
HETATM   27  C   LIG     1      27.787  23.653  27.494  1.00  0.00    -0.033 C 
HETATM   28  C   LIG     1      27.153  22.466  28.253  1.00  0.00     0.016 C 
HETATM   29  C   LIG     1      28.440  24.629  28.503  1.00  0.00     0.032 C 
ENDROOT
BRANCH  19  30
HETATM   30  O   LIG     1      30.250  24.227  19.976  1.00  0.00    -0.395 OA
HETATM   31  H   LIG     1      30.565  23.512  20.587  1.00  0.00     0.210 HD
ENDBRANCH  19  30
TORSDOF 1
ENDMDL
