REMARK  6 active torsions:
REMARK  status: ('A' for Active; 'I' for Inactive)
REMARK    1  A    between atoms: C_2  and  C_18 
REMARK       I    between atoms: C_2  and  N_3 
REMARK    2  A    between atoms: N_3  and  C_13 
REMARK    3  A    between atoms: N_3  and  C_4 
REMARK    4  A    between atoms: C_10  and  C_11 
REMARK    5  A    between atoms: C_13  and  C_15 
REMARK    6  A    between atoms: C_15  and  O_16 
ROOT
HETATM    1  O   LIG     1       1.850   2.479  -0.864  1.00  0.00    -0.272 OA
HETATM    2  C   LIG     1       0.672   2.105  -0.611  1.00  0.00     0.238 C 
HETATM    3  N   LIG     1       0.446   0.848   0.077  1.00  0.00    -0.310 N 
ENDROOT
BRANCH   3   4
HETATM    4  C   LIG     1       1.612   0.001   0.436  1.00  0.00     0.113 C 
HETATM    5  C   LIG     1       1.304  -1.022   1.547  1.00  0.00     0.035 C 
BRANCH   4   6
HETATM    6  C   LIG     1       2.175  -0.713  -0.806  1.00  0.00     0.192 C 
BRANCH   6   7
HETATM    7  O   LIG     1       3.457  -1.229  -0.514  1.00  0.00    -0.394 OA
HETATM    8  C   LIG     1       3.937  -1.952  -1.625  1.00  0.00     0.201 C 
ENDBRANCH   6   7
ENDBRANCH   4   6
ENDBRANCH   3   4
BRANCH   3   9
HETATM    9  C   LIG     1      -0.884   0.539   0.552  1.00  0.00     0.050 A 
HETATM   10  C   LIG     1      -1.332   1.075   1.787  1.00  0.00    -0.035 A 
HETATM   11  C   LIG     1      -0.477   1.995   2.620  1.00  0.00     0.050 C 
HETATM   12  C   LIG     1      -2.635   0.807   2.229  1.00  0.00     0.009 A 
HETATM   13  C   LIG     1      -3.494   0.022   1.466  1.00  0.00     0.001 A 
HETATM   14  C   LIG     1      -3.070  -0.495   0.244  1.00  0.00     0.009 A 
HETATM   15  C   LIG     1      -1.771  -0.247  -0.230  1.00  0.00    -0.031 A 
BRANCH  15  16
HETATM   16  C   LIG     1      -1.385  -0.806  -1.581  1.00  0.00     0.036 C 
HETATM   17  C   LIG     1      -1.271  -2.329  -1.545  1.00  0.00     0.010 C 
ENDBRANCH  15  16
ENDBRANCH   3   9
BRANCH   2  18
HETATM   18  C   LIG     1      -0.458   2.981  -1.075  1.00  0.00     0.217 C 
HETATM   19 CL   LIG     1      -0.972   2.495  -2.707  1.00  0.00    -0.121 Cl
ENDBRANCH   2  18
TORSDOF 6
