MODEL 1
REMARK VINA RESULT:      -4.0      0.000      0.000
REMARK  6 active torsions:
REMARK  status: ('A' for Active; 'I' for Inactive)
REMARK    1  A    between atoms: C_2  and  C_18 
REMARK       I    between atoms: C_2  and  N_3 
REMARK    2  A    between atoms: N_3  and  C_13 
REMARK    3  A    between atoms: N_3  and  C_4 
REMARK    4  A    between atoms: C_10  and  C_11 
REMARK    5  A    between atoms: C_13  and  C_15 
REMARK    6  A    between atoms: C_15  and  O_16 
ROOT
HETATM    1  O   LIG     1      27.678  22.986  17.798  1.00  0.00    -0.272 OA
HETATM    2  C   LIG     1      26.562  23.115  18.371  1.00  0.00     0.238 C 
HETATM    3  N   LIG     1      25.991  21.998  19.098  1.00  0.00    -0.310 N 
ENDROOT
BRANCH   3   4
HETATM    4  C   LIG     1      26.717  20.702  19.118  1.00  0.00     0.113 C 
HETATM    5  C   LIG     1      26.302  19.789  20.288  1.00  0.00     0.035 C 
BRANCH   4   6
HETATM    6  C   LIG     1      26.556  19.961  17.779  1.00  0.00     0.192 C 
BRANCH   6   7
HETATM    7  O   LIG     1      25.986  18.689  18.008  1.00  0.00    -0.394 OA
HETATM    8  C   LIG     1      25.763  18.044  16.775  1.00  0.00     0.201 C 
ENDBRANCH   6   7
ENDBRANCH   4   6
ENDBRANCH   3   4
BRANCH   3   9
HETATM    9  C   LIG     1      24.828  22.222  19.927  1.00  0.00     0.050 A 
HETATM   10  C   LIG     1      24.986  22.756  21.231  1.00  0.00    -0.035 A 
HETATM   11  C   LIG     1      26.336  23.137  21.784  1.00  0.00     0.050 C 
HETATM   12  C   LIG     1      23.856  23.010  22.021  1.00  0.00     0.009 A 
HETATM   13  C   LIG     1      22.579  22.746  21.535  1.00  0.00     0.001 A 
HETATM   14  C   LIG     1      22.411  22.238  20.249  1.00  0.00     0.009 A 
HETATM   15  C   LIG     1      23.521  21.971  19.430  1.00  0.00    -0.031 A 
BRANCH  15  16
HETATM   16  C   LIG     1      23.269  21.455  18.031  1.00  0.00     0.036 C 
HETATM   17  C   LIG     1      22.694  20.040  18.052  1.00  0.00     0.010 C 
ENDBRANCH  15  16
ENDBRANCH   3   9
BRANCH   2  18
HETATM   18  C   LIG     1      25.853  24.434  18.239  1.00  0.00     0.217 C 
HETATM   19 CL   LIG     1      26.666  25.663  19.237  1.00  0.00    -0.121 Cl
ENDBRANCH   2  18
TORSDOF 6
ENDMDL
MODEL 2
REMARK VINA RESULT:      -3.8      2.997      5.053
REMARK  6 active torsions:
REMARK  status: ('A' for Active; 'I' for Inactive)
REMARK    1  A    between atoms: C_2  and  C_18 
REMARK       I    between atoms: C_2  and  N_3 
REMARK    2  A    between atoms: N_3  and  C_13 
REMARK    3  A    between atoms: N_3  and  C_4 
REMARK    4  A    between atoms: C_10  and  C_11 
REMARK    5  A    between atoms: C_13  and  C_15 
REMARK    6  A    between atoms: C_15  and  O_16 
ROOT
HETATM    1  O   LIG     1      26.564  22.485  21.008  1.00  0.00    -0.272 OA
HETATM    2  C   LIG     1      25.881  21.547  20.515  1.00  0.00     0.238 C 
HETATM    3  N   LIG     1      24.459  21.466  20.792  1.00  0.00    -0.310 N 
ENDROOT
BRANCH   3   4
HETATM    4  C   LIG     1      23.840  22.474  21.691  1.00  0.00     0.113 C 
HETATM    5  C   LIG     1      22.344  22.708  21.406  1.00  0.00     0.035 C 
BRANCH   4   6
HETATM    6  C   LIG     1      24.050  22.095  23.168  1.00  0.00     0.192 C 
BRANCH   6   7
HETATM    7  O   LIG     1      24.882  23.053  23.788  1.00  0.00    -0.394 OA
HETATM    8  C   LIG     1      24.833  22.883  25.187  1.00  0.00     0.201 C 
ENDBRANCH   6   7
ENDBRANCH   4   6
ENDBRANCH   3   4
BRANCH   3   9
HETATM    9  C   LIG     1      23.653  20.523  20.051  1.00  0.00     0.050 A 
HETATM   10  C   LIG     1      23.242  20.835  18.729  1.00  0.00    -0.035 A 
HETATM   11  C   LIG     1      23.647  22.115  18.044  1.00  0.00     0.050 C 
HETATM   12  C   LIG     1      22.493  19.903  17.996  1.00  0.00     0.009 A 
HETATM   13  C   LIG     1      22.152  18.675  18.552  1.00  0.00     0.001 A 
HETATM   14  C   LIG     1      22.564  18.351  19.843  1.00  0.00     0.009 A 
HETATM   15  C   LIG     1      23.316  19.260  20.606  1.00  0.00    -0.031 A 
BRANCH  15  16
HETATM   16  C   LIG     1      23.764  18.834  21.986  1.00  0.00     0.036 C 
HETATM   17  C   LIG     1      22.578  18.667  22.934  1.00  0.00     0.010 C 
ENDBRANCH  15  16
ENDBRANCH   3   9
BRANCH   2  18
HETATM   18  C   LIG     1      26.595  20.522  19.678  1.00  0.00     0.217 C 
HETATM   19 CL   LIG     1      27.064  19.135  20.687  1.00  0.00    -0.121 Cl
ENDBRANCH   2  18
TORSDOF 6
ENDMDL
MODEL 3
REMARK VINA RESULT:      -3.8      1.975      3.699
REMARK  6 active torsions:
REMARK  status: ('A' for Active; 'I' for Inactive)
REMARK    1  A    between atoms: C_2  and  C_18 
REMARK       I    between atoms: C_2  and  N_3 
REMARK    2  A    between atoms: N_3  and  C_13 
REMARK    3  A    between atoms: N_3  and  C_4 
REMARK    4  A    between atoms: C_10  and  C_11 
REMARK    5  A    between atoms: C_13  and  C_15 
REMARK    6  A    between atoms: C_15  and  O_16 
ROOT
HETATM    1  O   LIG     1      27.681  20.505  18.569  1.00  0.00    -0.272 OA
HETATM    2  C   LIG     1      26.696  20.730  19.325  1.00  0.00     0.238 C 
HETATM    3  N   LIG     1      26.146  22.069  19.415  1.00  0.00    -0.310 N 
ENDROOT
BRANCH   3   4
HETATM    4  C   LIG     1      26.783  23.165  18.641  1.00  0.00     0.113 C 
HETATM    5  C   LIG     1      25.824  24.332  18.333  1.00  0.00     0.035 C 
BRANCH   4   6
HETATM    6  C   LIG     1      28.042  23.684  19.358  1.00  0.00     0.192 C 
BRANCH   6   7
HETATM    7  O   LIG     1      28.078  25.094  19.291  1.00  0.00    -0.394 OA
HETATM    8  C   LIG     1      28.521  25.613  20.525  1.00  0.00     0.201 C 
ENDBRANCH   6   7
ENDBRANCH   4   6
ENDBRANCH   3   4
BRANCH   3   9
HETATM    9  C   LIG     1      24.893  22.267  20.108  1.00  0.00     0.050 A 
HETATM   10  C   LIG     1      24.895  22.755  21.440  1.00  0.00    -0.035 A 
HETATM   11  C   LIG     1      26.169  23.114  22.161  1.00  0.00     0.050 C 
HETATM   12  C   LIG     1      23.679  22.983  22.099  1.00  0.00     0.009 A 
HETATM   13  C   LIG     1      22.469  22.737  21.457  1.00  0.00     0.001 A 
HETATM   14  C   LIG     1      22.455  22.274  20.143  1.00  0.00     0.009 A 
HETATM   15  C   LIG     1      23.655  22.034  19.452  1.00  0.00    -0.031 A 
BRANCH  15  16
HETATM   16  C   LIG     1      23.571  21.568  18.017  1.00  0.00     0.036 C 
HETATM   17  C   LIG     1      22.813  20.246  17.901  1.00  0.00     0.010 C 
ENDBRANCH  15  16
ENDBRANCH   3   9
BRANCH   2  18
HETATM   18  C   LIG     1      26.156  19.584  20.134  1.00  0.00     0.217 C 
HETATM   19 CL   LIG     1      26.868  19.603  21.764  1.00  0.00    -0.121 Cl
ENDBRANCH   2  18
TORSDOF 6
ENDMDL
MODEL 4
REMARK VINA RESULT:      -3.7      2.426      4.737
REMARK  6 active torsions:
REMARK  status: ('A' for Active; 'I' for Inactive)
REMARK    1  A    between atoms: C_2  and  C_18 
REMARK       I    between atoms: C_2  and  N_3 
REMARK    2  A    between atoms: N_3  and  C_13 
REMARK    3  A    between atoms: N_3  and  C_4 
REMARK    4  A    between atoms: C_10  and  C_11 
REMARK    5  A    between atoms: C_13  and  C_15 
REMARK    6  A    between atoms: C_15  and  O_16 
ROOT
HETATM    1  O   LIG     1      28.401  22.275  21.044  1.00  0.00    -0.272 OA
HETATM    2  C   LIG     1      27.291  21.799  20.680  1.00  0.00     0.238 C 
HETATM    3  N   LIG     1      26.441  22.557  19.781  1.00  0.00    -0.310 N 
ENDROOT
BRANCH   3   4
HETATM    4  C   LIG     1      26.879  23.904  19.337  1.00  0.00     0.113 C 
HETATM    5  C   LIG     1      26.139  24.403  18.080  1.00  0.00     0.035 C 
BRANCH   4   6
HETATM    6  C   LIG     1      26.745  24.929  20.478  1.00  0.00     0.192 C 
BRANCH   6   7
HETATM    7  O   LIG     1      27.917  25.713  20.550  1.00  0.00    -0.394 OA
HETATM    8  C   LIG     1      28.415  25.695  21.869  1.00  0.00     0.201 C 
ENDBRANCH   6   7
ENDBRANCH   4   6
ENDBRANCH   3   4
BRANCH   3   9
HETATM    9  C   LIG     1      25.283  21.912  19.203  1.00  0.00     0.050 A 
HETATM   10  C   LIG     1      25.434  21.096  18.052  1.00  0.00    -0.035 A 
HETATM   11  C   LIG     1      26.778  20.843  17.418  1.00  0.00     0.050 C 
HETATM   12  C   LIG     1      24.318  20.441  17.514  1.00  0.00     0.009 A 
HETATM   13  C   LIG     1      23.064  20.581  18.100  1.00  0.00     0.001 A 
HETATM   14  C   LIG     1      22.908  21.366  19.240  1.00  0.00     0.009 A 
HETATM   15  C   LIG     1      24.004  22.037  19.806  1.00  0.00    -0.031 A 
BRANCH  15  16
HETATM   16  C   LIG     1      23.775  22.843  21.065  1.00  0.00     0.036 C 
HETATM   17  C   LIG     1      22.291  22.921  21.418  1.00  0.00     0.010 C 
ENDBRANCH  15  16
ENDBRANCH   3   9
BRANCH   2  18
HETATM   18  C   LIG     1      26.884  20.462  21.234  1.00  0.00     0.217 C 
HETATM   19 CL   LIG     1      27.817  19.169  20.446  1.00  0.00    -0.121 Cl
ENDBRANCH   2  18
TORSDOF 6
ENDMDL
MODEL 5
REMARK VINA RESULT:      -3.7      2.180      4.594
REMARK  6 active torsions:
REMARK  status: ('A' for Active; 'I' for Inactive)
REMARK    1  A    between atoms: C_2  and  C_18 
REMARK       I    between atoms: C_2  and  N_3 
REMARK    2  A    between atoms: N_3  and  C_13 
REMARK    3  A    between atoms: N_3  and  C_4 
REMARK    4  A    between atoms: C_10  and  C_11 
REMARK    5  A    between atoms: C_13  and  C_15 
REMARK    6  A    between atoms: C_15  and  O_16 
ROOT
HETATM    1  O   LIG     1      27.905  20.712  18.740  1.00  0.00    -0.272 OA
HETATM    2  C   LIG     1      26.887  20.915  19.457  1.00  0.00     0.238 C 
HETATM    3  N   LIG     1      26.270  22.228  19.479  1.00  0.00    -0.310 N 
ENDROOT
BRANCH   3   4
HETATM    4  C   LIG     1      26.877  23.325  18.683  1.00  0.00     0.113 C 
HETATM    5  C   LIG     1      25.870  24.423  18.290  1.00  0.00     0.035 C 
BRANCH   4   6
HETATM    6  C   LIG     1      28.077  23.942  19.424  1.00  0.00     0.192 C 
BRANCH   6   7
HETATM    7  O   LIG     1      27.834  25.314  19.657  1.00  0.00    -0.394 OA
HETATM    8  C   LIG     1      28.374  25.681  20.907  1.00  0.00     0.201 C 
ENDBRANCH   6   7
ENDBRANCH   4   6
ENDBRANCH   3   4
BRANCH   3   9
HETATM    9  C   LIG     1      24.987  22.388  20.127  1.00  0.00     0.050 A 
HETATM   10  C   LIG     1      23.799  22.066  19.422  1.00  0.00    -0.035 A 
HETATM   11  C   LIG     1      23.821  21.524  18.016  1.00  0.00     0.050 C 
HETATM   12  C   LIG     1      22.557  22.185  20.063  1.00  0.00     0.009 A 
HETATM   13  C   LIG     1      22.481  22.613  21.385  1.00  0.00     0.001 A 
HETATM   14  C   LIG     1      23.643  22.915  22.091  1.00  0.00     0.009 A 
HETATM   15  C   LIG     1      24.904  22.808  21.481  1.00  0.00    -0.031 A 
BRANCH  15  16
HETATM   16  C   LIG     1      26.129  23.115  22.313  1.00  0.00     0.036 C 
HETATM   17  C   LIG     1      26.018  22.516  23.714  1.00  0.00     0.010 C 
ENDBRANCH  15  16
ENDBRANCH   3   9
BRANCH   2  18
HETATM   18  C   LIG     1      26.378  19.775  20.294  1.00  0.00     0.217 C 
HETATM   19 CL   LIG     1      25.508  18.611  19.268  1.00  0.00    -0.121 Cl
ENDBRANCH   2  18
TORSDOF 6
ENDMDL
MODEL 6
REMARK VINA RESULT:      -3.5      2.072      3.405
REMARK  6 active torsions:
REMARK  status: ('A' for Active; 'I' for Inactive)
REMARK    1  A    between atoms: C_2  and  C_18 
REMARK       I    between atoms: C_2  and  N_3 
REMARK    2  A    between atoms: N_3  and  C_13 
REMARK    3  A    between atoms: N_3  and  C_4 
REMARK    4  A    between atoms: C_10  and  C_11 
REMARK    5  A    between atoms: C_13  and  C_15 
REMARK    6  A    between atoms: C_15  and  O_16 
ROOT
HETATM    1  O   LIG     1      27.413  24.553  21.426  1.00  0.00    -0.272 OA
HETATM    2  C   LIG     1      26.651  24.043  20.559  1.00  0.00     0.238 C 
HETATM    3  N   LIG     1      26.338  22.628  20.616  1.00  0.00    -0.310 N 
ENDROOT
BRANCH   3   4
HETATM    4  C   LIG     1      26.958  21.793  21.678  1.00  0.00     0.113 C 
HETATM    5  C   LIG     1      26.198  20.478  21.941  1.00  0.00     0.035 C 
BRANCH   4   6
HETATM    6  C   LIG     1      28.434  21.501  21.355  1.00  0.00     0.192 C 
BRANCH   6   7
HETATM    7  O   LIG     1      28.696  20.127  21.544  1.00  0.00    -0.394 OA
HETATM    8  C   LIG     1      29.925  19.794  20.937  1.00  0.00     0.201 C 
ENDBRANCH   6   7
ENDBRANCH   4   6
ENDBRANCH   3   4
BRANCH   3   9
HETATM    9  C   LIG     1      25.300  22.104  19.757  1.00  0.00     0.050 A 
HETATM   10  C   LIG     1      25.652  21.423  18.563  1.00  0.00    -0.035 A 
HETATM   11  C   LIG     1      27.087  21.190  18.166  1.00  0.00     0.050 C 
HETATM   12  C   LIG     1      24.647  20.882  17.749  1.00  0.00     0.009 A 
HETATM   13  C   LIG     1      23.307  21.005  18.103  1.00  0.00     0.001 A 
HETATM   14  C   LIG     1      22.951  21.657  19.282  1.00  0.00     0.009 A 
HETATM   15  C   LIG     1      23.932  22.211  20.121  1.00  0.00    -0.031 A 
BRANCH  15  16
HETATM   16  C   LIG     1      23.482  22.873  21.404  1.00  0.00     0.036 C 
HETATM   17  C   LIG     1      21.963  23.020  21.456  1.00  0.00     0.010 C 
ENDBRANCH  15  16
ENDBRANCH   3   9
BRANCH   2  18
HETATM   18  C   LIG     1      26.126  24.938  19.472  1.00  0.00     0.217 C 
HETATM   19 CL   LIG     1      27.152  24.803  18.025  1.00  0.00    -0.121 Cl
ENDBRANCH   2  18
TORSDOF 6
ENDMDL
MODEL 7
REMARK VINA RESULT:      -3.5     15.114     17.184
REMARK  6 active torsions:
REMARK  status: ('A' for Active; 'I' for Inactive)
REMARK    1  A    between atoms: C_2  and  C_18 
REMARK       I    between atoms: C_2  and  N_3 
REMARK    2  A    between atoms: N_3  and  C_13 
REMARK    3  A    between atoms: N_3  and  C_4 
REMARK    4  A    between atoms: C_10  and  C_11 
REMARK    5  A    between atoms: C_13  and  C_15 
REMARK    6  A    between atoms: C_15  and  O_16 
ROOT
HETATM    1  O   LIG     1      21.652  18.486  33.962  1.00  0.00    -0.272 OA
HETATM    2  C   LIG     1      21.807  19.672  34.364  1.00  0.00     0.238 C 
HETATM    3  N   LIG     1      21.032  20.159  35.490  1.00  0.00    -0.310 N 
ENDROOT
BRANCH   3   4
HETATM    4  C   LIG     1      20.036  19.259  36.125  1.00  0.00     0.113 C 
HETATM    5  C   LIG     1      19.897  19.478  37.644  1.00  0.00     0.035 C 
BRANCH   4   6
HETATM    6  C   LIG     1      18.664  19.387  35.439  1.00  0.00     0.192 C 
BRANCH   6   7
HETATM    7  O   LIG     1      18.191  18.104  35.085  1.00  0.00    -0.394 OA
HETATM    8  C   LIG     1      16.881  17.934  35.579  1.00  0.00     0.201 C 
ENDBRANCH   6   7
ENDBRANCH   4   6
ENDBRANCH   3   4
BRANCH   3   9
HETATM    9  C   LIG     1      21.374  21.436  36.075  1.00  0.00     0.050 A 
HETATM   10  C   LIG     1      22.443  21.521  37.004  1.00  0.00    -0.035 A 
HETATM   11  C   LIG     1      23.272  20.321  37.386  1.00  0.00     0.050 C 
HETATM   12  C   LIG     1      22.799  22.765  37.542  1.00  0.00     0.009 A 
HETATM   13  C   LIG     1      22.115  23.919  37.170  1.00  0.00     0.001 A 
HETATM   14  C   LIG     1      21.075  23.849  36.246  1.00  0.00     0.009 A 
HETATM   15  C   LIG     1      20.691  22.619  35.687  1.00  0.00    -0.031 A 
BRANCH  15  16
HETATM   16  C   LIG     1      19.580  22.617  34.662  1.00  0.00     0.036 C 
HETATM   17  C   LIG     1      20.052  23.179  33.322  1.00  0.00     0.010 C 
ENDBRANCH  15  16
ENDBRANCH   3   9
BRANCH   2  18
HETATM   18  C   LIG     1      22.779  20.545  33.621  1.00  0.00     0.217 C 
HETATM   19 CL   LIG     1      24.445  20.017  33.952  1.00  0.00    -0.121 Cl
ENDBRANCH   2  18
TORSDOF 6
ENDMDL
MODEL 8
REMARK VINA RESULT:      -3.4     14.937     16.959
REMARK  6 active torsions:
REMARK  status: ('A' for Active; 'I' for Inactive)
REMARK    1  A    between atoms: C_2  and  C_18 
REMARK       I    between atoms: C_2  and  N_3 
REMARK    2  A    between atoms: N_3  and  C_13 
REMARK    3  A    between atoms: N_3  and  C_4 
REMARK    4  A    between atoms: C_10  and  C_11 
REMARK    5  A    between atoms: C_13  and  C_15 
REMARK    6  A    between atoms: C_15  and  O_16 
ROOT
HETATM    1  O   LIG     1      20.465  18.250  36.512  1.00  0.00    -0.272 OA
HETATM    2  C   LIG     1      20.029  19.175  35.774  1.00  0.00     0.238 C 
HETATM    3  N   LIG     1      20.957  20.097  35.148  1.00  0.00    -0.310 N 
ENDROOT
BRANCH   3   4
HETATM    4  C   LIG     1      22.410  19.958  35.424  1.00  0.00     0.113 C 
HETATM    5  C   LIG     1      23.299  20.690  34.399  1.00  0.00     0.035 C 
BRANCH   4   6
HETATM    6  C   LIG     1      22.745  20.426  36.852  1.00  0.00     0.192 C 
BRANCH   6   7
HETATM    7  O   LIG     1      23.654  21.506  36.794  1.00  0.00    -0.394 OA
HETATM    8  C   LIG     1      24.609  21.372  37.822  1.00  0.00     0.201 C 
ENDBRANCH   6   7
ENDBRANCH   4   6
ENDBRANCH   3   4
BRANCH   3   9
HETATM    9  C   LIG     1      20.467  21.009  34.139  1.00  0.00     0.050 A 
HETATM   10  C   LIG     1      20.302  20.557  32.804  1.00  0.00    -0.035 A 
HETATM   11  C   LIG     1      20.590  19.135  32.396  1.00  0.00     0.050 C 
HETATM   12  C   LIG     1      19.789  21.430  31.834  1.00  0.00     0.009 A 
HETATM   13  C   LIG     1      19.438  22.734  32.169  1.00  0.00     0.001 A 
HETATM   14  C   LIG     1      19.580  23.182  33.480  1.00  0.00     0.009 A 
HETATM   15  C   LIG     1      20.090  22.335  34.478  1.00  0.00    -0.031 A 
BRANCH  15  16
HETATM   16  C   LIG     1      20.185  22.871  35.890  1.00  0.00     0.036 C 
HETATM   17  C   LIG     1      21.275  23.933  36.014  1.00  0.00     0.010 C 
ENDBRANCH  15  16
ENDBRANCH   3   9
BRANCH   2  18
HETATM   18  C   LIG     1      18.540  19.297  35.605  1.00  0.00     0.217 C 
HETATM   19 CL   LIG     1      17.758  19.433  37.197  1.00  0.00    -0.121 Cl
ENDBRANCH   2  18
TORSDOF 6
ENDMDL
MODEL 9
REMARK VINA RESULT:      -3.4     14.535     16.459
REMARK  6 active torsions:
REMARK  status: ('A' for Active; 'I' for Inactive)
REMARK    1  A    between atoms: C_2  and  C_18 
REMARK       I    between atoms: C_2  and  N_3 
REMARK    2  A    between atoms: N_3  and  C_13 
REMARK    3  A    between atoms: N_3  and  C_4 
REMARK    4  A    between atoms: C_10  and  C_11 
REMARK    5  A    between atoms: C_13  and  C_15 
REMARK    6  A    between atoms: C_15  and  O_16 
ROOT
HETATM    1  O   LIG     1      20.161  23.181  33.164  1.00  0.00    -0.272 OA
HETATM    2  C   LIG     1      20.250  22.557  34.257  1.00  0.00     0.238 C 
HETATM    3  N   LIG     1      20.733  21.189  34.270  1.00  0.00    -0.310 N 
ENDROOT
BRANCH   3   4
HETATM    4  C   LIG     1      21.076  20.532  32.984  1.00  0.00     0.113 C 
HETATM    5  C   LIG     1      21.906  19.245  33.159  1.00  0.00     0.035 C 
BRANCH   4   6
HETATM    6  C   LIG     1      19.809  20.242  32.160  1.00  0.00     0.192 C 
BRANCH   6   7
HETATM    7  O   LIG     1      20.068  20.485  30.793  1.00  0.00    -0.394 OA
HETATM    8  C   LIG     1      19.060  21.315  30.263  1.00  0.00     0.201 C 
ENDBRANCH   6   7
ENDBRANCH   4   6
ENDBRANCH   3   4
BRANCH   3   9
HETATM    9  C   LIG     1      21.035  20.566  35.539  1.00  0.00     0.050 A 
HETATM   10  C   LIG     1      22.326  20.719  36.108  1.00  0.00    -0.035 A 
HETATM   11  C   LIG     1      23.401  21.545  35.449  1.00  0.00     0.050 C 
HETATM   12  C   LIG     1      22.608  20.147  37.356  1.00  0.00     0.009 A 
HETATM   13  C   LIG     1      21.632  19.433  38.044  1.00  0.00     0.001 A 
HETATM   14  C   LIG     1      20.356  19.291  37.503  1.00  0.00     0.009 A 
HETATM   15  C   LIG     1      20.039  19.851  36.254  1.00  0.00    -0.031 A 
BRANCH  15  16
HETATM   16  C   LIG     1      18.626  19.693  35.740  1.00  0.00     0.036 C 
HETATM   17  C   LIG     1      17.746  18.944  36.739  1.00  0.00     0.010 C 
ENDBRANCH  15  16
ENDBRANCH   3   9
BRANCH   2  18
HETATM   18  C   LIG     1      19.809  23.266  35.508  1.00  0.00     0.217 C 
HETATM   19 CL   LIG     1      21.195  24.094  36.255  1.00  0.00    -0.121 Cl
ENDBRANCH   2  18
TORSDOF 6
ENDMDL
MODEL 10
REMARK VINA RESULT:      -3.4      2.398      4.524
REMARK  6 active torsions:
REMARK  status: ('A' for Active; 'I' for Inactive)
REMARK    1  A    between atoms: C_2  and  C_18 
REMARK       I    between atoms: C_2  and  N_3 
REMARK    2  A    between atoms: N_3  and  C_13 
REMARK    3  A    between atoms: N_3  and  C_4 
REMARK    4  A    between atoms: C_10  and  C_11 
REMARK    5  A    between atoms: C_13  and  C_15 
REMARK    6  A    between atoms: C_15  and  O_16 
ROOT
HETATM    1  O   LIG     1      28.547  22.231  21.043  1.00  0.00    -0.272 OA
HETATM    2  C   LIG     1      27.391  21.816  20.756  1.00  0.00     0.238 C 
HETATM    3  N   LIG     1      26.528  22.612  19.904  1.00  0.00    -0.310 N 
ENDROOT
BRANCH   3   4
HETATM    4  C   LIG     1      27.012  23.929  19.415  1.00  0.00     0.113 C 
HETATM    5  C   LIG     1      26.215  24.461  18.208  1.00  0.00     0.035 C 
BRANCH   4   6
HETATM    6  C   LIG     1      27.018  24.967  20.551  1.00  0.00     0.192 C 
BRANCH   6   7
HETATM    7  O   LIG     1      28.215  25.715  20.501  1.00  0.00    -0.394 OA
HETATM    8  C   LIG     1      28.830  25.703  21.770  1.00  0.00     0.201 C 
ENDBRANCH   6   7
ENDBRANCH   4   6
ENDBRANCH   3   4
BRANCH   3   9
HETATM    9  C   LIG     1      25.301  22.029  19.409  1.00  0.00     0.050 A 
HETATM   10  C   LIG     1      24.080  22.281  20.085  1.00  0.00    -0.035 A 
HETATM   11  C   LIG     1      24.002  23.174  21.297  1.00  0.00     0.050 C 
HETATM   12  C   LIG     1      22.885  21.748  19.582  1.00  0.00     0.009 A 
HETATM   13  C   LIG     1      22.886  20.975  18.425  1.00  0.00     0.001 A 
HETATM   14  C   LIG     1      24.077  20.735  17.745  1.00  0.00     0.009 A 
HETATM   15  C   LIG     1      25.293  21.254  18.219  1.00  0.00    -0.031 A 
BRANCH  15  16
HETATM   16  C   LIG     1      26.545  20.988  17.414  1.00  0.00     0.036 C 
HETATM   17  C   LIG     1      26.341  19.844  16.422  1.00  0.00     0.010 C 
ENDBRANCH  15  16
ENDBRANCH   3   9
BRANCH   2  18
HETATM   18  C   LIG     1      26.946  20.509  21.353  1.00  0.00     0.217 C 
HETATM   19 CL   LIG     1      27.520  19.158  20.350  1.00  0.00    -0.121 Cl
ENDBRANCH   2  18
TORSDOF 6
ENDMDL
MODEL 11
REMARK VINA RESULT:      -3.3      2.118      3.279
REMARK  6 active torsions:
REMARK  status: ('A' for Active; 'I' for Inactive)
REMARK    1  A    between atoms: C_2  and  C_18 
REMARK       I    between atoms: C_2  and  N_3 
REMARK    2  A    between atoms: N_3  and  C_13 
REMARK    3  A    between atoms: N_3  and  C_4 
REMARK    4  A    between atoms: C_10  and  C_11 
REMARK    5  A    between atoms: C_13  and  C_15 
REMARK    6  A    between atoms: C_15  and  O_16 
ROOT
HETATM    1  O   LIG     1      27.499  24.506  21.530  1.00  0.00    -0.272 OA
HETATM    2  C   LIG     1      26.674  24.037  20.698  1.00  0.00     0.238 C 
HETATM    3  N   LIG     1      26.284  22.642  20.776  1.00  0.00    -0.310 N 
ENDROOT
BRANCH   3   4
HETATM    4  C   LIG     1      26.899  21.777  21.815  1.00  0.00     0.113 C 
HETATM    5  C   LIG     1      26.063  20.524  22.139  1.00  0.00     0.035 C 
BRANCH   4   6
HETATM    6  C   LIG     1      28.331  21.375  21.416  1.00  0.00     0.192 C 
BRANCH   6   7
HETATM    7  O   LIG     1      28.548  20.018  21.742  1.00  0.00    -0.394 OA
HETATM    8  C   LIG     1      29.934  19.759  21.778  1.00  0.00     0.201 C 
ENDBRANCH   6   7
ENDBRANCH   4   6
ENDBRANCH   3   4
BRANCH   3   9
HETATM    9  C   LIG     1      25.183  22.176  19.964  1.00  0.00     0.050 A 
HETATM   10  C   LIG     1      23.849  22.392  20.397  1.00  0.00    -0.035 A 
HETATM   11  C   LIG     1      23.528  23.128  21.672  1.00  0.00     0.050 C 
HETATM   12  C   LIG     1      22.781  21.975  19.591  1.00  0.00     0.009 A 
HETATM   13  C   LIG     1      23.017  21.353  18.368  1.00  0.00     0.001 A 
HETATM   14  C   LIG     1      24.322  21.152  17.926  1.00  0.00     0.009 A 
HETATM   15  C   LIG     1      25.417  21.557  18.707  1.00  0.00    -0.031 A 
BRANCH  15  16
HETATM   16  C   LIG     1      26.808  21.344  18.154  1.00  0.00     0.036 C 
HETATM   17  C   LIG     1      26.784  20.463  16.905  1.00  0.00     0.010 C 
ENDBRANCH  15  16
ENDBRANCH   3   9
BRANCH   2  18
HETATM   18  C   LIG     1      26.154  24.958  19.629  1.00  0.00     0.217 C 
HETATM   19 CL   LIG     1      27.248  24.938  18.227  1.00  0.00    -0.121 Cl
ENDBRANCH   2  18
TORSDOF 6
ENDMDL
MODEL 12
REMARK VINA RESULT:      -3.3      2.872      4.238
REMARK  6 active torsions:
REMARK  status: ('A' for Active; 'I' for Inactive)
REMARK    1  A    between atoms: C_2  and  C_18 
REMARK       I    between atoms: C_2  and  N_3 
REMARK    2  A    between atoms: N_3  and  C_13 
REMARK    3  A    between atoms: N_3  and  C_4 
REMARK    4  A    between atoms: C_10  and  C_11 
REMARK    5  A    between atoms: C_13  and  C_15 
REMARK    6  A    between atoms: C_15  and  O_16 
ROOT
HETATM    1  O   LIG     1      24.974  20.626  22.679  1.00  0.00    -0.272 OA
HETATM    2  C   LIG     1      25.128  21.727  22.083  1.00  0.00     0.238 C 
HETATM    3  N   LIG     1      26.298  21.941  21.252  1.00  0.00    -0.310 N 
ENDROOT
BRANCH   3   4
HETATM    4  C   LIG     1      27.318  20.867  21.152  1.00  0.00     0.113 C 
HETATM    5  C   LIG     1      28.238  21.011  19.923  1.00  0.00     0.035 C 
BRANCH   4   6
HETATM    6  C   LIG     1      28.158  20.785  22.440  1.00  0.00     0.192 C 
BRANCH   6   7
HETATM    7  O   LIG     1      28.288  19.435  22.834  1.00  0.00    -0.394 OA
HETATM    8  C   LIG     1      27.892  19.297  24.180  1.00  0.00     0.201 C 
ENDBRANCH   6   7
ENDBRANCH   4   6
ENDBRANCH   3   4
BRANCH   3   9
HETATM    9  C   LIG     1      26.352  23.113  20.408  1.00  0.00     0.050 A 
HETATM   10  C   LIG     1      27.037  24.272  20.857  1.00  0.00    -0.035 A 
HETATM   11  C   LIG     1      27.749  24.320  22.184  1.00  0.00     0.050 C 
HETATM   12  C   LIG     1      27.123  25.395  20.022  1.00  0.00     0.009 A 
HETATM   13  C   LIG     1      26.545  25.382  18.756  1.00  0.00     0.001 A 
HETATM   14  C   LIG     1      25.886  24.244  18.299  1.00  0.00     0.009 A 
HETATM   15  C   LIG     1      25.780  23.100  19.108  1.00  0.00    -0.031 A 
BRANCH  15  16
HETATM   16  C   LIG     1      25.084  21.884  18.539  1.00  0.00     0.036 C 
HETATM   17  C   LIG     1      23.608  22.164  18.261  1.00  0.00     0.010 C 
ENDBRANCH  15  16
ENDBRANCH   3   9
BRANCH   2  18
HETATM   18  C   LIG     1      24.089  22.793  22.296  1.00  0.00     0.217 C 
HETATM   19 CL   LIG     1      22.512  22.233  21.692  1.00  0.00    -0.121 Cl
ENDBRANCH   2  18
TORSDOF 6
ENDMDL
MODEL 13
REMARK VINA RESULT:      -3.3     14.469     16.530
REMARK  6 active torsions:
REMARK  status: ('A' for Active; 'I' for Inactive)
REMARK    1  A    between atoms: C_2  and  C_18 
REMARK       I    between atoms: C_2  and  N_3 
REMARK    2  A    between atoms: N_3  and  C_13 
REMARK    3  A    between atoms: N_3  and  C_4 
REMARK    4  A    between atoms: C_10  and  C_11 
REMARK    5  A    between atoms: C_13  and  C_15 
REMARK    6  A    between atoms: C_15  and  O_16 
ROOT
HETATM    1  O   LIG     1      20.172  23.141  33.177  1.00  0.00    -0.272 OA
HETATM    2  C   LIG     1      20.267  22.551  34.287  1.00  0.00     0.238 C 
HETATM    3  N   LIG     1      20.759  21.187  34.340  1.00  0.00    -0.310 N 
ENDROOT
BRANCH   3   4
HETATM    4  C   LIG     1      21.105  20.494  33.072  1.00  0.00     0.113 C 
HETATM    5  C   LIG     1      21.913  19.199  33.285  1.00  0.00     0.035 C 
BRANCH   4   6
HETATM    6  C   LIG     1      19.841  20.205  32.242  1.00  0.00     0.192 C 
BRANCH   6   7
HETATM    7  O   LIG     1      20.118  20.409  30.872  1.00  0.00    -0.394 OA
HETATM    8  C   LIG     1      19.120  21.229  30.308  1.00  0.00     0.201 C 
ENDBRANCH   6   7
ENDBRANCH   4   6
ENDBRANCH   3   4
BRANCH   3   9
HETATM    9  C   LIG     1      21.068  20.603  35.626  1.00  0.00     0.050 A 
HETATM   10  C   LIG     1      20.084  19.839  36.306  1.00  0.00    -0.035 A 
HETATM   11  C   LIG     1      18.721  19.579  35.717  1.00  0.00     0.050 C 
HETATM   12  C   LIG     1      20.396  19.240  37.534  1.00  0.00     0.009 A 
HETATM   13  C   LIG     1      21.663  19.387  38.092  1.00  0.00     0.001 A 
HETATM   14  C   LIG     1      22.641  20.120  37.424  1.00  0.00     0.009 A 
HETATM   15  C   LIG     1      22.363  20.734  36.191  1.00  0.00    -0.031 A 
BRANCH  15  16
HETATM   16  C   LIG     1      23.479  21.485  35.500  1.00  0.00     0.036 C 
HETATM   17  C   LIG     1      24.370  22.213  36.505  1.00  0.00     0.010 C 
ENDBRANCH  15  16
ENDBRANCH   3   9
BRANCH   2  18
HETATM   18  C   LIG     1      19.824  23.293  35.518  1.00  0.00     0.217 C 
HETATM   19 CL   LIG     1      21.214  24.117  36.261  1.00  0.00    -0.121 Cl
ENDBRANCH   2  18
TORSDOF 6
ENDMDL
MODEL 14
REMARK VINA RESULT:      -3.3      3.270      5.455
REMARK  6 active torsions:
REMARK  status: ('A' for Active; 'I' for Inactive)
REMARK    1  A    between atoms: C_2  and  C_18 
REMARK       I    between atoms: C_2  and  N_3 
REMARK    2  A    between atoms: N_3  and  C_13 
REMARK    3  A    between atoms: N_3  and  C_4 
REMARK    4  A    between atoms: C_10  and  C_11 
REMARK    5  A    between atoms: C_13  and  C_15 
REMARK    6  A    between atoms: C_15  and  O_16 
ROOT
HETATM    1  O   LIG     1      26.186  20.487  20.567  1.00  0.00    -0.272 OA
HETATM    2  C   LIG     1      25.834  20.533  21.778  1.00  0.00     0.238 C 
HETATM    3  N   LIG     1      24.762  21.422  22.185  1.00  0.00    -0.310 N 
ENDROOT
BRANCH   3   4
HETATM    4  C   LIG     1      24.123  22.296  21.168  1.00  0.00     0.113 C 
HETATM    5  C   LIG     1      22.713  22.770  21.571  1.00  0.00     0.035 C 
BRANCH   4   6
HETATM    6  C   LIG     1      25.019  23.504  20.841  1.00  0.00     0.192 C 
BRANCH   6   7
HETATM    7  O   LIG     1      25.359  23.483  19.470  1.00  0.00    -0.394 OA
HETATM    8  C   LIG     1      26.430  24.370  19.238  1.00  0.00     0.201 C 
ENDBRANCH   6   7
ENDBRANCH   4   6
ENDBRANCH   3   4
BRANCH   3   9
HETATM    9  C   LIG     1      24.226  21.305  23.522  1.00  0.00     0.050 A 
HETATM   10  C   LIG     1      23.268  20.299  23.811  1.00  0.00    -0.035 A 
HETATM   11  C   LIG     1      22.805  19.310  22.772  1.00  0.00     0.050 C 
HETATM   12  C   LIG     1      22.776  20.161  25.116  1.00  0.00     0.009 A 
HETATM   13  C   LIG     1      23.222  21.000  26.133  1.00  0.00     0.001 A 
HETATM   14  C   LIG     1      24.175  21.980  25.864  1.00  0.00     0.009 A 
HETATM   15  C   LIG     1      24.689  22.147  24.567  1.00  0.00    -0.031 A 
BRANCH  15  16
HETATM   16  C   LIG     1      25.748  23.205  24.350  1.00  0.00     0.036 C 
HETATM   17  C   LIG     1      26.048  23.970  25.637  1.00  0.00     0.010 C 
ENDBRANCH  15  16
ENDBRANCH   3   9
BRANCH   2  18
HETATM   18  C   LIG     1      26.581  19.674  22.759  1.00  0.00     0.217 C 
HETATM   19 CL   LIG     1      27.993  20.556  23.386  1.00  0.00    -0.121 Cl
ENDBRANCH   2  18
TORSDOF 6
ENDMDL
MODEL 15
REMARK VINA RESULT:      -3.2      2.254      3.902
REMARK  6 active torsions:
REMARK  status: ('A' for Active; 'I' for Inactive)
REMARK    1  A    between atoms: C_2  and  C_18 
REMARK       I    between atoms: C_2  and  N_3 
REMARK    2  A    between atoms: N_3  and  C_13 
REMARK    3  A    between atoms: N_3  and  C_4 
REMARK    4  A    between atoms: C_10  and  C_11 
REMARK    5  A    between atoms: C_13  and  C_15 
REMARK    6  A    between atoms: C_15  and  O_16 
ROOT
HETATM    1  O   LIG     1      27.478  24.527  21.356  1.00  0.00    -0.272 OA
HETATM    2  C   LIG     1      26.653  24.021  20.548  1.00  0.00     0.238 C 
HETATM    3  N   LIG     1      26.263  22.631  20.690  1.00  0.00    -0.310 N 
ENDROOT
BRANCH   3   4
HETATM    4  C   LIG     1      26.878  21.815  21.767  1.00  0.00     0.113 C 
HETATM    5  C   LIG     1      28.353  21.460  21.497  1.00  0.00     0.035 C 
BRANCH   4   6
HETATM    6  C   LIG     1      26.738  22.512  23.133  1.00  0.00     0.192 C 
BRANCH   6   7
HETATM    7  O   LIG     1      25.739  21.865  23.893  1.00  0.00    -0.394 OA
HETATM    8  C   LIG     1      25.187  22.777  24.816  1.00  0.00     0.201 C 
ENDBRANCH   6   7
ENDBRANCH   4   6
ENDBRANCH   3   4
BRANCH   3   9
HETATM    9  C   LIG     1      25.161  22.128  19.900  1.00  0.00     0.050 A 
HETATM   10  C   LIG     1      23.827  22.366  20.321  1.00  0.00    -0.035 A 
HETATM   11  C   LIG     1      23.507  23.163  21.560  1.00  0.00     0.050 C 
HETATM   12  C   LIG     1      22.759  21.912  19.535  1.00  0.00     0.009 A 
HETATM   13  C   LIG     1      22.995  21.233  18.344  1.00  0.00     0.001 A 
HETATM   14  C   LIG     1      24.300  21.009  17.913  1.00  0.00     0.009 A 
HETATM   15  C   LIG     1      25.395  21.449  18.675  1.00  0.00    -0.031 A 
BRANCH  15  16
HETATM   16  C   LIG     1      26.786  21.207  18.133  1.00  0.00     0.036 C 
HETATM   17  C   LIG     1      26.750  20.390  16.843  1.00  0.00     0.010 C 
ENDBRANCH  15  16
ENDBRANCH   3   9
BRANCH   2  18
HETATM   18  C   LIG     1      26.133  24.891  19.437  1.00  0.00     0.217 C 
HETATM   19 CL   LIG     1      27.152  24.702  17.991  1.00  0.00    -0.121 Cl
ENDBRANCH   2  18
TORSDOF 6
ENDMDL
MODEL 16
REMARK VINA RESULT:      -3.2     13.822     15.823
REMARK  6 active torsions:
REMARK  status: ('A' for Active; 'I' for Inactive)
REMARK    1  A    between atoms: C_2  and  C_18 
REMARK       I    between atoms: C_2  and  N_3 
REMARK    2  A    between atoms: N_3  and  C_13 
REMARK    3  A    between atoms: N_3  and  C_4 
REMARK    4  A    between atoms: C_10  and  C_11 
REMARK    5  A    between atoms: C_13  and  C_15 
REMARK    6  A    between atoms: C_15  and  O_16 
ROOT
HETATM    1  O   LIG     1      19.037  22.506  34.963  1.00  0.00    -0.272 OA
HETATM    2  C   LIG     1      19.998  22.091  34.259  1.00  0.00     0.238 C 
HETATM    3  N   LIG     1      20.271  20.669  34.176  1.00  0.00    -0.310 N 
ENDROOT
BRANCH   3   4
HETATM    4  C   LIG     1      19.433  19.726  34.959  1.00  0.00     0.113 C 
HETATM    5  C   LIG     1      19.540  18.267  34.473  1.00  0.00     0.035 C 
BRANCH   4   6
HETATM    6  C   LIG     1      19.764  19.814  36.460  1.00  0.00     0.192 C 
BRANCH   6   7
HETATM    7  O   LIG     1      19.099  18.777  37.152  1.00  0.00    -0.394 OA
HETATM    8  C   LIG     1      17.872  19.258  37.653  1.00  0.00     0.201 C 
ENDBRANCH   6   7
ENDBRANCH   4   6
ENDBRANCH   3   4
BRANCH   3   9
HETATM    9  C   LIG     1      21.228  20.196  33.201  1.00  0.00     0.050 A 
HETATM   10  C   LIG     1      22.571  19.956  33.593  1.00  0.00    -0.035 A 
HETATM   11  C   LIG     1      23.039  20.146  35.013  1.00  0.00     0.050 C 
HETATM   12  C   LIG     1      23.490  19.461  32.657  1.00  0.00     0.009 A 
HETATM   13  C   LIG     1      23.096  19.198  31.349  1.00  0.00     0.001 A 
HETATM   14  C   LIG     1      21.776  19.413  30.958  1.00  0.00     0.009 A 
HETATM   15  C   LIG     1      20.829  19.910  31.869  1.00  0.00    -0.031 A 
BRANCH  15  16
HETATM   16  C   LIG     1      19.404  20.086  31.393  1.00  0.00     0.036 C 
HETATM   17  C   LIG     1      19.256  21.331  30.520  1.00  0.00     0.010 C 
ENDBRANCH  15  16
ENDBRANCH   3   9
BRANCH   2  18
HETATM   18  C   LIG     1      20.848  23.114  33.558  1.00  0.00     0.217 C 
HETATM   19 CL   LIG     1      22.162  23.650  34.630  1.00  0.00    -0.121 Cl
ENDBRANCH   2  18
TORSDOF 6
ENDMDL
MODEL 17
REMARK VINA RESULT:      -3.1      2.777      4.862
REMARK  6 active torsions:
REMARK  status: ('A' for Active; 'I' for Inactive)
REMARK    1  A    between atoms: C_2  and  C_18 
REMARK       I    between atoms: C_2  and  N_3 
REMARK    2  A    between atoms: N_3  and  C_13 
REMARK    3  A    between atoms: N_3  and  C_4 
REMARK    4  A    between atoms: C_10  and  C_11 
REMARK    5  A    between atoms: C_13  and  C_15 
REMARK    6  A    between atoms: C_15  and  O_16 
ROOT
HETATM    1  O   LIG     1      26.271  23.094  23.979  1.00  0.00    -0.272 OA
HETATM    2  C   LIG     1      26.470  22.649  22.816  1.00  0.00     0.238 C 
HETATM    3  N   LIG     1      25.342  22.369  21.948  1.00  0.00    -0.310 N 
ENDROOT
BRANCH   3   4
HETATM    4  C   LIG     1      23.964  22.574  22.464  1.00  0.00     0.113 C 
HETATM    5  C   LIG     1      22.912  22.736  21.349  1.00  0.00     0.035 C 
BRANCH   4   6
HETATM    6  C   LIG     1      23.560  21.435  23.418  1.00  0.00     0.192 C 
BRANCH   6   7
HETATM    7  O   LIG     1      22.549  20.653  22.818  1.00  0.00    -0.394 OA
HETATM    8  C   LIG     1      22.435  19.426  23.503  1.00  0.00     0.201 C 
ENDBRANCH   6   7
ENDBRANCH   4   6
ENDBRANCH   3   4
BRANCH   3   9
HETATM    9  C   LIG     1      25.587  22.072  20.554  1.00  0.00     0.050 A 
HETATM   10  C   LIG     1      25.591  20.723  20.113  1.00  0.00    -0.035 A 
HETATM   11  C   LIG     1      25.312  19.573  21.045  1.00  0.00     0.050 C 
HETATM   12  C   LIG     1      25.791  20.437  18.755  1.00  0.00     0.009 A 
HETATM   13  C   LIG     1      25.983  21.464  17.836  1.00  0.00     0.001 A 
HETATM   14  C   LIG     1      25.963  22.792  18.256  1.00  0.00     0.009 A 
HETATM   15  C   LIG     1      25.766  23.116  19.609  1.00  0.00    -0.031 A 
BRANCH  15  16
HETATM   16  C   LIG     1      25.719  24.577  19.994  1.00  0.00     0.036 C 
HETATM   17  C   LIG     1      26.558  25.433  19.046  1.00  0.00     0.010 C 
ENDBRANCH  15  16
ENDBRANCH   3   9
BRANCH   2  18
HETATM   18  C   LIG     1      27.890  22.395  22.394  1.00  0.00     0.217 C 
HETATM   19 CL   LIG     1      28.666  23.925  21.924  1.00  0.00    -0.121 Cl
ENDBRANCH   2  18
TORSDOF 6
ENDMDL
MODEL 18
REMARK VINA RESULT:      -3.1      2.735      4.896
REMARK  6 active torsions:
REMARK  status: ('A' for Active; 'I' for Inactive)
REMARK    1  A    between atoms: C_2  and  C_18 
REMARK       I    between atoms: C_2  and  N_3 
REMARK    2  A    between atoms: N_3  and  C_13 
REMARK    3  A    between atoms: N_3  and  C_4 
REMARK    4  A    between atoms: C_10  and  C_11 
REMARK    5  A    between atoms: C_13  and  C_15 
REMARK    6  A    between atoms: C_15  and  O_16 
ROOT
HETATM    1  O   LIG     1      27.442  19.967  21.492  1.00  0.00    -0.272 OA
HETATM    2  C   LIG     1      27.434  20.996  20.763  1.00  0.00     0.238 C 
HETATM    3  N   LIG     1      26.329  21.933  20.850  1.00  0.00    -0.310 N 
ENDROOT
BRANCH   3   4
HETATM    4  C   LIG     1      25.203  21.638  21.772  1.00  0.00     0.113 C 
HETATM    5  C   LIG     1      24.315  22.864  22.061  1.00  0.00     0.035 C 
BRANCH   4   6
HETATM    6  C   LIG     1      24.348  20.474  21.240  1.00  0.00     0.192 C 
BRANCH   6   7
HETATM    7  O   LIG     1      24.171  19.513  22.261  1.00  0.00    -0.394 OA
HETATM    8  C   LIG     1      22.811  19.463  22.628  1.00  0.00     0.201 C 
ENDBRANCH   6   7
ENDBRANCH   4   6
ENDBRANCH   3   4
BRANCH   3   9
HETATM    9  C   LIG     1      26.437  23.207  20.175  1.00  0.00     0.050 A 
HETATM   10  C   LIG     1      25.802  23.395  18.921  1.00  0.00    -0.035 A 
HETATM   11  C   LIG     1      24.978  22.315  18.268  1.00  0.00     0.050 C 
HETATM   12  C   LIG     1      25.874  24.642  18.285  1.00  0.00     0.009 A 
HETATM   13  C   LIG     1      26.561  25.699  18.875  1.00  0.00     0.001 A 
HETATM   14  C   LIG     1      27.173  25.530  20.115  1.00  0.00     0.009 A 
HETATM   15  C   LIG     1      27.122  24.294  20.780  1.00  0.00    -0.031 A 
BRANCH  15  16
HETATM   16  C   LIG     1      27.775  24.187  22.140  1.00  0.00     0.036 C 
HETATM   17  C   LIG     1      28.435  25.503  22.549  1.00  0.00     0.010 C 
ENDBRANCH  15  16
ENDBRANCH   3   9
BRANCH   2  18
HETATM   18  C   LIG     1      28.572  21.184  19.800  1.00  0.00     0.217 C 
HETATM   19 CL   LIG     1      30.014  21.760  20.669  1.00  0.00    -0.121 Cl
ENDBRANCH   2  18
TORSDOF 6
ENDMDL
MODEL 19
REMARK VINA RESULT:      -3.1      2.791      4.855
REMARK  6 active torsions:
REMARK  status: ('A' for Active; 'I' for Inactive)
REMARK    1  A    between atoms: C_2  and  C_18 
REMARK       I    between atoms: C_2  and  N_3 
REMARK    2  A    between atoms: N_3  and  C_13 
REMARK    3  A    between atoms: N_3  and  C_4 
REMARK    4  A    between atoms: C_10  and  C_11 
REMARK    5  A    between atoms: C_13  and  C_15 
REMARK    6  A    between atoms: C_15  and  O_16 
ROOT
HETATM    1  O   LIG     1      24.403  19.052  20.535  1.00  0.00    -0.272 OA
HETATM    2  C   LIG     1      24.876  19.728  21.489  1.00  0.00     0.238 C 
HETATM    3  N   LIG     1      24.422  21.089  21.705  1.00  0.00    -0.310 N 
ENDROOT
BRANCH   3   4
HETATM    4  C   LIG     1      23.432  21.678  20.768  1.00  0.00     0.113 C 
HETATM    5  C   LIG     1      22.507  22.717  21.431  1.00  0.00     0.035 C 
BRANCH   4   6
HETATM    6  C   LIG     1      24.134  22.292  19.543  1.00  0.00     0.192 C 
BRANCH   6   7
HETATM    7  O   LIG     1      23.907  21.477  18.411  1.00  0.00    -0.394 OA
HETATM    8  C   LIG     1      25.143  21.113  17.839  1.00  0.00     0.201 C 
ENDBRANCH   6   7
ENDBRANCH   4   6
ENDBRANCH   3   4
BRANCH   3   9
HETATM    9  C   LIG     1      24.806  21.771  22.921  1.00  0.00     0.050 A 
HETATM   10  C   LIG     1      24.136  21.473  24.136  1.00  0.00    -0.035 A 
HETATM   11  C   LIG     1      23.047  20.434  24.218  1.00  0.00     0.050 C 
HETATM   12  C   LIG     1      24.534  22.106  25.322  1.00  0.00     0.009 A 
HETATM   13  C   LIG     1      25.582  23.021  25.319  1.00  0.00     0.001 A 
HETATM   14  C   LIG     1      26.257  23.308  24.135  1.00  0.00     0.009 A 
HETATM   15  C   LIG     1      25.886  22.693  22.928  1.00  0.00    -0.031 A 
BRANCH  15  16
HETATM   16  C   LIG     1      26.683  23.019  21.685  1.00  0.00     0.036 C 
HETATM   17  C   LIG     1      27.667  24.161  21.935  1.00  0.00     0.010 C 
ENDBRANCH  15  16
ENDBRANCH   3   9
BRANCH   2  18
HETATM   18  C   LIG     1      25.932  19.088  22.348  1.00  0.00     0.217 C 
HETATM   19 CL   LIG     1      27.548  19.491  21.724  1.00  0.00    -0.121 Cl
ENDBRANCH   2  18
TORSDOF 6
ENDMDL
MODEL 20
REMARK VINA RESULT:      -3.1      2.095      4.282
REMARK  6 active torsions:
REMARK  status: ('A' for Active; 'I' for Inactive)
REMARK    1  A    between atoms: C_2  and  C_18 
REMARK       I    between atoms: C_2  and  N_3 
REMARK    2  A    between atoms: N_3  and  C_13 
REMARK    3  A    between atoms: N_3  and  C_4 
REMARK    4  A    between atoms: C_10  and  C_11 
REMARK    5  A    between atoms: C_13  and  C_15 
REMARK    6  A    between atoms: C_15  and  O_16 
ROOT
HETATM    1  O   LIG     1      25.330  22.311  22.082  1.00  0.00    -0.272 OA
HETATM    2  C   LIG     1      26.174  22.495  21.163  1.00  0.00     0.238 C 
HETATM    3  N   LIG     1      25.750  22.462  19.776  1.00  0.00    -0.310 N 
ENDROOT
BRANCH   3   4
HETATM    4  C   LIG     1      24.328  22.171  19.462  1.00  0.00     0.113 C 
HETATM    5  C   LIG     1      23.941  22.511  18.009  1.00  0.00     0.035 C 
BRANCH   4   6
HETATM    6  C   LIG     1      23.985  20.704  19.777  1.00  0.00     0.192 C 
BRANCH   6   7
HETATM    7  O   LIG     1      23.483  20.076  18.616  1.00  0.00    -0.394 OA
HETATM    8  C   LIG     1      22.684  18.975  18.984  1.00  0.00     0.201 C 
ENDBRANCH   6   7
ENDBRANCH   4   6
ENDBRANCH   3   4
BRANCH   3   9
HETATM    9  C   LIG     1      26.675  22.888  18.750  1.00  0.00     0.050 A 
HETATM   10  C   LIG     1      26.842  24.271  18.484  1.00  0.00    -0.035 A 
HETATM   11  C   LIG     1      26.108  25.333  19.261  1.00  0.00     0.050 C 
HETATM   12  C   LIG     1      27.768  24.686  17.516  1.00  0.00     0.009 A 
HETATM   13  C   LIG     1      28.527  23.752  16.816  1.00  0.00     0.001 A 
HETATM   14  C   LIG     1      28.383  22.393  17.082  1.00  0.00     0.009 A 
HETATM   15  C   LIG     1      27.465  21.941  18.045  1.00  0.00    -0.031 A 
BRANCH  15  16
HETATM   16  C   LIG     1      27.383  20.455  18.312  1.00  0.00     0.036 C 
HETATM   17  C   LIG     1      26.658  19.722  17.185  1.00  0.00     0.010 C 
ENDBRANCH  15  16
ENDBRANCH   3   9
BRANCH   2  18
HETATM   18  C   LIG     1      27.609  22.707  21.559  1.00  0.00     0.217 C 
HETATM   19 CL   LIG     1      27.811  24.327  22.264  1.00  0.00    -0.121 Cl
ENDBRANCH   2  18
TORSDOF 6
ENDMDL
