REMARK  1 active torsions:
REMARK  status: ('A' for Active; 'I' for Inactive)
REMARK    1  A    between atoms: C_2  and  C_3 
ROOT
HETATM    1  C   LIG     1      -0.114   1.488   0.016  1.00  0.00     0.010 C 
HETATM    2  C   LIG     1       0.114   0.023  -0.374  1.00  0.00    -0.009 C 
HETATM    3  C   LIG     1       1.236  -0.581   0.482  1.00  0.00     0.010 C 
ENDROOT
BRANCH   2   4
HETATM    4  C   LIG     1      -1.192  -0.777  -0.229  1.00  0.00     0.118 C 
HETATM    5 CL   LIG     1      -1.045  -2.403  -0.950  1.00  0.00    -0.130 Cl
ENDBRANCH   2   4
TORSDOF 1
