MODEL 1
REMARK VINA RESULT:      -3.8      0.000      0.000
REMARK  1 active torsions:
REMARK  status: ('A' for Active; 'I' for Inactive)
REMARK    1  A    between atoms: C_2  and  C_3 
ROOT
HETATM    1  C   LIG     1      17.537  34.805  25.777  1.00  0.00     0.010 C 
HETATM    2  C   LIG     1      17.421  36.321  25.579  1.00  0.00    -0.009 C 
HETATM    3  C   LIG     1      18.684  37.018  26.104  1.00  0.00     0.010 C 
ENDROOT
BRANCH   2   4
HETATM    4  C   LIG     1      17.178  36.648  24.096  1.00  0.00     0.118 C 
HETATM    5 CL   LIG     1      17.045  35.163  23.113  1.00  0.00    -0.130 Cl
ENDBRANCH   2   4
TORSDOF 1
ENDMDL
MODEL 2
REMARK VINA RESULT:      -3.7      1.742      2.059
REMARK  1 active torsions:
REMARK  status: ('A' for Active; 'I' for Inactive)
REMARK    1  A    between atoms: C_2  and  C_3 
ROOT
HETATM    1  C   LIG     1      17.217  35.071  24.259  1.00  0.00     0.010 C 
HETATM    2  C   LIG     1      17.478  35.639  25.659  1.00  0.00    -0.009 C 
HETATM    3  C   LIG     1      18.499  34.764  26.400  1.00  0.00     0.010 C 
ENDROOT
BRANCH   2   4
HETATM    4  C   LIG     1      17.959  37.097  25.562  1.00  0.00     0.118 C 
HETATM    5 CL   LIG     1      16.944  38.046  24.441  1.00  0.00    -0.130 Cl
ENDBRANCH   2   4
TORSDOF 1
ENDMDL
MODEL 3
REMARK VINA RESULT:      -3.7      1.553      2.061
REMARK  1 active torsions:
REMARK  status: ('A' for Active; 'I' for Inactive)
REMARK    1  A    between atoms: C_2  and  C_3 
ROOT
HETATM    1  C   LIG     1      18.349  36.254  26.915  1.00  0.00     0.010 C 
HETATM    2  C   LIG     1      18.008  36.304  25.421  1.00  0.00    -0.009 C 
HETATM    3  C   LIG     1      17.320  35.000  24.995  1.00  0.00     0.010 C 
ENDROOT
BRANCH   2   4
HETATM    4  C   LIG     1      17.125  37.527  25.117  1.00  0.00     0.118 C 
HETATM    5 CL   LIG     1      17.165  37.945  23.382  1.00  0.00    -0.130 Cl
ENDBRANCH   2   4
TORSDOF 1
ENDMDL
MODEL 4
REMARK VINA RESULT:      -3.6      1.914      2.854
REMARK  1 active torsions:
REMARK  status: ('A' for Active; 'I' for Inactive)
REMARK    1  A    between atoms: C_2  and  C_3 
ROOT
HETATM    1  C   LIG     1      17.516  38.231  24.461  1.00  0.00     0.010 C 
HETATM    2  C   LIG     1      17.257  36.855  25.085  1.00  0.00    -0.009 C 
HETATM    3  C   LIG     1      17.160  35.788  23.986  1.00  0.00     0.010 C 
ENDROOT
BRANCH   2   4
HETATM    4  C   LIG     1      18.362  36.513  26.100  1.00  0.00     0.118 C 
HETATM    5 CL   LIG     1      18.454  34.756  26.399  1.00  0.00    -0.130 Cl
ENDBRANCH   2   4
TORSDOF 1
ENDMDL
MODEL 5
REMARK VINA RESULT:      -3.5      5.566      6.313
REMARK  1 active torsions:
REMARK  status: ('A' for Active; 'I' for Inactive)
REMARK    1  A    between atoms: C_2  and  C_3 
ROOT
HETATM    1  C   LIG     1      19.167  36.989  19.530  1.00  0.00     0.010 C 
HETATM    2  C   LIG     1      19.573  38.459  19.377  1.00  0.00    -0.009 C 
HETATM    3  C   LIG     1      18.962  39.043  18.095  1.00  0.00     0.010 C 
ENDROOT
BRANCH   2   4
HETATM    4  C   LIG     1      19.144  39.262  20.617  1.00  0.00     0.118 C 
HETATM    5 CL   LIG     1      17.816  38.453  21.492  1.00  0.00    -0.130 Cl
ENDBRANCH   2   4
TORSDOF 1
ENDMDL
MODEL 6
REMARK VINA RESULT:      -3.5      4.993      5.672
REMARK  1 active torsions:
REMARK  status: ('A' for Active; 'I' for Inactive)
REMARK    1  A    between atoms: C_2  and  C_3 
ROOT
HETATM    1  C   LIG     1      18.454  39.069  21.017  1.00  0.00     0.010 C 
HETATM    2  C   LIG     1      18.949  38.431  19.714  1.00  0.00    -0.009 C 
HETATM    3  C   LIG     1      20.417  38.805  19.469  1.00  0.00     0.010 C 
ENDROOT
BRANCH   2   4
HETATM    4  C   LIG     1      18.762  36.905  19.763  1.00  0.00     0.118 C 
HETATM    5 CL   LIG     1      17.547  36.435  20.984  1.00  0.00    -0.130 Cl
ENDBRANCH   2   4
TORSDOF 1
ENDMDL
MODEL 7
REMARK VINA RESULT:      -3.4      2.605      3.407
REMARK  1 active torsions:
REMARK  status: ('A' for Active; 'I' for Inactive)
REMARK    1  A    between atoms: C_2  and  C_3 
ROOT
HETATM    1  C   LIG     1      15.762  37.777  22.903  1.00  0.00     0.010 C 
HETATM    2  C   LIG     1      17.213  37.765  23.398  1.00  0.00    -0.009 C 
HETATM    3  C   LIG     1      18.056  38.756  22.583  1.00  0.00     0.010 C 
ENDROOT
BRANCH   2   4
HETATM    4  C   LIG     1      17.267  38.090  24.901  1.00  0.00     0.118 C 
HETATM    5 CL   LIG     1      18.416  37.026  25.758  1.00  0.00    -0.130 Cl
ENDBRANCH   2   4
TORSDOF 1
ENDMDL
MODEL 8
REMARK VINA RESULT:      -3.4      1.746      2.500
REMARK  1 active torsions:
REMARK  status: ('A' for Active; 'I' for Inactive)
REMARK    1  A    between atoms: C_2  and  C_3 
ROOT
HETATM    1  C   LIG     1      17.578  37.774  25.390  1.00  0.00     0.010 C 
HETATM    2  C   LIG     1      16.857  37.439  24.079  1.00  0.00    -0.009 C 
HETATM    3  C   LIG     1      17.315  38.395  22.968  1.00  0.00     0.010 C 
ENDROOT
BRANCH   2   4
HETATM    4  C   LIG     1      17.108  35.971  23.692  1.00  0.00     0.118 C 
HETATM    5 CL   LIG     1      17.403  34.958  25.131  1.00  0.00    -0.130 Cl
ENDBRANCH   2   4
TORSDOF 1
ENDMDL
MODEL 9
REMARK VINA RESULT:      -3.4      2.343      3.841
REMARK  1 active torsions:
REMARK  status: ('A' for Active; 'I' for Inactive)
REMARK    1  A    between atoms: C_2  and  C_3 
ROOT
HETATM    1  C   LIG     1      18.026  38.589  21.879  1.00  0.00     0.010 C 
HETATM    2  C   LIG     1      17.045  37.411  21.919  1.00  0.00    -0.009 C 
HETATM    3  C   LIG     1      17.497  36.315  20.944  1.00  0.00     0.010 C 
ENDROOT
BRANCH   2   4
HETATM    4  C   LIG     1      16.923  36.867  23.353  1.00  0.00     0.118 C 
HETATM    5 CL   LIG     1      17.062  35.088  23.391  1.00  0.00    -0.130 Cl
ENDBRANCH   2   4
TORSDOF 1
ENDMDL
MODEL 10
REMARK VINA RESULT:      -3.4      3.629      4.373
REMARK  1 active torsions:
REMARK  status: ('A' for Active; 'I' for Inactive)
REMARK    1  A    between atoms: C_2  and  C_3 
ROOT
HETATM    1  C   LIG     1      18.139  36.570  20.324  1.00  0.00     0.010 C 
HETATM    2  C   LIG     1      17.018  36.537  21.370  1.00  0.00    -0.009 C 
HETATM    3  C   LIG     1      17.037  35.197  22.119  1.00  0.00     0.010 C 
ENDROOT
BRANCH   2   4
HETATM    4  C   LIG     1      17.159  37.722  22.340  1.00  0.00     0.118 C 
HETATM    5 CL   LIG     1      18.153  39.027  21.637  1.00  0.00    -0.130 Cl
ENDBRANCH   2   4
TORSDOF 1
ENDMDL
MODEL 11
REMARK VINA RESULT:      -3.2      5.733      6.482
REMARK  1 active torsions:
REMARK  status: ('A' for Active; 'I' for Inactive)
REMARK    1  A    between atoms: C_2  and  C_3 
ROOT
HETATM    1  C   LIG     1      18.353  38.886  20.990  1.00  0.00     0.010 C 
HETATM    2  C   LIG     1      19.375  38.145  20.119  1.00  0.00    -0.009 C 
HETATM    3  C   LIG     1      18.722  36.915  19.474  1.00  0.00     0.010 C 
ENDROOT
BRANCH   2   4
HETATM    4  C   LIG     1      19.955  39.092  19.055  1.00  0.00     0.118 C 
HETATM    5 CL   LIG     1      18.878  39.222  17.638  1.00  0.00    -0.130 Cl
ENDBRANCH   2   4
TORSDOF 1
ENDMDL
MODEL 12
REMARK VINA RESULT:      -3.2     12.418     12.693
REMARK  1 active torsions:
REMARK  status: ('A' for Active; 'I' for Inactive)
REMARK    1  A    between atoms: C_2  and  C_3 
ROOT
HETATM    1  C   LIG     1      15.273  28.362  13.766  1.00  0.00     0.010 C 
HETATM    2  C   LIG     1      14.938  29.713  14.408  1.00  0.00    -0.009 C 
HETATM    3  C   LIG     1      15.413  30.858  13.503  1.00  0.00     0.010 C 
ENDROOT
BRANCH   2   4
HETATM    4  C   LIG     1      13.428  29.810  14.687  1.00  0.00     0.118 C 
HETATM    5 CL   LIG     1      13.100  30.682  16.210  1.00  0.00    -0.130 Cl
ENDBRANCH   2   4
TORSDOF 1
ENDMDL
MODEL 13
REMARK VINA RESULT:      -3.2     11.510     12.045
REMARK  1 active torsions:
REMARK  status: ('A' for Active; 'I' for Inactive)
REMARK    1  A    between atoms: C_2  and  C_3 
ROOT
HETATM    1  C   LIG     1      27.893  39.932  19.703  1.00  0.00     0.010 C 
HETATM    2  C   LIG     1      28.402  38.519  19.392  1.00  0.00    -0.009 C 
HETATM    3  C   LIG     1      29.362  38.051  20.494  1.00  0.00     0.010 C 
ENDROOT
BRANCH   2   4
HETATM    4  C   LIG     1      27.219  37.549  19.232  1.00  0.00     0.118 C 
HETATM    5 CL   LIG     1      26.189  37.998  17.846  1.00  0.00    -0.130 Cl
ENDBRANCH   2   4
TORSDOF 1
ENDMDL
MODEL 14
REMARK VINA RESULT:      -3.1      3.873      4.305
REMARK  1 active torsions:
REMARK  status: ('A' for Active; 'I' for Inactive)
REMARK    1  A    between atoms: C_2  and  C_3 
ROOT
HETATM    1  C   LIG     1      15.738  37.818  22.767  1.00  0.00     0.010 C 
HETATM    2  C   LIG     1      17.234  37.661  22.471  1.00  0.00    -0.009 C 
HETATM    3  C   LIG     1      17.435  36.784  21.227  1.00  0.00     0.010 C 
ENDROOT
BRANCH   2   4
HETATM    4  C   LIG     1      17.891  39.041  22.295  1.00  0.00     0.118 C 
HETATM    5 CL   LIG     1      18.571  39.235  20.657  1.00  0.00    -0.130 Cl
ENDBRANCH   2   4
TORSDOF 1
ENDMDL
MODEL 15
REMARK VINA RESULT:      -3.1      7.507      8.467
REMARK  1 active torsions:
REMARK  status: ('A' for Active; 'I' for Inactive)
REMARK    1  A    between atoms: C_2  and  C_3 
ROOT
HETATM    1  C   LIG     1      13.860  31.691  17.316  1.00  0.00     0.010 C 
HETATM    2  C   LIG     1      15.101  32.526  17.651  1.00  0.00    -0.009 C 
HETATM    3  C   LIG     1      15.011  33.900  16.971  1.00  0.00     0.010 C 
ENDROOT
BRANCH   2   4
HETATM    4  C   LIG     1      15.256  32.666  19.175  1.00  0.00     0.118 C 
HETATM    5 CL   LIG     1      14.822  31.153  20.016  1.00  0.00    -0.130 Cl
ENDBRANCH   2   4
TORSDOF 1
ENDMDL
MODEL 16
REMARK VINA RESULT:      -3.1     11.358     12.300
REMARK  1 active torsions:
REMARK  status: ('A' for Active; 'I' for Inactive)
REMARK    1  A    between atoms: C_2  and  C_3 
ROOT
HETATM    1  C   LIG     1      15.798  31.502  13.465  1.00  0.00     0.010 C 
HETATM    2  C   LIG     1      14.785  30.554  14.119  1.00  0.00    -0.009 C 
HETATM    3  C   LIG     1      15.294  29.108  14.043  1.00  0.00     0.010 C 
ENDROOT
BRANCH   2   4
HETATM    4  C   LIG     1      14.520  30.978  15.574  1.00  0.00     0.118 C 
HETATM    5 CL   LIG     1      12.829  30.659  16.049  1.00  0.00    -0.130 Cl
ENDBRANCH   2   4
TORSDOF 1
ENDMDL
MODEL 17
REMARK VINA RESULT:      -3.1     11.546     12.266
REMARK  1 active torsions:
REMARK  status: ('A' for Active; 'I' for Inactive)
REMARK    1  A    between atoms: C_2  and  C_3 
ROOT
HETATM    1  C   LIG     1      15.303  29.099  14.097  1.00  0.00     0.010 C 
HETATM    2  C   LIG     1      14.598  30.446  14.294  1.00  0.00    -0.009 C 
HETATM    3  C   LIG     1      13.440  30.294  15.289  1.00  0.00     0.010 C 
ENDROOT
BRANCH   2   4
HETATM    4  C   LIG     1      15.604  31.511  14.765  1.00  0.00     0.118 C 
HETATM    5 CL   LIG     1      16.331  32.378  13.385  1.00  0.00    -0.130 Cl
ENDBRANCH   2   4
TORSDOF 1
ENDMDL
MODEL 18
REMARK VINA RESULT:      -3.1      2.192      2.933
REMARK  1 active torsions:
REMARK  status: ('A' for Active; 'I' for Inactive)
REMARK    1  A    between atoms: C_2  and  C_3 
ROOT
HETATM    1  C   LIG     1      17.553  38.002  24.832  1.00  0.00     0.010 C 
HETATM    2  C   LIG     1      16.634  37.794  23.622  1.00  0.00    -0.009 C 
HETATM    3  C   LIG     1      16.857  38.912  22.594  1.00  0.00     0.010 C 
ENDROOT
BRANCH   2   4
HETATM    4  C   LIG     1      16.875  36.407  23.002  1.00  0.00     0.118 C 
HETATM    5 CL   LIG     1      15.773  36.105  21.631  1.00  0.00    -0.130 Cl
ENDBRANCH   2   4
TORSDOF 1
ENDMDL
MODEL 19
REMARK VINA RESULT:      -3.0     11.635     12.503
REMARK  1 active torsions:
REMARK  status: ('A' for Active; 'I' for Inactive)
REMARK    1  A    between atoms: C_2  and  C_3 
ROOT
HETATM    1  C   LIG     1      15.369  31.779  15.118  1.00  0.00     0.010 C 
HETATM    2  C   LIG     1      14.872  30.334  14.993  1.00  0.00    -0.009 C 
HETATM    3  C   LIG     1      13.348  30.284  15.170  1.00  0.00     0.010 C 
ENDROOT
BRANCH   2   4
HETATM    4  C   LIG     1      15.298  29.739  13.640  1.00  0.00     0.118 C 
HETATM    5 CL   LIG     1      15.097  27.966  13.614  1.00  0.00    -0.130 Cl
ENDBRANCH   2   4
TORSDOF 1
ENDMDL
MODEL 20
REMARK VINA RESULT:      -2.9      9.319     10.123
REMARK  1 active torsions:
REMARK  status: ('A' for Active; 'I' for Inactive)
REMARK    1  A    between atoms: C_2  and  C_3 
ROOT
HETATM    1  C   LIG     1      13.352  30.895  16.261  1.00  0.00     0.010 C 
HETATM    2  C   LIG     1      14.110  32.105  16.819  1.00  0.00    -0.009 C 
HETATM    3  C   LIG     1      14.463  31.870  18.295  1.00  0.00     0.010 C 
ENDROOT
BRANCH   2   4
HETATM    4  C   LIG     1      15.371  32.378  15.980  1.00  0.00     0.118 C 
HETATM    5 CL   LIG     1      15.426  31.342  14.528  1.00  0.00    -0.130 Cl
ENDBRANCH   2   4
TORSDOF 1
ENDMDL
