REMARK  3 active torsions:
REMARK  status: ('A' for Active; 'I' for Inactive)
REMARK    1  A    between atoms: C_6  and  C_7 
REMARK    2  A    between atoms: C_18  and  C_20 
REMARK    3  A    between atoms: C_20  and  O_21 
ROOT
HETATM    1  C   LIG     1      -1.576   2.111   0.850  1.00  0.00     0.016 C 
HETATM    2  C   LIG     1      -1.170   0.606   0.725  1.00  0.00    -0.031 C 
HETATM    3  C   LIG     1       0.400   0.600   0.558  1.00  0.00     0.027 C 
HETATM    4  C   LIG     1       1.139  -0.710   0.901  1.00  0.00     0.014 C 
HETATM    5  C   LIG     1       2.665  -0.484   0.868  1.00  0.00     0.035 C 
HETATM    6  C   LIG     1       3.156   0.352  -0.312  1.00  0.00    -0.076 C 
HETATM    7  C   LIG     1       2.291   1.014  -1.108  1.00  0.00     0.010 C 
HETATM    8  C   LIG     1       0.840   0.972  -0.854  1.00  0.00    -0.057 C 
HETATM    9  C   LIG     1      -0.012   1.073  -1.898  1.00  0.00    -0.019 C 
HETATM   10  C   LIG     1      -1.488   0.765  -1.802  1.00  0.00     0.034 C 
HETATM   11  C   LIG     1      -1.658  -0.107   2.027  1.00  0.00     0.010 C 
HETATM   12  C   LIG     1      -2.098  -1.556   1.792  1.00  0.00     0.002 C 
HETATM   13  C   LIG     1      -3.312  -1.629   0.845  1.00  0.00     0.020 C 
HETATM   14  C   LIG     1      -1.775  -0.088  -0.548  1.00  0.00     0.016 C 
HETATM   15  C   LIG     1      -3.233  -0.667  -0.404  1.00  0.00     0.046 C 
HETATM   16  C   LIG     1      -4.295   0.445  -0.217  1.00  0.00     0.027 C 
ENDROOT
BRANCH  15  17
HETATM   17  C   LIG     1      -3.542  -1.485  -1.667  1.00  0.00     0.148 C 
HETATM   18  O   LIG     1      -2.904  -2.552  -1.880  1.00  0.00    -0.649 OA
BRANCH  17  19
HETATM   19  O   LIG     1      -4.466  -1.078  -2.634  1.00  0.00    -0.776 OA
HETATM   20  H   LIG     1      -4.947  -0.190  -2.614  1.00  0.00     0.167 HD
ENDBRANCH  17  19
ENDBRANCH  15  17
BRANCH   6  21
HETATM   21  C   LIG     1       4.640   0.392  -0.642  1.00  0.00     0.006 C 
HETATM   22  C   LIG     1       5.058  -0.881  -1.385  1.00  0.00     0.014 C 
HETATM   23  C   LIG     1       5.500   0.601   0.611  1.00  0.00     0.014 C 
ENDBRANCH   6  21
TORSDOF 3
