MODEL 1
REMARK VINA RESULT:      -5.5      0.000      0.000
REMARK  3 active torsions:
REMARK  status: ('A' for Active; 'I' for Inactive)
REMARK    1  A    between atoms: C_6  and  C_7 
REMARK    2  A    between atoms: C_18  and  C_20 
REMARK    3  A    between atoms: C_20  and  O_21 
ROOT
HETATM    1  C   LIG     1      26.868  20.672  19.626  1.00  0.00     0.016 C 
HETATM    2  C   LIG     1      25.906  21.862  19.305  1.00  0.00    -0.031 C 
HETATM    3  C   LIG     1      26.835  23.124  19.119  1.00  0.00     0.027 C 
HETATM    4  C   LIG     1      26.255  24.315  18.328  1.00  0.00     0.014 C 
HETATM    5  C   LIG     1      27.351  25.372  18.079  1.00  0.00     0.035 C 
HETATM    6  C   LIG     1      28.244  25.655  19.285  1.00  0.00    -0.076 C 
HETATM    7  C   LIG     1      28.205  24.871  20.383  1.00  0.00     0.010 C 
HETATM    8  C   LIG     1      27.314  23.699  20.448  1.00  0.00    -0.057 C 
HETATM    9  C   LIG     1      26.822  23.316  21.647  1.00  0.00    -0.019 C 
HETATM   10  C   LIG     1      25.695  22.322  21.806  1.00  0.00     0.034 C 
HETATM   11  C   LIG     1      25.119  21.475  18.011  1.00  0.00     0.010 C 
HETATM   12  C   LIG     1      23.686  22.017  17.992  1.00  0.00     0.002 C 
HETATM   13  C   LIG     1      22.844  21.422  19.137  1.00  0.00     0.020 C 
HETATM   14  C   LIG     1      24.915  22.183  20.481  1.00  0.00     0.016 C 
HETATM   15  C   LIG     1      23.585  21.339  20.527  1.00  0.00     0.046 C 
HETATM   16  C   LIG     1      23.844  19.845  20.841  1.00  0.00     0.027 C 
ENDROOT
BRANCH  15  17
HETATM   17  C   LIG     1      22.674  21.954  21.601  1.00  0.00     0.148 C 
HETATM   18  O   LIG     1      22.533  21.357  22.703  1.00  0.00    -0.649 OA
BRANCH  17  19
HETATM   19  O   LIG     1      21.941  23.128  21.400  1.00  0.00    -0.776 OA
HETATM   20  H   LIG     1      21.293  23.262  20.637  1.00  0.00     0.167 HD
ENDBRANCH  17  19
ENDBRANCH  15  17
BRANCH   6  21
HETATM   21  C   LIG     1      29.149  26.877  19.284  1.00  0.00     0.006 C 
HETATM   22  C   LIG     1      28.971  27.673  17.987  1.00  0.00     0.014 C 
HETATM   23  C   LIG     1      30.621  26.500  19.497  1.00  0.00     0.014 C 
ENDBRANCH   6  21
TORSDOF 3
ENDMDL
MODEL 2
REMARK VINA RESULT:      -5.4      1.920      2.908
REMARK  3 active torsions:
REMARK  status: ('A' for Active; 'I' for Inactive)
REMARK    1  A    between atoms: C_6  and  C_7 
REMARK    2  A    between atoms: C_18  and  C_20 
REMARK    3  A    between atoms: C_20  and  O_21 
ROOT
HETATM    1  C   LIG     1      23.423  21.344  18.230  1.00  0.00     0.016 C 
HETATM    2  C   LIG     1      23.990  21.932  19.564  1.00  0.00    -0.031 C 
HETATM    3  C   LIG     1      25.054  23.016  19.134  1.00  0.00     0.027 C 
HETATM    4  C   LIG     1      25.419  24.095  20.175  1.00  0.00     0.014 C 
HETATM    5  C   LIG     1      26.317  25.173  19.531  1.00  0.00     0.035 C 
HETATM    6  C   LIG     1      27.415  24.622  18.624  1.00  0.00    -0.076 C 
HETATM    7  C   LIG     1      27.432  23.325  18.253  1.00  0.00     0.010 C 
HETATM    8  C   LIG     1      26.376  22.396  18.693  1.00  0.00    -0.057 C 
HETATM    9  C   LIG     1      26.680  21.090  18.864  1.00  0.00    -0.019 C 
HETATM   10  C   LIG     1      25.775  20.109  19.571  1.00  0.00     0.034 C 
HETATM   11  C   LIG     1      22.778  22.531  20.348  1.00  0.00     0.010 C 
HETATM   12  C   LIG     1      22.920  22.400  21.869  1.00  0.00     0.002 C 
HETATM   13  C   LIG     1      22.959  20.922  22.305  1.00  0.00     0.020 C 
HETATM   14  C   LIG     1      24.741  20.863  20.435  1.00  0.00     0.016 C 
HETATM   15  C   LIG     1      23.849  19.989  21.395  1.00  0.00     0.046 C 
HETATM   16  C   LIG     1      22.904  19.037  20.620  1.00  0.00     0.027 C 
ENDROOT
BRANCH  15  17
HETATM   17  C   LIG     1      24.787  19.178  22.302  1.00  0.00     0.148 C 
HETATM   18  O   LIG     1      24.887  17.933  22.127  1.00  0.00    -0.649 OA
BRANCH  17  19
HETATM   19  O   LIG     1      25.506  19.744  23.359  1.00  0.00    -0.776 OA
HETATM   20  H   LIG     1      26.511  19.838  23.369  1.00  0.00     0.167 HD
ENDBRANCH  17  19
ENDBRANCH  15  17
BRANCH   6  21
HETATM   21  C   LIG     1      28.551  25.530  18.179  1.00  0.00     0.006 C 
HETATM   22  C   LIG     1      28.269  26.980  18.587  1.00  0.00     0.014 C 
HETATM   23  C   LIG     1      28.809  25.427  16.670  1.00  0.00     0.014 C 
ENDBRANCH   6  21
TORSDOF 3
ENDMDL
MODEL 3
REMARK VINA RESULT:      -5.3      2.899      6.659
REMARK  3 active torsions:
REMARK  status: ('A' for Active; 'I' for Inactive)
REMARK    1  A    between atoms: C_6  and  C_7 
REMARK    2  A    between atoms: C_18  and  C_20 
REMARK    3  A    between atoms: C_20  and  O_21 
ROOT
HETATM    1  C   LIG     1      28.790  22.291  18.736  1.00  0.00     0.016 C 
HETATM    2  C   LIG     1      28.417  23.413  19.759  1.00  0.00    -0.031 C 
HETATM    3  C   LIG     1      27.090  22.925  20.461  1.00  0.00     0.027 C 
HETATM    4  C   LIG     1      26.748  23.549  21.830  1.00  0.00     0.014 C 
HETATM    5  C   LIG     1      25.535  22.828  22.455  1.00  0.00     0.035 C 
HETATM    6  C   LIG     1      24.401  22.531  21.476  1.00  0.00    -0.076 C 
HETATM    7  C   LIG     1      24.566  22.687  20.146  1.00  0.00     0.010 C 
HETATM    8  C   LIG     1      25.856  23.129  19.588  1.00  0.00    -0.057 C 
HETATM    9  C   LIG     1      25.864  23.848  18.443  1.00  0.00    -0.019 C 
HETATM   10  C   LIG     1      27.078  24.587  17.932  1.00  0.00     0.034 C 
HETATM   11  C   LIG     1      29.624  23.552  20.742  1.00  0.00     0.010 C 
HETATM   12  C   LIG     1      29.839  24.988  21.231  1.00  0.00     0.002 C 
HETATM   13  C   LIG     1      30.192  25.933  20.066  1.00  0.00     0.020 C 
HETATM   14  C   LIG     1      28.100  24.789  19.071  1.00  0.00     0.016 C 
HETATM   15  C   LIG     1      29.334  25.717  18.759  1.00  0.00     0.046 C 
HETATM   16  C   LIG     1      30.263  25.121  17.672  1.00  0.00     0.027 C 
ENDROOT
BRANCH  15  17
HETATM   17  C   LIG     1      28.794  27.081  18.302  1.00  0.00     0.148 C 
HETATM   18  O   LIG     1      29.400  27.708  17.391  1.00  0.00    -0.649 OA
BRANCH  17  19
HETATM   19  O   LIG     1      27.684  27.698  18.886  1.00  0.00    -0.776 OA
HETATM   20  H   LIG     1      26.999  27.210  19.446  1.00  0.00     0.167 HD
ENDBRANCH  17  19
ENDBRANCH  15  17
BRANCH   6  21
HETATM   21  C   LIG     1      23.038  22.115  22.006  1.00  0.00     0.006 C 
HETATM   22  C   LIG     1      22.883  20.591  21.948  1.00  0.00     0.014 C 
HETATM   23  C   LIG     1      21.895  22.809  21.255  1.00  0.00     0.014 C 
ENDBRANCH   6  21
TORSDOF 3
ENDMDL
MODEL 4
REMARK VINA RESULT:      -5.2      2.463      6.215
REMARK  3 active torsions:
REMARK  status: ('A' for Active; 'I' for Inactive)
REMARK    1  A    between atoms: C_6  and  C_7 
REMARK    2  A    between atoms: C_18  and  C_20 
REMARK    3  A    between atoms: C_20  and  O_21 
ROOT
HETATM    1  C   LIG     1      25.807  24.641  18.298  1.00  0.00     0.016 C 
HETATM    2  C   LIG     1      26.329  23.221  18.695  1.00  0.00    -0.031 C 
HETATM    3  C   LIG     1      25.236  22.205  18.177  1.00  0.00     0.027 C 
HETATM    4  C   LIG     1      25.677  20.741  17.975  1.00  0.00     0.014 C 
HETATM    5  C   LIG     1      24.552  19.937  17.290  1.00  0.00     0.035 C 
HETATM    6  C   LIG     1      23.153  20.217  17.833  1.00  0.00    -0.076 C 
HETATM    7  C   LIG     1      22.922  21.246  18.674  1.00  0.00     0.010 C 
HETATM    8  C   LIG     1      24.010  22.152  19.082  1.00  0.00    -0.057 C 
HETATM    9  C   LIG     1      23.958  22.733  20.302  1.00  0.00    -0.019 C 
HETATM   10  C   LIG     1      25.130  23.444  20.937  1.00  0.00     0.034 C 
HETATM   11  C   LIG     1      27.720  23.039  18.009  1.00  0.00     0.010 C 
HETATM   12  C   LIG     1      28.697  22.198  18.839  1.00  0.00     0.002 C 
HETATM   13  C   LIG     1      29.025  22.881  20.182  1.00  0.00     0.020 C 
HETATM   14  C   LIG     1      26.446  23.024  20.249  1.00  0.00     0.016 C 
HETATM   15  C   LIG     1      27.784  23.518  20.919  1.00  0.00     0.046 C 
HETATM   16  C   LIG     1      27.937  25.058  20.866  1.00  0.00     0.027 C 
ENDROOT
BRANCH  15  17
HETATM   17  C   LIG     1      27.786  23.037  22.378  1.00  0.00     0.148 C 
HETATM   18  O   LIG     1      27.890  23.885  23.305  1.00  0.00    -0.649 OA
BRANCH  17  19
HETATM   19  O   LIG     1      27.734  21.687  22.737  1.00  0.00    -0.776 OA
HETATM   20  H   LIG     1      28.185  21.305  23.556  1.00  0.00     0.167 HD
ENDBRANCH  17  19
ENDBRANCH  15  17
BRANCH   6  21
HETATM   21  C   LIG     1      22.005  19.285  17.476  1.00  0.00     0.006 C 
HETATM   22  C   LIG     1      21.894  18.154  18.504  1.00  0.00     0.014 C 
HETATM   23  C   LIG     1      22.145  18.721  16.057  1.00  0.00     0.014 C 
ENDBRANCH   6  21
TORSDOF 3
ENDMDL
MODEL 5
REMARK VINA RESULT:      -5.1     14.462     16.439
REMARK  3 active torsions:
REMARK  status: ('A' for Active; 'I' for Inactive)
REMARK    1  A    between atoms: C_6  and  C_7 
REMARK    2  A    between atoms: C_18  and  C_20 
REMARK    3  A    between atoms: C_20  and  O_21 
ROOT
HETATM    1  C   LIG     1      30.413  28.690  35.546  1.00  0.00     0.016 C 
HETATM    2  C   LIG     1      28.861  28.574  35.395  1.00  0.00    -0.031 C 
HETATM    3  C   LIG     1      28.609  28.122  33.904  1.00  0.00     0.027 C 
HETATM    4  C   LIG     1      27.254  27.456  33.590  1.00  0.00     0.014 C 
HETATM    5  C   LIG     1      27.251  26.909  32.147  1.00  0.00     0.035 C 
HETATM    6  C   LIG     1      27.868  27.848  31.113  1.00  0.00    -0.076 C 
HETATM    7  C   LIG     1      28.554  28.948  31.488  1.00  0.00     0.010 C 
HETATM    8  C   LIG     1      28.751  29.271  32.912  1.00  0.00    -0.057 C 
HETATM    9  C   LIG     1      28.855  30.567  33.282  1.00  0.00    -0.019 C 
HETATM   10  C   LIG     1      28.776  31.032  34.717  1.00  0.00     0.034 C 
HETATM   11  C   LIG     1      28.378  27.527  36.450  1.00  0.00     0.010 C 
HETATM   12  C   LIG     1      26.991  27.841  37.020  1.00  0.00     0.002 C 
HETATM   13  C   LIG     1      26.987  29.178  37.787  1.00  0.00     0.020 C 
HETATM   14  C   LIG     1      28.122  29.945  35.596  1.00  0.00     0.016 C 
HETATM   15  C   LIG     1      27.780  30.346  37.081  1.00  0.00     0.046 C 
HETATM   16  C   LIG     1      29.047  30.639  37.921  1.00  0.00     0.027 C 
ENDROOT
BRANCH  15  17
HETATM   17  C   LIG     1      26.877  31.588  37.037  1.00  0.00     0.148 C 
HETATM   18  O   LIG     1      27.132  32.561  37.799  1.00  0.00    -0.649 OA
BRANCH  17  19
HETATM   19  O   LIG     1      25.741  31.680  36.227  1.00  0.00    -0.776 OA
HETATM   20  H   LIG     1      25.597  31.126  35.395  1.00  0.00     0.167 HD
ENDBRANCH  17  19
ENDBRANCH  15  17
BRANCH   6  21
HETATM   21  C   LIG     1      27.656  27.582  29.631  1.00  0.00     0.006 C 
HETATM   22  C   LIG     1      27.217  26.131  29.404  1.00  0.00     0.014 C 
HETATM   23  C   LIG     1      28.906  27.910  28.804  1.00  0.00     0.014 C 
ENDBRANCH   6  21
TORSDOF 3
ENDMDL
MODEL 6
REMARK VINA RESULT:      -5.1      2.949      6.012
REMARK  3 active torsions:
REMARK  status: ('A' for Active; 'I' for Inactive)
REMARK    1  A    between atoms: C_6  and  C_7 
REMARK    2  A    between atoms: C_18  and  C_20 
REMARK    3  A    between atoms: C_20  and  O_21 
ROOT
HETATM    1  C   LIG     1      26.383  19.617  21.225  1.00  0.00     0.016 C 
HETATM    2  C   LIG     1      25.649  20.998  21.235  1.00  0.00    -0.031 C 
HETATM    3  C   LIG     1      25.321  21.295  22.751  1.00  0.00     0.027 C 
HETATM    4  C   LIG     1      25.055  22.765  23.137  1.00  0.00     0.014 C 
HETATM    5  C   LIG     1      24.943  22.899  24.671  1.00  0.00     0.035 C 
HETATM    6  C   LIG     1      24.125  21.799  25.345  1.00  0.00    -0.076 C 
HETATM    7  C   LIG     1      23.742  20.697  24.667  1.00  0.00     0.010 C 
HETATM    8  C   LIG     1      24.119  20.504  23.255  1.00  0.00    -0.057 C 
HETATM    9  C   LIG     1      23.293  19.806  22.445  1.00  0.00    -0.019 C 
HETATM   10  C   LIG     1      23.426  19.781  20.941  1.00  0.00     0.034 C 
HETATM   11  C   LIG     1      26.626  22.037  20.597  1.00  0.00     0.010 C 
HETATM   12  C   LIG     1      25.906  23.132  19.801  1.00  0.00     0.002 C 
HETATM   13  C   LIG     1      25.142  22.543  18.598  1.00  0.00     0.020 C 
HETATM   14  C   LIG     1      24.283  20.971  20.461  1.00  0.00     0.016 C 
HETATM   15  C   LIG     1      24.355  21.210  18.905  1.00  0.00     0.046 C 
HETATM   16  C   LIG     1      25.067  20.054  18.161  1.00  0.00     0.027 C 
ENDROOT
BRANCH  15  17
HETATM   17  C   LIG     1      22.917  21.365  18.386  1.00  0.00     0.148 C 
HETATM   18  O   LIG     1      22.438  20.479  17.627  1.00  0.00    -0.649 OA
BRANCH  17  19
HETATM   19  O   LIG     1      22.119  22.478  18.667  1.00  0.00    -0.776 OA
HETATM   20  H   LIG     1      21.240  22.670  18.208  1.00  0.00     0.167 HD
ENDBRANCH  17  19
ENDBRANCH  15  17
BRANCH   6  21
HETATM   21  C   LIG     1      23.674  21.971  26.787  1.00  0.00     0.006 C 
HETATM   22  C   LIG     1      24.864  21.826  27.741  1.00  0.00     0.014 C 
HETATM   23  C   LIG     1      22.553  20.992  27.157  1.00  0.00     0.014 C 
ENDBRANCH   6  21
TORSDOF 3
ENDMDL
MODEL 7
REMARK VINA RESULT:      -5.0     14.222     16.397
REMARK  3 active torsions:
REMARK  status: ('A' for Active; 'I' for Inactive)
REMARK    1  A    between atoms: C_6  and  C_7 
REMARK    2  A    between atoms: C_18  and  C_20 
REMARK    3  A    between atoms: C_20  and  O_21 
ROOT
HETATM    1  C   LIG     1      28.324  31.050  33.678  1.00  0.00     0.016 C 
HETATM    2  C   LIG     1      28.645  29.757  34.497  1.00  0.00    -0.031 C 
HETATM    3  C   LIG     1      28.780  28.600  33.432  1.00  0.00     0.027 C 
HETATM    4  C   LIG     1      29.561  27.340  33.858  1.00  0.00     0.014 C 
HETATM    5  C   LIG     1      29.760  26.402  32.649  1.00  0.00     0.035 C 
HETATM    6  C   LIG     1      28.525  26.240  31.764  1.00  0.00    -0.076 C 
HETATM    7  C   LIG     1      27.446  27.035  31.917  1.00  0.00     0.010 C 
HETATM    8  C   LIG     1      27.427  28.104  32.931  1.00  0.00    -0.057 C 
HETATM    9  C   LIG     1      26.250  28.454  33.495  1.00  0.00    -0.019 C 
HETATM   10  C   LIG     1      26.141  29.322  34.726  1.00  0.00     0.034 C 
HETATM   11  C   LIG     1      29.966  30.034  35.284  1.00  0.00     0.010 C 
HETATM   12  C   LIG     1      30.011  29.339  36.649  1.00  0.00     0.002 C 
HETATM   13  C   LIG     1      28.901  29.860  37.583  1.00  0.00     0.020 C 
HETATM   14  C   LIG     1      27.488  29.352  35.480  1.00  0.00     0.016 C 
HETATM   15  C   LIG     1      27.493  30.047  36.893  1.00  0.00     0.046 C 
HETATM   16  C   LIG     1      27.204  31.567  36.806  1.00  0.00     0.027 C 
ENDROOT
BRANCH  15  17
HETATM   17  C   LIG     1      26.431  29.357  37.762  1.00  0.00     0.148 C 
HETATM   18  O   LIG     1      26.616  28.164  38.127  1.00  0.00    -0.649 OA
BRANCH  17  19
HETATM   19  O   LIG     1      25.229  29.969  38.129  1.00  0.00    -0.776 OA
HETATM   20  H   LIG     1      24.527  29.529  38.708  1.00  0.00     0.167 HD
ENDBRANCH  17  19
ENDBRANCH  15  17
BRANCH   6  21
HETATM   21  C   LIG     1      28.478  25.123  30.733  1.00  0.00     0.006 C 
HETATM   22  C   LIG     1      27.290  25.319  29.786  1.00  0.00     0.014 C 
HETATM   23  C   LIG     1      28.431  23.738  31.391  1.00  0.00     0.014 C 
ENDBRANCH   6  21
TORSDOF 3
ENDMDL
MODEL 8
REMARK VINA RESULT:      -5.0      3.318      7.142
REMARK  3 active torsions:
REMARK  status: ('A' for Active; 'I' for Inactive)
REMARK    1  A    between atoms: C_6  and  C_7 
REMARK    2  A    between atoms: C_18  and  C_20 
REMARK    3  A    between atoms: C_20  and  O_21 
ROOT
HETATM    1  C   LIG     1      22.822  23.539  21.600  1.00  0.00     0.016 C 
HETATM    2  C   LIG     1      23.467  22.151  21.279  1.00  0.00    -0.031 C 
HETATM    3  C   LIG     1      22.929  21.165  22.388  1.00  0.00     0.027 C 
HETATM    4  C   LIG     1      22.980  19.656  22.072  1.00  0.00     0.014 C 
HETATM    5  C   LIG     1      22.247  18.857  23.170  1.00  0.00     0.035 C 
HETATM    6  C   LIG     1      22.541  19.322  24.595  1.00  0.00    -0.076 C 
HETATM    7  C   LIG     1      23.203  20.474  24.832  1.00  0.00     0.010 C 
HETATM    8  C   LIG     1      23.646  21.337  23.723  1.00  0.00    -0.057 C 
HETATM    9  C   LIG     1      24.762  22.084  23.879  1.00  0.00    -0.019 C 
HETATM   10  C   LIG     1      25.465  22.781  22.738  1.00  0.00     0.034 C 
HETATM   11  C   LIG     1      23.019  21.763  19.834  1.00  0.00     0.010 C 
HETATM   12  C   LIG     1      24.082  20.971  19.065  1.00  0.00     0.002 C 
HETATM   13  C   LIG     1      25.361  21.805  18.852  1.00  0.00     0.020 C 
HETATM   14  C   LIG     1      25.035  22.164  21.390  1.00  0.00     0.016 C 
HETATM   15  C   LIG     1      25.823  22.637  20.111  1.00  0.00     0.046 C 
HETATM   16  C   LIG     1      25.599  24.138  19.799  1.00  0.00     0.027 C 
ENDROOT
BRANCH  15  17
HETATM   17  C   LIG     1      27.316  22.366  20.350  1.00  0.00     0.148 C 
HETATM   18  O   LIG     1      27.724  21.173  20.396  1.00  0.00    -0.649 OA
BRANCH  17  19
HETATM   19  O   LIG     1      28.250  23.380  20.578  1.00  0.00    -0.776 OA
HETATM   20  H   LIG     1      29.062  23.537  19.998  1.00  0.00     0.167 HD
ENDBRANCH  17  19
ENDBRANCH  15  17
BRANCH   6  21
HETATM   21  C   LIG     1      22.143  18.445  25.772  1.00  0.00     0.006 C 
HETATM   22  C   LIG     1      20.691  17.978  25.624  1.00  0.00     0.014 C 
HETATM   23  C   LIG     1      22.354  19.157  27.114  1.00  0.00     0.014 C 
ENDBRANCH   6  21
TORSDOF 3
ENDMDL
MODEL 9
REMARK VINA RESULT:      -4.8      4.073      5.864
REMARK  3 active torsions:
REMARK  status: ('A' for Active; 'I' for Inactive)
REMARK    1  A    between atoms: C_6  and  C_7 
REMARK    2  A    between atoms: C_18  and  C_20 
REMARK    3  A    between atoms: C_20  and  O_21 
ROOT
HETATM    1  C   LIG     1      26.995  20.309  24.739  1.00  0.00     0.016 C 
HETATM    2  C   LIG     1      25.890  21.415  24.787  1.00  0.00    -0.031 C 
HETATM    3  C   LIG     1      25.747  21.941  23.306  1.00  0.00     0.027 C 
HETATM    4  C   LIG     1      24.432  22.659  22.938  1.00  0.00     0.014 C 
HETATM    5  C   LIG     1      24.381  22.932  21.420  1.00  0.00     0.035 C 
HETATM    6  C   LIG     1      25.691  23.442  20.824  1.00  0.00    -0.076 C 
HETATM    7  C   LIG     1      26.837  23.426  21.537  1.00  0.00     0.010 C 
HETATM    8  C   LIG     1      26.870  22.894  22.911  1.00  0.00    -0.057 C 
HETATM    9  C   LIG     1      27.756  23.407  23.792  1.00  0.00    -0.019 C 
HETATM   10  C   LIG     1      27.697  23.149  25.280  1.00  0.00     0.034 C 
HETATM   11  C   LIG     1      24.592  20.739  25.335  1.00  0.00     0.010 C 
HETATM   12  C   LIG     1      23.735  21.682  26.186  1.00  0.00     0.002 C 
HETATM   13  C   LIG     1      24.486  22.136  27.453  1.00  0.00     0.020 C 
HETATM   14  C   LIG     1      26.294  22.645  25.679  1.00  0.00     0.016 C 
HETATM   15  C   LIG     1      25.999  22.519  27.221  1.00  0.00     0.046 C 
HETATM   16  C   LIG     1      26.874  21.438  27.904  1.00  0.00     0.027 C 
ENDROOT
BRANCH  15  17
HETATM   17  C   LIG     1      26.257  23.890  27.864  1.00  0.00     0.148 C 
HETATM   18  O   LIG     1      26.874  23.948  28.963  1.00  0.00    -0.649 OA
BRANCH  17  19
HETATM   19  O   LIG     1      25.793  25.090  27.317  1.00  0.00    -0.776 OA
HETATM   20  H   LIG     1      25.609  25.921  27.860  1.00  0.00     0.167 HD
ENDBRANCH  17  19
ENDBRANCH  15  17
BRANCH   6  21
HETATM   21  C   LIG     1      25.701  24.041  19.427  1.00  0.00     0.006 C 
HETATM   22  C   LIG     1      26.334  23.065  18.430  1.00  0.00     0.014 C 
HETATM   23  C   LIG     1      26.415  25.399  19.390  1.00  0.00     0.014 C 
ENDBRANCH   6  21
TORSDOF 3
ENDMDL
MODEL 10
REMARK VINA RESULT:      -4.7     13.532     15.630
REMARK  3 active torsions:
REMARK  status: ('A' for Active; 'I' for Inactive)
REMARK    1  A    between atoms: C_6  and  C_7 
REMARK    2  A    between atoms: C_18  and  C_20 
REMARK    3  A    between atoms: C_20  and  O_21 
ROOT
HETATM    1  C   LIG     1      26.185  29.652  34.755  1.00  0.00     0.016 C 
HETATM    2  C   LIG     1      27.638  29.154  34.461  1.00  0.00    -0.031 C 
HETATM    3  C   LIG     1      27.648  28.738  32.938  1.00  0.00     0.027 C 
HETATM    4  C   LIG     1      29.019  28.679  32.233  1.00  0.00     0.014 C 
HETATM    5  C   LIG     1      28.829  28.448  30.720  1.00  0.00     0.035 C 
HETATM    6  C   LIG     1      27.773  27.403  30.366  1.00  0.00    -0.076 C 
HETATM    7  C   LIG     1      26.935  26.911  31.303  1.00  0.00     0.010 C 
HETATM    8  C   LIG     1      26.994  27.382  32.698  1.00  0.00    -0.057 C 
HETATM    9  C   LIG     1      26.651  26.533  33.692  1.00  0.00    -0.019 C 
HETATM   10  C   LIG     1      26.936  26.800  35.151  1.00  0.00     0.034 C 
HETATM   11  C   LIG     1      28.600  30.342  34.786  1.00  0.00     0.010 C 
HETATM   12  C   LIG     1      29.954  29.887  35.341  1.00  0.00     0.002 C 
HETATM   13  C   LIG     1      29.793  29.154  36.687  1.00  0.00     0.020 C 
HETATM   14  C   LIG     1      28.029  27.880  35.293  1.00  0.00     0.016 C 
HETATM   15  C   LIG     1      28.589  28.135  36.743  1.00  0.00     0.046 C 
HETATM   16  C   LIG     1      27.517  28.716  37.697  1.00  0.00     0.027 C 
ENDROOT
BRANCH  15  17
HETATM   17  C   LIG     1      29.111  26.797  37.289  1.00  0.00     0.148 C 
HETATM   18  O   LIG     1      30.249  26.388  36.930  1.00  0.00    -0.649 OA
BRANCH  17  19
HETATM   19  O   LIG     1      28.361  25.969  38.129  1.00  0.00    -0.776 OA
HETATM   20  H   LIG     1      27.722  26.313  38.833  1.00  0.00     0.167 HD
ENDBRANCH  17  19
ENDBRANCH  15  17
BRANCH   6  21
HETATM   21  C   LIG     1      27.700  26.853  28.950  1.00  0.00     0.006 C 
HETATM   22  C   LIG     1      26.936  25.525  28.930  1.00  0.00     0.014 C 
HETATM   23  C   LIG     1      29.092  26.692  28.326  1.00  0.00     0.014 C 
ENDBRANCH   6  21
TORSDOF 3
ENDMDL
MODEL 11
REMARK VINA RESULT:      -4.5      3.724      4.838
REMARK  3 active torsions:
REMARK  status: ('A' for Active; 'I' for Inactive)
REMARK    1  A    between atoms: C_6  and  C_7 
REMARK    2  A    between atoms: C_18  and  C_20 
REMARK    3  A    between atoms: C_20  and  O_21 
ROOT
HETATM    1  C   LIG     1      23.704  19.396  22.615  1.00  0.00     0.016 C 
HETATM    2  C   LIG     1      24.868  20.141  21.883  1.00  0.00    -0.031 C 
HETATM    3  C   LIG     1      25.588  21.003  22.992  1.00  0.00     0.027 C 
HETATM    4  C   LIG     1      27.036  21.451  22.706  1.00  0.00     0.014 C 
HETATM    5  C   LIG     1      27.647  22.111  23.960  1.00  0.00     0.035 C 
HETATM    6  C   LIG     1      26.709  23.070  24.691  1.00  0.00    -0.076 C 
HETATM    7  C   LIG     1      25.398  23.139  24.381  1.00  0.00     0.010 C 
HETATM    8  C   LIG     1      24.817  22.273  23.339  1.00  0.00    -0.057 C 
HETATM    9  C   LIG     1      23.763  22.724  22.624  1.00  0.00    -0.019 C 
HETATM   10  C   LIG     1      23.267  22.059  21.361  1.00  0.00     0.034 C 
HETATM   11  C   LIG     1      25.787  19.044  21.256  1.00  0.00     0.010 C 
HETATM   12  C   LIG     1      26.422  19.476  19.929  1.00  0.00     0.002 C 
HETATM   13  C   LIG     1      25.351  19.732  18.850  1.00  0.00     0.020 C 
HETATM   14  C   LIG     1      24.359  21.137  20.779  1.00  0.00     0.016 C 
HETATM   15  C   LIG     1      24.081  20.522  19.355  1.00  0.00     0.046 C 
HETATM   16  C   LIG     1      22.881  19.542  19.358  1.00  0.00     0.027 C 
ENDROOT
BRANCH  15  17
HETATM   17  C   LIG     1      23.814  21.682  18.385  1.00  0.00     0.148 C 
HETATM   18  O   LIG     1      24.784  22.370  17.966  1.00  0.00    -0.649 OA
BRANCH  17  19
HETATM   19  O   LIG     1      22.530  22.057  17.978  1.00  0.00    -0.776 OA
HETATM   20  H   LIG     1      21.693  21.542  18.212  1.00  0.00     0.167 HD
ENDBRANCH  17  19
ENDBRANCH  15  17
BRANCH   6  21
HETATM   21  C   LIG     1      27.268  24.015  25.743  1.00  0.00     0.006 C 
HETATM   22  C   LIG     1      26.148  24.522  26.657  1.00  0.00     0.014 C 
HETATM   23  C   LIG     1      28.032  25.187  25.113  1.00  0.00     0.014 C 
ENDBRANCH   6  21
TORSDOF 3
ENDMDL
MODEL 12
REMARK VINA RESULT:      -4.5      7.789      9.633
REMARK  3 active torsions:
REMARK  status: ('A' for Active; 'I' for Inactive)
REMARK    1  A    between atoms: C_6  and  C_7 
REMARK    2  A    between atoms: C_18  and  C_20 
REMARK    3  A    between atoms: C_20  and  O_21 
ROOT
HETATM    1  C   LIG     1      29.356  23.167  27.619  1.00  0.00     0.016 C 
HETATM    2  C   LIG     1      27.990  23.929  27.620  1.00  0.00    -0.031 C 
HETATM    3  C   LIG     1      28.069  24.945  28.826  1.00  0.00     0.027 C 
HETATM    4  C   LIG     1      27.112  26.154  28.792  1.00  0.00     0.014 C 
HETATM    5  C   LIG     1      27.453  27.135  29.934  1.00  0.00     0.035 C 
HETATM    6  C   LIG     1      27.749  26.467  31.275  1.00  0.00    -0.076 C 
HETATM    7  C   LIG     1      27.919  25.132  31.369  1.00  0.00     0.010 C 
HETATM    8  C   LIG     1      27.845  24.270  30.176  1.00  0.00    -0.057 C 
HETATM    9  C   LIG     1      27.405  23.000  30.310  1.00  0.00    -0.019 C 
HETATM   10  C   LIG     1      27.022  22.122  29.141  1.00  0.00     0.034 C 
HETATM   11  C   LIG     1      27.856  24.627  26.229  1.00  0.00     0.010 C 
HETATM   12  C   LIG     1      26.410  24.702  25.728  1.00  0.00     0.002 C 
HETATM   13  C   LIG     1      25.819  23.297  25.502  1.00  0.00     0.020 C 
HETATM   14  C   LIG     1      26.762  22.986  27.888  1.00  0.00     0.016 C 
HETATM   15  C   LIG     1      26.158  22.249  26.633  1.00  0.00     0.046 C 
HETATM   16  C   LIG     1      27.132  21.202  26.037  1.00  0.00     0.027 C 
ENDROOT
BRANCH  15  17
HETATM   17  C   LIG     1      24.853  21.567  27.070  1.00  0.00     0.148 C 
HETATM   18  O   LIG     1      24.820  20.310  27.173  1.00  0.00    -0.649 OA
BRANCH  17  19
HETATM   19  O   LIG     1      23.668  22.268  27.312  1.00  0.00    -0.776 OA
HETATM   20  H   LIG     1      23.607  23.079  27.911  1.00  0.00     0.167 HD
ENDBRANCH  17  19
ENDBRANCH  15  17
BRANCH   6  21
HETATM   21  C   LIG     1      27.792  27.306  32.542  1.00  0.00     0.006 C 
HETATM   22  C   LIG     1      26.373  27.650  33.005  1.00  0.00     0.014 C 
HETATM   23  C   LIG     1      28.630  28.578  32.358  1.00  0.00     0.014 C 
ENDBRANCH   6  21
TORSDOF 3
ENDMDL
MODEL 13
REMARK VINA RESULT:      -4.5      3.257      6.370
REMARK  3 active torsions:
REMARK  status: ('A' for Active; 'I' for Inactive)
REMARK    1  A    between atoms: C_6  and  C_7 
REMARK    2  A    between atoms: C_18  and  C_20 
REMARK    3  A    between atoms: C_20  and  O_21 
ROOT
HETATM    1  C   LIG     1      26.312  20.525  20.905  1.00  0.00     0.016 C 
HETATM    2  C   LIG     1      26.882  21.834  21.543  1.00  0.00    -0.031 C 
HETATM    3  C   LIG     1      26.359  21.844  23.033  1.00  0.00     0.027 C 
HETATM    4  C   LIG     1      27.131  22.719  24.043  1.00  0.00     0.014 C 
HETATM    5  C   LIG     1      26.611  22.464  25.473  1.00  0.00     0.035 C 
HETATM    6  C   LIG     1      25.090  22.374  25.587  1.00  0.00    -0.076 C 
HETATM    7  C   LIG     1      24.310  22.295  24.489  1.00  0.00     0.010 C 
HETATM    8  C   LIG     1      24.899  22.272  23.139  1.00  0.00    -0.057 C 
HETATM    9  C   LIG     1      24.200  22.797  22.109  1.00  0.00    -0.019 C 
HETATM   10  C   LIG     1      24.802  23.084  20.753  1.00  0.00     0.034 C 
HETATM   11  C   LIG     1      28.438  21.755  21.432  1.00  0.00     0.010 C 
HETATM   12  C   LIG     1      29.098  23.122  21.222  1.00  0.00     0.002 C 
HETATM   13  C   LIG     1      28.657  23.761  19.891  1.00  0.00     0.020 C 
HETATM   14  C   LIG     1      26.341  23.138  20.853  1.00  0.00     0.016 C 
HETATM   15  C   LIG     1      27.117  23.625  19.571  1.00  0.00     0.046 C 
HETATM   16  C   LIG     1      26.963  22.648  18.379  1.00  0.00     0.027 C 
ENDROOT
BRANCH  15  17
HETATM   17  C   LIG     1      26.576  25.011  19.191  1.00  0.00     0.148 C 
HETATM   18  O   LIG     1      25.809  25.120  18.195  1.00  0.00    -0.649 OA
BRANCH  17  19
HETATM   19  O   LIG     1      26.933  26.183  19.865  1.00  0.00    -0.776 OA
HETATM   20  H   LIG     1      26.346  26.640  20.548  1.00  0.00     0.167 HD
ENDBRANCH  17  19
ENDBRANCH  15  17
BRANCH   6  21
HETATM   21  C   LIG     1      24.432  22.438  26.956  1.00  0.00     0.006 C 
HETATM   22  C   LIG     1      25.434  22.058  28.051  1.00  0.00     0.014 C 
HETATM   23  C   LIG     1      23.179  21.556  27.032  1.00  0.00     0.014 C 
ENDBRANCH   6  21
TORSDOF 3
ENDMDL
MODEL 14
REMARK VINA RESULT:      -4.4      2.328      3.108
REMARK  3 active torsions:
REMARK  status: ('A' for Active; 'I' for Inactive)
REMARK    1  A    between atoms: C_6  and  C_7 
REMARK    2  A    between atoms: C_18  and  C_20 
REMARK    3  A    between atoms: C_20  and  O_21 
ROOT
HETATM    1  C   LIG     1      27.567  20.944  21.999  1.00  0.00     0.016 C 
HETATM    2  C   LIG     1      26.852  22.228  21.466  1.00  0.00    -0.031 C 
HETATM    3  C   LIG     1      27.676  23.445  22.042  1.00  0.00     0.027 C 
HETATM    4  C   LIG     1      27.532  24.799  21.316  1.00  0.00     0.014 C 
HETATM    5  C   LIG     1      28.541  25.818  21.885  1.00  0.00     0.035 C 
HETATM    6  C   LIG     1      28.662  25.807  23.407  1.00  0.00    -0.076 C 
HETATM    7  C   LIG     1      28.100  24.829  24.146  1.00  0.00     0.010 C 
HETATM    8  C   LIG     1      27.365  23.721  23.509  1.00  0.00    -0.057 C 
HETATM    9  C   LIG     1      26.343  23.143  24.176  1.00  0.00    -0.019 C 
HETATM   10  C   LIG     1      25.349  22.206  23.529  1.00  0.00     0.034 C 
HETATM   11  C   LIG     1      26.873  22.147  19.906  1.00  0.00     0.010 C 
HETATM   12  C   LIG     1      25.633  22.768  19.253  1.00  0.00     0.002 C 
HETATM   13  C   LIG     1      24.349  22.013  19.652  1.00  0.00     0.020 C 
HETATM   14  C   LIG     1      25.379  22.373  21.994  1.00  0.00     0.016 C 
HETATM   15  C   LIG     1      24.264  21.617  21.178  1.00  0.00     0.046 C 
HETATM   16  C   LIG     1      24.398  20.077  21.279  1.00  0.00     0.027 C 
ENDROOT
BRANCH  15  17
HETATM   17  C   LIG     1      22.898  22.065  21.720  1.00  0.00     0.148 C 
HETATM   18  O   LIG     1      22.251  21.288  22.474  1.00  0.00    -0.649 OA
BRANCH  17  19
HETATM   19  O   LIG     1      22.300  23.281  21.374  1.00  0.00    -0.776 OA
HETATM   20  H   LIG     1      21.538  23.699  21.888  1.00  0.00     0.167 HD
ENDBRANCH  17  19
ENDBRANCH  15  17
BRANCH   6  21
HETATM   21  C   LIG     1      29.373  26.950  24.115  1.00  0.00     0.006 C 
HETATM   22  C   LIG     1      30.667  27.314  23.380  1.00  0.00     0.014 C 
HETATM   23  C   LIG     1      29.653  26.626  25.588  1.00  0.00     0.014 C 
ENDBRANCH   6  21
TORSDOF 3
ENDMDL
MODEL 15
REMARK VINA RESULT:      -4.4      3.923      6.398
REMARK  3 active torsions:
REMARK  status: ('A' for Active; 'I' for Inactive)
REMARK    1  A    between atoms: C_6  and  C_7 
REMARK    2  A    between atoms: C_18  and  C_20 
REMARK    3  A    between atoms: C_20  and  O_21 
ROOT
HETATM    1  C   LIG     1      25.842  19.128  25.014  1.00  0.00     0.016 C 
HETATM    2  C   LIG     1      24.903  20.371  24.882  1.00  0.00    -0.031 C 
HETATM    3  C   LIG     1      24.632  20.538  23.335  1.00  0.00     0.027 C 
HETATM    4  C   LIG     1      23.382  21.342  22.923  1.00  0.00     0.014 C 
HETATM    5  C   LIG     1      23.166  21.245  21.398  1.00  0.00     0.035 C 
HETATM    6  C   LIG     1      24.440  21.386  20.568  1.00  0.00    -0.076 C 
HETATM    7  C   LIG     1      25.658  21.365  21.147  1.00  0.00     0.010 C 
HETATM    8  C   LIG     1      25.804  21.182  22.602  1.00  0.00    -0.057 C 
HETATM    9  C   LIG     1      26.857  21.748  23.232  1.00  0.00    -0.019 C 
HETATM   10  C   LIG     1      26.963  21.869  24.734  1.00  0.00     0.034 C 
HETATM   11  C   LIG     1      23.614  20.057  25.707  1.00  0.00     0.010 C 
HETATM   12  C   LIG     1      23.002  21.299  26.364  1.00  0.00     0.002 C 
HETATM   13  C   LIG     1      23.965  21.923  27.393  1.00  0.00     0.020 C 
HETATM   14  C   LIG     1      25.573  21.701  25.383  1.00  0.00     0.016 C 
HETATM   15  C   LIG     1      25.471  21.998  26.926  1.00  0.00     0.046 C 
HETATM   16  C   LIG     1      26.284  20.992  27.777  1.00  0.00     0.027 C 
ENDROOT
BRANCH  15  17
HETATM   17  C   LIG     1      25.982  23.427  27.166  1.00  0.00     0.148 C 
HETATM   18  O   LIG     1      26.896  23.619  28.014  1.00  0.00    -0.649 OA
BRANCH  17  19
HETATM   19  O   LIG     1      25.446  24.548  26.525  1.00  0.00    -0.776 OA
HETATM   20  H   LIG     1      26.002  25.236  26.038  1.00  0.00     0.167 HD
ENDBRANCH  17  19
ENDBRANCH  15  17
BRANCH   6  21
HETATM   21  C   LIG     1      24.340  21.621  19.069  1.00  0.00     0.006 C 
HETATM   22  C   LIG     1      25.160  22.850  18.663  1.00  0.00     0.014 C 
HETATM   23  C   LIG     1      22.884  21.758  18.606  1.00  0.00     0.014 C 
ENDBRANCH   6  21
TORSDOF 3
ENDMDL
MODEL 16
REMARK VINA RESULT:      -4.3      1.719      2.175
REMARK  3 active torsions:
REMARK  status: ('A' for Active; 'I' for Inactive)
REMARK    1  A    between atoms: C_6  and  C_7 
REMARK    2  A    between atoms: C_18  and  C_20 
REMARK    3  A    between atoms: C_20  and  O_21 
ROOT
HETATM    1  C   LIG     1      27.036  20.531  18.656  1.00  0.00     0.016 C 
HETATM    2  C   LIG     1      25.936  21.502  19.196  1.00  0.00    -0.031 C 
HETATM    3  C   LIG     1      26.712  22.760  19.750  1.00  0.00     0.027 C 
HETATM    4  C   LIG     1      25.914  24.073  19.891  1.00  0.00     0.014 C 
HETATM    5  C   LIG     1      26.861  25.234  20.258  1.00  0.00     0.035 C 
HETATM    6  C   LIG     1      27.905  24.889  21.318  1.00  0.00    -0.076 C 
HETATM    7  C   LIG     1      28.107  23.614  21.711  1.00  0.00     0.010 C 
HETATM    8  C   LIG     1      27.342  22.505  21.115  1.00  0.00    -0.057 C 
HETATM    9  C   LIG     1      27.080  21.412  21.865  1.00  0.00    -0.019 C 
HETATM   10  C   LIG     1      26.082  20.349  21.468  1.00  0.00     0.034 C 
HETATM   11  C   LIG     1      24.992  21.834  17.996  1.00  0.00     0.010 C 
HETATM   12  C   LIG     1      23.533  22.039  18.415  1.00  0.00     0.002 C 
HETATM   13  C   LIG     1      22.935  20.753  19.019  1.00  0.00     0.020 C 
HETATM   14  C   LIG     1      25.118  20.896  20.393  1.00  0.00     0.016 C 
HETATM   15  C   LIG     1      23.890  19.985  20.014  1.00  0.00     0.046 C 
HETATM   16  C   LIG     1      24.323  18.663  19.333  1.00  0.00     0.027 C 
ENDROOT
BRANCH  15  17
HETATM   17  C   LIG     1      23.110  19.685  21.302  1.00  0.00     0.148 C 
HETATM   18  O   LIG     1      22.804  18.492  21.572  1.00  0.00    -0.649 OA
BRANCH  17  19
HETATM   19  O   LIG     1      22.666  20.682  22.176  1.00  0.00    -0.776 OA
HETATM   20  H   LIG     1      21.801  21.190  22.058  1.00  0.00     0.167 HD
ENDBRANCH  17  19
ENDBRANCH  15  17
BRANCH   6  21
HETATM   21  C   LIG     1      28.689  26.002  21.995  1.00  0.00     0.006 C 
HETATM   22  C   LIG     1      30.156  25.968  21.554  1.00  0.00     0.014 C 
HETATM   23  C   LIG     1      28.576  25.936  23.523  1.00  0.00     0.014 C 
ENDBRANCH   6  21
TORSDOF 3
ENDMDL
MODEL 17
REMARK VINA RESULT:      -4.3      3.956      6.458
REMARK  3 active torsions:
REMARK  status: ('A' for Active; 'I' for Inactive)
REMARK    1  A    between atoms: C_6  and  C_7 
REMARK    2  A    between atoms: C_18  and  C_20 
REMARK    3  A    between atoms: C_20  and  O_21 
ROOT
HETATM    1  C   LIG     1      25.889  19.882  24.608  1.00  0.00     0.016 C 
HETATM    2  C   LIG     1      25.436  21.351  24.320  1.00  0.00    -0.031 C 
HETATM    3  C   LIG     1      24.622  21.290  22.969  1.00  0.00     0.027 C 
HETATM    4  C   LIG     1      23.647  22.450  22.682  1.00  0.00     0.014 C 
HETATM    5  C   LIG     1      22.803  22.138  21.428  1.00  0.00     0.035 C 
HETATM    6  C   LIG     1      23.592  21.534  20.268  1.00  0.00    -0.076 C 
HETATM    7  C   LIG     1      24.861  21.108  20.432  1.00  0.00     0.010 C 
HETATM    8  C   LIG     1      25.527  21.190  21.745  1.00  0.00    -0.057 C 
HETATM    9  C   LIG     1      26.866  21.363  21.792  1.00  0.00    -0.019 C 
HETATM   10  C   LIG     1      27.614  21.739  23.049  1.00  0.00     0.034 C 
HETATM   11  C   LIG     1      24.576  21.810  25.542  1.00  0.00     0.010 C 
HETATM   12  C   LIG     1      24.726  23.301  25.859  1.00  0.00     0.002 C 
HETATM   13  C   LIG     1      26.172  23.647  26.266  1.00  0.00     0.020 C 
HETATM   14  C   LIG     1      26.642  22.331  24.092  1.00  0.00     0.016 C 
HETATM   15  C   LIG     1      27.287  22.961  25.384  1.00  0.00     0.046 C 
HETATM   16  C   LIG     1      28.006  21.905  26.261  1.00  0.00     0.027 C 
ENDROOT
BRANCH  15  17
HETATM   17  C   LIG     1      28.284  24.041  24.935  1.00  0.00     0.148 C 
HETATM   18  O   LIG     1      29.491  23.948  25.287  1.00  0.00    -0.649 OA
BRANCH  17  19
HETATM   19  O   LIG     1      27.909  25.164  24.192  1.00  0.00    -0.776 OA
HETATM   20  H   LIG     1      27.946  26.110  24.546  1.00  0.00     0.167 HD
ENDBRANCH  17  19
ENDBRANCH  15  17
BRANCH   6  21
HETATM   21  C   LIG     1      22.965  21.467  18.884  1.00  0.00     0.006 C 
HETATM   22  C   LIG     1      22.707  20.011  18.483  1.00  0.00     0.014 C 
HETATM   23  C   LIG     1      23.824  22.180  17.832  1.00  0.00     0.014 C 
ENDBRANCH   6  21
TORSDOF 3
ENDMDL
MODEL 18
REMARK VINA RESULT:      -4.2      3.333      6.196
REMARK  3 active torsions:
REMARK  status: ('A' for Active; 'I' for Inactive)
REMARK    1  A    between atoms: C_6  and  C_7 
REMARK    2  A    between atoms: C_18  and  C_20 
REMARK    3  A    between atoms: C_20  and  O_21 
ROOT
HETATM    1  C   LIG     1      25.979  23.390  21.455  1.00  0.00     0.016 C 
HETATM    2  C   LIG     1      24.739  22.485  21.753  1.00  0.00    -0.031 C 
HETATM    3  C   LIG     1      24.956  21.932  23.216  1.00  0.00     0.027 C 
HETATM    4  C   LIG     1      23.708  21.428  23.970  1.00  0.00     0.014 C 
HETATM    5  C   LIG     1      24.065  21.107  25.436  1.00  0.00     0.035 C 
HETATM    6  C   LIG     1      25.387  20.363  25.618  1.00  0.00    -0.076 C 
HETATM    7  C   LIG     1      26.253  20.217  24.594  1.00  0.00     0.010 C 
HETATM    8  C   LIG     1      25.966  20.791  23.267  1.00  0.00    -0.057 C 
HETATM    9  C   LIG     1      26.448  20.173  22.167  1.00  0.00    -0.019 C 
HETATM   10  C   LIG     1      25.994  20.496  20.763  1.00  0.00     0.034 C 
HETATM   11  C   LIG     1      23.472  23.389  21.613  1.00  0.00     0.010 C 
HETATM   12  C   LIG     1      22.252  22.636  21.070  1.00  0.00     0.002 C 
HETATM   13  C   LIG     1      22.503  22.115  19.641  1.00  0.00     0.020 C 
HETATM   14  C   LIG     1      24.643  21.242  20.797  1.00  0.00     0.016 C 
HETATM   15  C   LIG     1      23.929  21.477  19.413  1.00  0.00     0.046 C 
HETATM   16  C   LIG     1      24.731  22.424  18.486  1.00  0.00     0.027 C 
ENDROOT
BRANCH  15  17
HETATM   17  C   LIG     1      23.746  20.109  18.739  1.00  0.00     0.148 C 
HETATM   18  O   LIG     1      24.269  19.905  17.609  1.00  0.00    -0.649 OA
BRANCH  17  19
HETATM   19  O   LIG     1      22.976  19.081  19.292  1.00  0.00    -0.776 OA
HETATM   20  H   LIG     1      22.667  18.270  18.776  1.00  0.00     0.167 HD
ENDBRANCH  17  19
ENDBRANCH  15  17
BRANCH   6  21
HETATM   21  C   LIG     1      25.710  19.715  26.955  1.00  0.00     0.006 C 
HETATM   22  C   LIG     1      25.260  20.617  28.109  1.00  0.00     0.014 C 
HETATM   23  C   LIG     1      27.199  19.371  27.079  1.00  0.00     0.014 C 
ENDBRANCH   6  21
TORSDOF 3
ENDMDL
MODEL 19
REMARK VINA RESULT:      -4.0      4.336      7.275
REMARK  3 active torsions:
REMARK  status: ('A' for Active; 'I' for Inactive)
REMARK    1  A    between atoms: C_6  and  C_7 
REMARK    2  A    between atoms: C_18  and  C_20 
REMARK    3  A    between atoms: C_20  and  O_21 
ROOT
HETATM    1  C   LIG     1      27.612  25.059  24.824  1.00  0.00     0.016 C 
HETATM    2  C   LIG     1      27.709  23.508  24.653  1.00  0.00    -0.031 C 
HETATM    3  C   LIG     1      26.619  23.128  23.576  1.00  0.00     0.027 C 
HETATM    4  C   LIG     1      26.795  21.783  22.841  1.00  0.00     0.014 C 
HETATM    5  C   LIG     1      25.762  21.661  21.701  1.00  0.00     0.035 C 
HETATM    6  C   LIG     1      24.353  22.119  22.072  1.00  0.00    -0.076 C 
HETATM    7  C   LIG     1      24.113  22.782  23.222  1.00  0.00     0.010 C 
HETATM    8  C   LIG     1      25.208  23.108  24.154  1.00  0.00    -0.057 C 
HETATM    9  C   LIG     1      24.943  23.182  25.477  1.00  0.00    -0.019 C 
HETATM   10  C   LIG     1      26.015  23.228  26.541  1.00  0.00     0.034 C 
HETATM   11  C   LIG     1      29.169  23.191  24.196  1.00  0.00     0.010 C 
HETATM   12  C   LIG     1      29.693  21.855  24.734  1.00  0.00     0.002 C 
HETATM   13  C   LIG     1      29.773  21.861  26.274  1.00  0.00     0.020 C 
HETATM   14  C   LIG     1      27.357  22.724  25.968  1.00  0.00     0.016 C 
HETATM   15  C   LIG     1      28.532  22.516  26.996  1.00  0.00     0.046 C 
HETATM   16  C   LIG     1      29.000  23.847  27.636  1.00  0.00     0.027 C 
ENDROOT
BRANCH  15  17
HETATM   17  C   LIG     1      28.040  21.551  28.085  1.00  0.00     0.148 C 
HETATM   18  O   LIG     1      27.957  21.958  29.276  1.00  0.00    -0.649 OA
BRANCH  17  19
HETATM   19  O   LIG     1      27.726  20.211  27.835  1.00  0.00    -0.776 OA
HETATM   20  H   LIG     1      26.783  19.862  27.745  1.00  0.00     0.167 HD
ENDBRANCH  17  19
ENDBRANCH  15  17
BRANCH   6  21
HETATM   21  C   LIG     1      23.183  21.769  21.165  1.00  0.00     0.006 C 
HETATM   22  C   LIG     1      23.658  21.604  19.718  1.00  0.00     0.014 C 
HETATM   23  C   LIG     1      22.058  22.807  21.256  1.00  0.00     0.014 C 
ENDBRANCH   6  21
TORSDOF 3
ENDMDL
MODEL 20
REMARK VINA RESULT:      -4.0      2.820      6.296
REMARK  3 active torsions:
REMARK  status: ('A' for Active; 'I' for Inactive)
REMARK    1  A    between atoms: C_6  and  C_7 
REMARK    2  A    between atoms: C_18  and  C_20 
REMARK    3  A    between atoms: C_20  and  O_21 
ROOT
HETATM    1  C   LIG     1      28.173  24.662  17.387  1.00  0.00     0.016 C 
HETATM    2  C   LIG     1      28.418  23.494  18.397  1.00  0.00    -0.031 C 
HETATM    3  C   LIG     1      27.404  22.355  17.987  1.00  0.00     0.027 C 
HETATM    4  C   LIG     1      27.727  20.922  18.457  1.00  0.00     0.014 C 
HETATM    5  C   LIG     1      26.748  19.918  17.813  1.00  0.00     0.035 C 
HETATM    6  C   LIG     1      25.291  20.377  17.794  1.00  0.00    -0.076 C 
HETATM    7  C   LIG     1      24.953  21.645  18.106  1.00  0.00     0.010 C 
HETATM    8  C   LIG     1      25.981  22.640  18.458  1.00  0.00    -0.057 C 
HETATM    9  C   LIG     1      25.666  23.633  19.318  1.00  0.00    -0.019 C 
HETATM   10  C   LIG     1      26.693  24.533  19.965  1.00  0.00     0.034 C 
HETATM   11  C   LIG     1      29.915  23.072  18.253  1.00  0.00     0.010 C 
HETATM   12  C   LIG     1      30.540  22.604  19.571  1.00  0.00     0.002 C 
HETATM   13  C   LIG     1      30.567  23.739  20.615  1.00  0.00     0.020 C 
HETATM   14  C   LIG     1      28.094  23.890  19.883  1.00  0.00     0.016 C 
HETATM   15  C   LIG     1      29.248  24.602  20.685  1.00  0.00     0.046 C 
HETATM   16  C   LIG     1      29.571  26.012  20.132  1.00  0.00     0.027 C 
ENDROOT
BRANCH  15  17
HETATM   17  C   LIG     1      28.809  24.699  22.154  1.00  0.00     0.148 C 
HETATM   18  O   LIG     1      28.729  23.645  22.843  1.00  0.00    -0.649 OA
BRANCH  17  19
HETATM   19  O   LIG     1      28.437  25.901  22.763  1.00  0.00    -0.776 OA
HETATM   20  H   LIG     1      29.069  26.676  22.911  1.00  0.00     0.167 HD
ENDBRANCH  17  19
ENDBRANCH  15  17
BRANCH   6  21
HETATM   21  C   LIG     1      24.190  19.376  17.480  1.00  0.00     0.006 C 
HETATM   22  C   LIG     1      24.380  18.792  16.077  1.00  0.00     0.014 C 
HETATM   23  C   LIG     1      22.794  19.995  17.631  1.00  0.00     0.014 C 
ENDBRANCH   6  21
TORSDOF 3
ENDMDL
