MODEL 1
REMARK VINA RESULT:      -5.3      0.000      0.000
REMARK  2 active torsions:
REMARK  status: ('A' for Active; 'I' for Inactive)
REMARK    1  A    between atoms: O_1  and  C_2 
REMARK    2  A    between atoms: C_16  and  O_17 
ROOT
HETATM    1  C   LIG     1      19.732  20.221  31.625  1.00  0.00     0.118 C 
HETATM    2  C   LIG     1      20.124  19.700  33.029  1.00  0.00     0.037 C 
HETATM    3  C   LIG     1      19.482  20.568  34.131  1.00  0.00    -0.004 C 
HETATM    4  C   LIG     1      19.544  19.905  35.520  1.00  0.00     0.006 C 
HETATM    5  C   LIG     1      20.946  19.932  36.110  1.00  0.00     0.006 C 
HETATM    6  C   LIG     1      21.464  21.376  36.246  1.00  0.00    -0.002 C 
HETATM    7  C   LIG     1      22.873  21.388  36.924  1.00  0.00     0.006 C 
HETATM    8  C   LIG     1      23.902  20.383  36.366  1.00  0.00     0.013 C 
HETATM    9  C   LIG     1      25.267  20.901  36.804  1.00  0.00     0.079 C 
HETATM   10  C   LIG     1      19.434  21.741  31.601  1.00  0.00     0.032 C 
HETATM   11  C   LIG     1      20.285  22.505  32.623  1.00  0.00     0.012 C 
HETATM   12  C   LIG     1      20.054  22.038  34.111  1.00  0.00    -0.034 C 
HETATM   13  C   LIG     1      18.981  22.964  34.750  1.00  0.00     0.016 C 
HETATM   14  C   LIG     1      21.444  22.113  34.882  1.00  0.00     0.027 C 
HETATM   15  C   LIG     1      21.994  23.558  35.052  1.00  0.00     0.124 C 
HETATM   16  C   LIG     1      23.439  23.517  35.568  1.00  0.00     0.049 C 
HETATM   17  C   LIG     1      23.598  22.758  36.917  1.00  0.00     0.023 C 
HETATM   18  C   LIG     1      23.182  23.619  38.129  1.00  0.00     0.024 C 
HETATM   19  C   LIG     1      25.033  22.347  37.046  1.00  0.00     0.135 C 
HETATM   20  O   LIG     1      25.940  23.129  37.290  1.00  0.00    -0.297 OA
ENDROOT
BRANCH   1  21
HETATM   21  O   LIG     1      20.717  19.884  30.681  1.00  0.00    -0.396 OA
HETATM   22  H   LIG     1      21.157  20.726  30.392  1.00  0.00     0.210 HD
ENDBRANCH   1  21
BRANCH  15  23
HETATM   23  O   LIG     1      21.200  24.307  35.935  1.00  0.00    -0.395 OA
HETATM   24  H   LIG     1      21.631  25.196  36.030  1.00  0.00     0.210 HD
ENDBRANCH  15  23
TORSDOF 2
ENDMDL
MODEL 2
REMARK VINA RESULT:      -5.2     15.038     17.287
REMARK  2 active torsions:
REMARK  status: ('A' for Active; 'I' for Inactive)
REMARK    1  A    between atoms: O_1  and  C_2 
REMARK    2  A    between atoms: C_16  and  O_17 
ROOT
HETATM    1  C   LIG     1      23.679  21.396  18.788  1.00  0.00     0.118 C 
HETATM    2  C   LIG     1      25.092  21.424  18.156  1.00  0.00     0.037 C 
HETATM    3  C   LIG     1      26.177  21.267  19.240  1.00  0.00    -0.004 C 
HETATM    4  C   LIG     1      27.561  20.938  18.651  1.00  0.00     0.006 C 
HETATM    5  C   LIG     1      28.201  22.143  17.976  1.00  0.00     0.006 C 
HETATM    6  C   LIG     1      28.368  23.311  18.965  1.00  0.00    -0.002 C 
HETATM    7  C   LIG     1      29.096  24.510  18.275  1.00  0.00     0.006 C 
HETATM    8  C   LIG     1      28.566  24.914  16.884  1.00  0.00     0.013 C 
HETATM    9  C   LIG     1      29.057  26.338  16.650  1.00  0.00     0.079 C 
HETATM   10  C   LIG     1      23.656  21.904  20.252  1.00  0.00     0.032 C 
HETATM   11  C   LIG     1      24.715  22.987  20.495  1.00  0.00     0.012 C 
HETATM   12  C   LIG     1      26.190  22.501  20.224  1.00  0.00    -0.034 C 
HETATM   13  C   LIG     1      26.797  22.017  21.570  1.00  0.00     0.016 C 
HETATM   14  C   LIG     1      27.010  23.712  19.599  1.00  0.00     0.027 C 
HETATM   15  C   LIG     1      27.212  24.907  20.573  1.00  0.00     0.124 C 
HETATM   16  C   LIG     1      27.779  26.116  19.817  1.00  0.00     0.049 C 
HETATM   17  C   LIG     1      29.126  25.825  19.095  1.00  0.00     0.023 C 
HETATM   18  C   LIG     1      30.330  25.856  20.062  1.00  0.00     0.024 C 
HETATM   19  C   LIG     1      29.303  26.854  18.020  1.00  0.00     0.135 C 
HETATM   20  O   LIG     1      29.586  28.022  18.243  1.00  0.00    -0.297 OA
ENDROOT
BRANCH   1  21
HETATM   21  O   LIG     1      22.767  22.111  17.992  1.00  0.00    -0.396 OA
HETATM   22  H   LIG     1      21.874  21.696  18.111  1.00  0.00     0.210 HD
ENDBRANCH   1  21
BRANCH  15  23
HETATM   23  O   LIG     1      28.072  24.567  21.629  1.00  0.00    -0.395 OA
HETATM   24  H   LIG     1      27.502  24.247  22.376  1.00  0.00     0.210 HD
ENDBRANCH  15  23
TORSDOF 2
ENDMDL
MODEL 3
REMARK VINA RESULT:      -5.0     11.946     14.605
REMARK  2 active torsions:
REMARK  status: ('A' for Active; 'I' for Inactive)
REMARK    1  A    between atoms: O_1  and  C_2 
REMARK    2  A    between atoms: C_16  and  O_17 
ROOT
HETATM    1  C   LIG     1      23.527  19.377  17.318  1.00  0.00     0.118 C 
HETATM    2  C   LIG     1      22.802  20.161  18.439  1.00  0.00     0.037 C 
HETATM    3  C   LIG     1      23.409  21.570  18.598  1.00  0.00    -0.004 C 
HETATM    4  C   LIG     1      22.520  22.507  19.437  1.00  0.00     0.006 C 
HETATM    5  C   LIG     1      22.558  22.164  20.919  1.00  0.00     0.006 C 
HETATM    6  C   LIG     1      23.992  22.243  21.472  1.00  0.00    -0.002 C 
HETATM    7  C   LIG     1      24.000  21.962  23.010  1.00  0.00     0.006 C 
HETATM    8  C   LIG     1      23.195  20.732  23.478  1.00  0.00     0.013 C 
HETATM    9  C   LIG     1      23.737  20.383  24.859  1.00  0.00     0.079 C 
HETATM   10  C   LIG     1      24.998  19.817  17.120  1.00  0.00     0.032 C 
HETATM   11  C   LIG     1      25.638  20.276  18.437  1.00  0.00     0.012 C 
HETATM   12  C   LIG     1      24.901  21.500  19.105  1.00  0.00    -0.034 C 
HETATM   13  C   LIG     1      25.611  22.803  18.645  1.00  0.00     0.016 C 
HETATM   14  C   LIG     1      24.953  21.315  20.684  1.00  0.00     0.027 C 
HETATM   15  C   LIG     1      26.385  21.403  21.283  1.00  0.00     0.124 C 
HETATM   16  C   LIG     1      26.371  20.963  22.754  1.00  0.00     0.049 C 
HETATM   17  C   LIG     1      25.404  21.794  23.644  1.00  0.00     0.023 C 
HETATM   18  C   LIG     1      26.003  23.158  24.050  1.00  0.00     0.024 C 
HETATM   19  C   LIG     1      25.094  20.984  24.866  1.00  0.00     0.135 C 
HETATM   20  O   LIG     1      25.893  20.797  25.772  1.00  0.00    -0.297 OA
ENDROOT
BRANCH   1  21
HETATM   21  O   LIG     1      23.441  17.992  17.550  1.00  0.00    -0.396 OA
HETATM   22  H   LIG     1      23.924  17.799  18.396  1.00  0.00     0.210 HD
ENDBRANCH   1  21
BRANCH  15  23
HETATM   23  O   LIG     1      26.901  22.705  21.186  1.00  0.00    -0.395 OA
HETATM   24  H   LIG     1      27.543  22.707  20.428  1.00  0.00     0.210 HD
ENDBRANCH  15  23
TORSDOF 2
ENDMDL
MODEL 4
REMARK VINA RESULT:      -5.0     12.798     15.390
REMARK  2 active torsions:
REMARK  status: ('A' for Active; 'I' for Inactive)
REMARK    1  A    between atoms: O_1  and  C_2 
REMARK    2  A    between atoms: C_16  and  O_17 
ROOT
HETATM    1  C   LIG     1      22.821  19.128  22.700  1.00  0.00     0.118 C 
HETATM    2  C   LIG     1      23.076  20.654  22.756  1.00  0.00     0.037 C 
HETATM    3  C   LIG     1      22.682  21.321  21.422  1.00  0.00    -0.004 C 
HETATM    4  C   LIG     1      22.580  22.854  21.533  1.00  0.00     0.006 C 
HETATM    5  C   LIG     1      23.947  23.516  21.629  1.00  0.00     0.006 C 
HETATM    6  C   LIG     1      24.815  23.182  20.403  1.00  0.00    -0.002 C 
HETATM    7  C   LIG     1      26.184  23.932  20.484  1.00  0.00     0.006 C 
HETATM    8  C   LIG     1      26.921  23.854  21.837  1.00  0.00     0.013 C 
HETATM    9  C   LIG     1      28.375  24.200  21.537  1.00  0.00     0.079 C 
HETATM   10  C   LIG     1      22.920  18.546  21.268  1.00  0.00     0.032 C 
HETATM   11  C   LIG     1      23.943  19.305  20.414  1.00  0.00     0.012 C 
HETATM   12  C   LIG     1      23.608  20.836  20.241  1.00  0.00    -0.034 C 
HETATM   13  C   LIG     1      22.810  21.013  18.919  1.00  0.00     0.016 C 
HETATM   14  C   LIG     1      24.976  21.649  20.227  1.00  0.00     0.027 C 
HETATM   15  C   LIG     1      25.876  21.349  18.994  1.00  0.00     0.124 C 
HETATM   16  C   LIG     1      27.266  21.971  19.190  1.00  0.00     0.049 C 
HETATM   17  C   LIG     1      27.234  23.508  19.424  1.00  0.00     0.023 C 
HETATM   18  C   LIG     1      27.057  24.300  18.111  1.00  0.00     0.024 C 
HETATM   19  C   LIG     1      28.518  23.898  20.091  1.00  0.00     0.135 C 
HETATM   20  O   LIG     1      29.595  23.929  19.515  1.00  0.00    -0.297 OA
ENDROOT
BRANCH   1  21
HETATM   21  O   LIG     1      23.684  18.451  23.581  1.00  0.00    -0.396 OA
HETATM   22  H   LIG     1      24.456  18.121  23.051  1.00  0.00     0.210 HD
ENDBRANCH   1  21
BRANCH  15  23
HETATM   23  O   LIG     1      25.303  21.840  17.811  1.00  0.00    -0.395 OA
HETATM   24  H   LIG     1      25.708  21.331  17.060  1.00  0.00     0.210 HD
ENDBRANCH  15  23
TORSDOF 2
ENDMDL
MODEL 5
REMARK VINA RESULT:      -4.7     14.034     16.787
REMARK  2 active torsions:
REMARK  status: ('A' for Active; 'I' for Inactive)
REMARK    1  A    between atoms: O_1  and  C_2 
REMARK    2  A    between atoms: C_16  and  O_17 
ROOT
HETATM    1  C   LIG     1      23.180  20.639  21.958  1.00  0.00     0.118 C 
HETATM    2  C   LIG     1      23.176  21.654  20.790  1.00  0.00     0.037 C 
HETATM    3  C   LIG     1      23.808  21.034  19.527  1.00  0.00    -0.004 C 
HETATM    4  C   LIG     1      23.518  21.853  18.256  1.00  0.00     0.006 C 
HETATM    5  C   LIG     1      24.325  23.143  18.205  1.00  0.00     0.006 C 
HETATM    6  C   LIG     1      25.836  22.856  18.255  1.00  0.00    -0.002 C 
HETATM    7  C   LIG     1      26.649  24.185  18.125  1.00  0.00     0.006 C 
HETATM    8  C   LIG     1      26.184  25.353  19.019  1.00  0.00     0.013 C 
HETATM    9  C   LIG     1      27.365  26.313  19.094  1.00  0.00     0.079 C 
HETATM   10  C   LIG     1      24.335  19.610  21.867  1.00  0.00     0.032 C 
HETATM   11  C   LIG     1      25.585  20.213  21.212  1.00  0.00     0.012 C 
HETATM   12  C   LIG     1      25.340  20.728  19.742  1.00  0.00    -0.034 C 
HETATM   13  C   LIG     1      25.731  19.590  18.758  1.00  0.00     0.016 C 
HETATM   14  C   LIG     1      26.214  22.038  19.518  1.00  0.00     0.027 C 
HETATM   15  C   LIG     1      27.748  21.787  19.548  1.00  0.00     0.124 C 
HETATM   16  C   LIG     1      28.503  23.123  19.582  1.00  0.00     0.049 C 
HETATM   17  C   LIG     1      28.172  24.057  18.383  1.00  0.00     0.023 C 
HETATM   18  C   LIG     1      28.927  23.655  17.097  1.00  0.00     0.024 C 
HETATM   19  C   LIG     1      28.535  25.457  18.777  1.00  0.00     0.135 C 
HETATM   20  O   LIG     1      29.687  25.854  18.869  1.00  0.00    -0.297 OA
ENDROOT
BRANCH   1  21
HETATM   21  O   LIG     1      23.198  21.309  23.195  1.00  0.00    -0.396 OA
HETATM   22  H   LIG     1      24.118  21.240  23.561  1.00  0.00     0.210 HD
ENDBRANCH   1  21
BRANCH  15  23
HETATM   23  O   LIG     1      28.166  21.039  18.436  1.00  0.00    -0.395 OA
HETATM   24  H   LIG     1      27.694  20.166  18.479  1.00  0.00     0.210 HD
ENDBRANCH  15  23
TORSDOF 2
ENDMDL
MODEL 6
REMARK VINA RESULT:      -4.7     12.390     14.602
REMARK  2 active torsions:
REMARK  status: ('A' for Active; 'I' for Inactive)
REMARK    1  A    between atoms: O_1  and  C_2 
REMARK    2  A    between atoms: C_16  and  O_17 
ROOT
HETATM    1  C   LIG     1      27.907  25.975  18.879  1.00  0.00     0.118 C 
HETATM    2  C   LIG     1      28.562  25.528  20.209  1.00  0.00     0.037 C 
HETATM    3  C   LIG     1      28.703  23.993  20.258  1.00  0.00    -0.004 C 
HETATM    4  C   LIG     1      29.649  23.520  21.377  1.00  0.00     0.006 C 
HETATM    5  C   LIG     1      29.022  23.654  22.757  1.00  0.00     0.006 C 
HETATM    6  C   LIG     1      27.719  22.840  22.857  1.00  0.00    -0.002 C 
HETATM    7  C   LIG     1      27.130  22.928  24.303  1.00  0.00     0.006 C 
HETATM    8  C   LIG     1      27.058  24.340  24.920  1.00  0.00     0.013 C 
HETATM    9  C   LIG     1      26.042  24.246  26.052  1.00  0.00     0.079 C 
HETATM   10  C   LIG     1      26.967  24.903  18.273  1.00  0.00     0.032 C 
HETATM   11  C   LIG     1      26.282  24.065  19.360  1.00  0.00     0.012 C 
HETATM   12  C   LIG     1      27.292  23.286  20.287  1.00  0.00    -0.034 C 
HETATM   13  C   LIG     1      27.476  21.855  19.711  1.00  0.00     0.016 C 
HETATM   14  C   LIG     1      26.703  23.266  21.765  1.00  0.00     0.027 C 
HETATM   15  C   LIG     1      25.392  22.441  21.910  1.00  0.00     0.124 C 
HETATM   16  C   LIG     1      24.764  22.684  23.289  1.00  0.00     0.049 C 
HETATM   17  C   LIG     1      25.708  22.336  24.475  1.00  0.00     0.023 C 
HETATM   18  C   LIG     1      25.762  20.819  24.759  1.00  0.00     0.024 C 
HETATM   19  C   LIG     1      25.215  23.069  25.685  1.00  0.00     0.135 C 
HETATM   20  O   LIG     1      24.203  22.758  26.297  1.00  0.00    -0.297 OA
ENDROOT
BRANCH   1  21
HETATM   21  O   LIG     1      27.235  27.199  19.046  1.00  0.00    -0.396 OA
HETATM   22  H   LIG     1      27.718  27.882  18.511  1.00  0.00     0.210 HD
ENDBRANCH   1  21
BRANCH  15  23
HETATM   23  O   LIG     1      25.630  21.068  21.736  1.00  0.00    -0.395 OA
HETATM   24  H   LIG     1      26.582  20.969  21.474  1.00  0.00     0.210 HD
ENDBRANCH  15  23
TORSDOF 2
ENDMDL
MODEL 7
REMARK VINA RESULT:      -4.7     13.437     15.896
REMARK  2 active torsions:
REMARK  status: ('A' for Active; 'I' for Inactive)
REMARK    1  A    between atoms: O_1  and  C_2 
REMARK    2  A    between atoms: C_16  and  O_17 
ROOT
HETATM    1  C   LIG     1      22.068  22.078  21.033  1.00  0.00     0.118 C 
HETATM    2  C   LIG     1      23.002  22.215  19.806  1.00  0.00     0.037 C 
HETATM    3  C   LIG     1      24.205  21.258  19.928  1.00  0.00    -0.004 C 
HETATM    4  C   LIG     1      24.969  21.094  18.600  1.00  0.00     0.006 C 
HETATM    5  C   LIG     1      25.794  22.325  18.254  1.00  0.00     0.006 C 
HETATM    6  C   LIG     1      26.819  22.636  19.360  1.00  0.00    -0.002 C 
HETATM    7  C   LIG     1      27.708  23.856  18.952  1.00  0.00     0.006 C 
HETATM    8  C   LIG     1      26.958  25.087  18.403  1.00  0.00     0.013 C 
HETATM    9  C   LIG     1      27.922  26.259  18.549  1.00  0.00     0.079 C 
HETATM   10  C   LIG     1      22.810  21.624  22.315  1.00  0.00     0.032 C 
HETATM   11  C   LIG     1      24.252  22.144  22.354  1.00  0.00     0.012 C 
HETATM   12  C   LIG     1      25.133  21.652  21.142  1.00  0.00    -0.034 C 
HETATM   13  C   LIG     1      25.893  20.370  21.582  1.00  0.00     0.016 C 
HETATM   14  C   LIG     1      26.125  22.827  20.735  1.00  0.00     0.027 C 
HETATM   15  C   LIG     1      27.187  23.162  21.821  1.00  0.00     0.124 C 
HETATM   16  C   LIG     1      27.925  24.457  21.458  1.00  0.00     0.049 C 
HETATM   17  C   LIG     1      28.628  24.407  20.072  1.00  0.00     0.023 C 
HETATM   18  C   LIG     1      29.971  23.646  20.120  1.00  0.00     0.024 C 
HETATM   19  C   LIG     1      28.852  25.818  19.619  1.00  0.00     0.135 C 
HETATM   20  O   LIG     1      29.694  26.557  20.106  1.00  0.00    -0.297 OA
ENDROOT
BRANCH   1  21
HETATM   21  O   LIG     1      21.364  23.275  21.255  1.00  0.00    -0.396 OA
HETATM   22  H   LIG     1      21.997  24.026  21.114  1.00  0.00     0.210 HD
ENDBRANCH   1  21
BRANCH  15  23
HETATM   23  O   LIG     1      28.113  22.118  21.971  1.00  0.00    -0.395 OA
HETATM   24  H   LIG     1      28.435  21.883  21.062  1.00  0.00     0.210 HD
ENDBRANCH  15  23
TORSDOF 2
ENDMDL
MODEL 8
REMARK VINA RESULT:      -4.7      7.833     10.309
REMARK  2 active torsions:
REMARK  status: ('A' for Active; 'I' for Inactive)
REMARK    1  A    between atoms: O_1  and  C_2 
REMARK    2  A    between atoms: C_16  and  O_17 
ROOT
HETATM    1  C   LIG     1      27.142  26.787  32.038  1.00  0.00     0.118 C 
HETATM    2  C   LIG     1      27.384  25.280  31.776  1.00  0.00     0.037 C 
HETATM    3  C   LIG     1      28.513  25.080  30.745  1.00  0.00    -0.004 C 
HETATM    4  C   LIG     1      29.031  23.631  30.707  1.00  0.00     0.006 C 
HETATM    5  C   LIG     1      28.048  22.685  30.033  1.00  0.00     0.006 C 
HETATM    6  C   LIG     1      27.754  23.125  28.587  1.00  0.00    -0.002 C 
HETATM    7  C   LIG     1      26.804  22.100  27.887  1.00  0.00     0.006 C 
HETATM    8  C   LIG     1      25.563  21.667  28.695  1.00  0.00     0.013 C 
HETATM    9  C   LIG     1      24.581  21.102  27.674  1.00  0.00     0.079 C 
HETATM   10  C   LIG     1      27.508  27.681  30.827  1.00  0.00     0.032 C 
HETATM   11  C   LIG     1      27.264  26.963  29.494  1.00  0.00     0.012 C 
HETATM   12  C   LIG     1      28.103  25.638  29.327  1.00  0.00    -0.034 C 
HETATM   13  C   LIG     1      29.413  25.985  28.566  1.00  0.00     0.016 C 
HETATM   14  C   LIG     1      27.215  24.579  28.540  1.00  0.00     0.027 C 
HETATM   15  C   LIG     1      26.908  24.982  27.069  1.00  0.00     0.124 C 
HETATM   16  C   LIG     1      25.849  24.045  26.474  1.00  0.00     0.049 C 
HETATM   17  C   LIG     1      26.256  22.544  26.507  1.00  0.00     0.023 C 
HETATM   18  C   LIG     1      27.233  22.174  25.370  1.00  0.00     0.024 C 
HETATM   19  C   LIG     1      25.005  21.726  26.396  1.00  0.00     0.135 C 
HETATM   20  O   LIG     1      24.363  21.610  25.362  1.00  0.00    -0.297 OA
ENDROOT
BRANCH   1  21
HETATM   21  O   LIG     1      25.816  27.010  32.448  1.00  0.00    -0.396 OA
HETATM   22  H   LIG     1      25.242  26.984  31.638  1.00  0.00     0.210 HD
ENDBRANCH   1  21
BRANCH  15  23
HETATM   23  O   LIG     1      28.066  24.948  26.277  1.00  0.00    -0.395 OA
HETATM   24  H   LIG     1      28.485  25.846  26.337  1.00  0.00     0.210 HD
ENDBRANCH  15  23
TORSDOF 2
ENDMDL
MODEL 9
REMARK VINA RESULT:      -4.7     15.542     17.573
REMARK  2 active torsions:
REMARK  status: ('A' for Active; 'I' for Inactive)
REMARK    1  A    between atoms: O_1  and  C_2 
REMARK    2  A    between atoms: C_16  and  O_17 
ROOT
HETATM    1  C   LIG     1      22.730  18.256  15.969  1.00  0.00     0.118 C 
HETATM    2  C   LIG     1      24.197  18.307  16.460  1.00  0.00     0.037 C 
HETATM    3  C   LIG     1      24.254  18.502  17.989  1.00  0.00    -0.004 C 
HETATM    4  C   LIG     1      25.649  18.212  18.573  1.00  0.00     0.006 C 
HETATM    5  C   LIG     1      26.649  19.312  18.247  1.00  0.00     0.006 C 
HETATM    6  C   LIG     1      26.178  20.672  18.791  1.00  0.00    -0.002 C 
HETATM    7  C   LIG     1      27.253  21.773  18.515  1.00  0.00     0.006 C 
HETATM    8  C   LIG     1      27.827  21.814  17.084  1.00  0.00     0.013 C 
HETATM    9  C   LIG     1      28.435  23.203  16.921  1.00  0.00     0.079 C 
HETATM   10  C   LIG     1      21.757  19.054  16.873  1.00  0.00     0.032 C 
HETATM   11  C   LIG     1      22.438  20.275  17.504  1.00  0.00     0.012 C 
HETATM   12  C   LIG     1      23.676  19.909  18.411  1.00  0.00    -0.034 C 
HETATM   13  C   LIG     1      23.184  19.788  19.880  1.00  0.00     0.016 C 
HETATM   14  C   LIG     1      24.776  21.044  18.239  1.00  0.00     0.027 C 
HETATM   15  C   LIG     1      24.342  22.433  18.789  1.00  0.00     0.124 C 
HETATM   16  C   LIG     1      25.344  23.511  18.356  1.00  0.00     0.049 C 
HETATM   17  C   LIG     1      26.803  23.226  18.814  1.00  0.00     0.023 C 
HETATM   18  C   LIG     1      27.038  23.592  20.295  1.00  0.00     0.024 C 
HETATM   19  C   LIG     1      27.723  24.019  17.936  1.00  0.00     0.135 C 
HETATM   20  O   LIG     1      27.853  25.232  18.015  1.00  0.00    -0.297 OA
ENDROOT
BRANCH   1  21
HETATM   21  O   LIG     1      22.642  18.683  14.632  1.00  0.00    -0.396 OA
HETATM   22  H   LIG     1      23.179  18.056  14.080  1.00  0.00     0.210 HD
ENDBRANCH   1  21
BRANCH  15  23
HETATM   23  O   LIG     1      24.240  22.419  20.190  1.00  0.00    -0.395 OA
HETATM   24  H   LIG     1      24.744  21.626  20.509  1.00  0.00     0.210 HD
ENDBRANCH  15  23
TORSDOF 2
ENDMDL
MODEL 10
REMARK VINA RESULT:      -4.7     12.057     15.760
REMARK  2 active torsions:
REMARK  status: ('A' for Active; 'I' for Inactive)
REMARK    1  A    between atoms: O_1  and  C_2 
REMARK    2  A    between atoms: C_16  and  O_17 
ROOT
HETATM    1  C   LIG     1      26.023  22.203  24.060  1.00  0.00     0.118 C 
HETATM    2  C   LIG     1      25.328  22.690  22.765  1.00  0.00     0.037 C 
HETATM    3  C   LIG     1      23.871  22.189  22.706  1.00  0.00    -0.004 C 
HETATM    4  C   LIG     1      23.036  22.918  21.637  1.00  0.00     0.006 C 
HETATM    5  C   LIG     1      23.398  22.482  20.225  1.00  0.00     0.006 C 
HETATM    6  C   LIG     1      23.192  20.967  20.041  1.00  0.00    -0.002 C 
HETATM    7  C   LIG     1      23.496  20.551  18.565  1.00  0.00     0.006 C 
HETATM    8  C   LIG     1      24.804  21.102  17.961  1.00  0.00     0.013 C 
HETATM    9  C   LIG     1      25.122  20.203  16.772  1.00  0.00     0.079 C 
HETATM   10  C   LIG     1      25.441  20.872  24.598  1.00  0.00     0.032 C 
HETATM   11  C   LIG     1      24.946  19.966  23.464  1.00  0.00     0.012 C 
HETATM   12  C   LIG     1      23.808  20.617  22.587  1.00  0.00    -0.034 C 
HETATM   13  C   LIG     1      22.436  20.162  23.157  1.00  0.00     0.016 C 
HETATM   14  C   LIG     1      24.012  20.156  21.079  1.00  0.00     0.027 C 
HETATM   15  C   LIG     1      23.799  18.633  20.849  1.00  0.00     0.124 C 
HETATM   16  C   LIG     1      24.262  18.240  19.439  1.00  0.00     0.049 C 
HETATM   17  C   LIG     1      23.540  19.023  18.305  1.00  0.00     0.023 C 
HETATM   18  C   LIG     1      22.132  18.463  18.007  1.00  0.00     0.024 C 
HETATM   19  C   LIG     1      24.396  18.945  17.077  1.00  0.00     0.135 C 
HETATM   20  O   LIG     1      24.521  17.933  16.405  1.00  0.00    -0.297 OA
ENDROOT
BRANCH   1  21
HETATM   21  O   LIG     1      27.413  22.106  23.869  1.00  0.00    -0.396 OA
HETATM   22  H   LIG     1      27.847  22.232  24.752  1.00  0.00     0.210 HD
ENDBRANCH   1  21
BRANCH  15  23
HETATM   23  O   LIG     1      22.453  18.274  21.020  1.00  0.00    -0.395 OA
HETATM   24  H   LIG     1      22.107  18.800  21.787  1.00  0.00     0.210 HD
ENDBRANCH  15  23
TORSDOF 2
ENDMDL
MODEL 11
REMARK VINA RESULT:      -4.6     14.065     16.942
REMARK  2 active torsions:
REMARK  status: ('A' for Active; 'I' for Inactive)
REMARK    1  A    between atoms: O_1  and  C_2 
REMARK    2  A    between atoms: C_16  and  O_17 
ROOT
HETATM    1  C   LIG     1      30.285  24.018  17.949  1.00  0.00     0.118 C 
HETATM    2  C   LIG     1      28.791  24.344  17.704  1.00  0.00     0.037 C 
HETATM    3  C   LIG     1      28.174  25.034  18.937  1.00  0.00    -0.004 C 
HETATM    4  C   LIG     1      26.814  25.689  18.631  1.00  0.00     0.006 C 
HETATM    5  C   LIG     1      25.704  24.662  18.467  1.00  0.00     0.006 C 
HETATM    6  C   LIG     1      25.547  23.805  19.737  1.00  0.00    -0.002 C 
HETATM    7  C   LIG     1      24.353  22.808  19.578  1.00  0.00     0.006 C 
HETATM    8  C   LIG     1      24.302  22.017  18.254  1.00  0.00     0.013 C 
HETATM    9  C   LIG     1      23.406  20.814  18.525  1.00  0.00     0.079 C 
HETATM   10  C   LIG     1      30.621  23.795  19.445  1.00  0.00     0.032 C 
HETATM   11  C   LIG     1      29.443  23.178  20.208  1.00  0.00     0.012 C 
HETATM   12  C   LIG     1      28.139  24.065  20.181  1.00  0.00    -0.034 C 
HETATM   13  C   LIG     1      28.126  24.948  21.460  1.00  0.00     0.016 C 
HETATM   14  C   LIG     1      26.877  23.099  20.108  1.00  0.00     0.027 C 
HETATM   15  C   LIG     1      26.677  22.225  21.379  1.00  0.00     0.124 C 
HETATM   16  C   LIG     1      25.606  21.155  21.123  1.00  0.00     0.049 C 
HETATM   17  C   LIG     1      24.230  21.740  20.695  1.00  0.00     0.023 C 
HETATM   18  C   LIG     1      23.419  22.274  21.895  1.00  0.00     0.024 C 
HETATM   19  C   LIG     1      23.466  20.655  19.999  1.00  0.00     0.135 C 
HETATM   20  O   LIG     1      22.968  19.701  20.580  1.00  0.00    -0.297 OA
ENDROOT
BRANCH   1  21
HETATM   21  O   LIG     1      30.684  22.916  17.172  1.00  0.00    -0.396 OA
HETATM   22  H   LIG     1      31.676  22.875  17.197  1.00  0.00     0.210 HD
ENDBRANCH   1  21
BRANCH  15  23
HETATM   23  O   LIG     1      26.305  23.007  22.484  1.00  0.00    -0.395 OA
HETATM   24  H   LIG     1      25.599  23.632  22.173  1.00  0.00     0.210 HD
ENDBRANCH  15  23
TORSDOF 2
ENDMDL
MODEL 12
REMARK VINA RESULT:      -4.5      1.633      6.224
REMARK  2 active torsions:
REMARK  status: ('A' for Active; 'I' for Inactive)
REMARK    1  A    between atoms: O_1  and  C_2 
REMARK    2  A    between atoms: C_16  and  O_17 
ROOT
HETATM    1  C   LIG     1      23.958  23.549  35.818  1.00  0.00     0.118 C 
HETATM    2  C   LIG     1      22.452  23.521  35.463  1.00  0.00     0.037 C 
HETATM    3  C   LIG     1      21.804  22.205  35.940  1.00  0.00    -0.004 C 
HETATM    4  C   LIG     1      20.265  22.265  35.933  1.00  0.00     0.006 C 
HETATM    5  C   LIG     1      19.693  22.209  34.524  1.00  0.00     0.006 C 
HETATM    6  C   LIG     1      20.124  20.921  33.799  1.00  0.00    -0.002 C 
HETATM    7  C   LIG     1      19.464  20.844  32.384  1.00  0.00     0.006 C 
HETATM    8  C   LIG     1      19.548  22.125  31.528  1.00  0.00     0.013 C 
HETATM    9  C   LIG     1      19.310  21.678  30.090  1.00  0.00     0.079 C 
HETATM   10  C   LIG     1      24.592  22.138  35.894  1.00  0.00     0.032 C 
HETATM   11  C   LIG     1      23.932  21.163  34.911  1.00  0.00     0.012 C 
HETATM   12  C   LIG     1      22.388  20.962  35.162  1.00  0.00    -0.034 C 
HETATM   13  C   LIG     1      22.201  19.715  36.071  1.00  0.00     0.016 C 
HETATM   14  C   LIG     1      21.669  20.790  33.754  1.00  0.00     0.027 C 
HETATM   15  C   LIG     1      22.069  19.492  32.996  1.00  0.00     0.124 C 
HETATM   16  C   LIG     1      21.535  19.533  31.557  1.00  0.00     0.049 C 
HETATM   17  C   LIG     1      19.992  19.709  31.470  1.00  0.00     0.023 C 
HETATM   18  C   LIG     1      19.234  18.388  31.720  1.00  0.00     0.024 C 
HETATM   19  C   LIG     1      19.668  20.238  30.105  1.00  0.00     0.135 C 
HETATM   20  O   LIG     1      19.727  19.563  29.088  1.00  0.00    -0.297 OA
ENDROOT
BRANCH   1  21
HETATM   21  O   LIG     1      24.662  24.371  34.920  1.00  0.00    -0.396 OA
HETATM   22  H   LIG     1      24.068  24.545  34.144  1.00  0.00     0.210 HD
ENDBRANCH   1  21
BRANCH  15  23
HETATM   23  O   LIG     1      21.579  18.348  33.647  1.00  0.00    -0.395 OA
HETATM   24  H   LIG     1      22.052  18.285  34.518  1.00  0.00     0.210 HD
ENDBRANCH  15  23
TORSDOF 2
ENDMDL
MODEL 13
REMARK VINA RESULT:      -4.5      1.773      6.101
REMARK  2 active torsions:
REMARK  status: ('A' for Active; 'I' for Inactive)
REMARK    1  A    between atoms: O_1  and  C_2 
REMARK    2  A    between atoms: C_16  and  O_17 
ROOT
HETATM    1  C   LIG     1      26.874  22.963  36.850  1.00  0.00     0.118 C 
HETATM    2  C   LIG     1      25.442  23.547  36.928  1.00  0.00     0.037 C 
HETATM    3  C   LIG     1      24.512  22.608  37.722  1.00  0.00    -0.004 C 
HETATM    4  C   LIG     1      23.191  23.286  38.129  1.00  0.00     0.006 C 
HETATM    5  C   LIG     1      22.247  23.465  36.950  1.00  0.00     0.006 C 
HETATM    6  C   LIG     1      21.908  22.112  36.299  1.00  0.00    -0.002 C 
HETATM    7  C   LIG     1      20.878  22.307  35.138  1.00  0.00     0.006 C 
HETATM    8  C   LIG     1      21.189  23.443  34.142  1.00  0.00     0.013 C 
HETATM    9  C   LIG     1      20.377  23.129  32.890  1.00  0.00     0.079 C 
HETATM   10  C   LIG     1      26.904  21.416  36.922  1.00  0.00     0.032 C 
HETATM   11  C   LIG     1      25.656  20.791  36.286  1.00  0.00     0.012 C 
HETATM   12  C   LIG     1      24.308  21.234  36.973  1.00  0.00    -0.034 C 
HETATM   13  C   LIG     1      23.936  20.171  38.044  1.00  0.00     0.016 C 
HETATM   14  C   LIG     1      23.191  21.366  35.848  1.00  0.00     0.027 C 
HETATM   15  C   LIG     1      22.811  20.016  35.175  1.00  0.00     0.124 C 
HETATM   16  C   LIG     1      21.929  20.268  33.944  1.00  0.00     0.049 C 
HETATM   17  C   LIG     1      20.626  21.055  34.261  1.00  0.00     0.023 C 
HETATM   18  C   LIG     1      19.529  20.154  34.871  1.00  0.00     0.024 C 
HETATM   19  C   LIG     1      20.137  21.668  32.984  1.00  0.00     0.135 C 
HETATM   20  O   LIG     1      19.622  21.025  32.080  1.00  0.00    -0.297 OA
ENDROOT
BRANCH   1  21
HETATM   21  O   LIG     1      27.535  23.428  35.700  1.00  0.00    -0.396 OA
HETATM   22  H   LIG     1      27.482  22.713  35.013  1.00  0.00     0.210 HD
ENDBRANCH   1  21
BRANCH  15  23
HETATM   23  O   LIG     1      22.138  19.170  36.070  1.00  0.00    -0.395 OA
HETATM   24  H   LIG     1      21.304  18.874  35.619  1.00  0.00     0.210 HD
ENDBRANCH  15  23
TORSDOF 2
ENDMDL
MODEL 14
REMARK VINA RESULT:      -4.5     13.764     15.530
REMARK  2 active torsions:
REMARK  status: ('A' for Active; 'I' for Inactive)
REMARK    1  A    between atoms: O_1  and  C_2 
REMARK    2  A    between atoms: C_16  and  O_17 
ROOT
HETATM    1  C   LIG     1      23.280  19.113  18.862  1.00  0.00     0.118 C 
HETATM    2  C   LIG     1      23.313  20.061  20.085  1.00  0.00     0.037 C 
HETATM    3  C   LIG     1      23.157  21.530  19.641  1.00  0.00    -0.004 C 
HETATM    4  C   LIG     1      22.833  22.473  20.814  1.00  0.00     0.006 C 
HETATM    5  C   LIG     1      24.040  22.718  21.708  1.00  0.00     0.006 C 
HETATM    6  C   LIG     1      25.207  23.330  20.911  1.00  0.00    -0.002 C 
HETATM    7  C   LIG     1      26.409  23.644  21.860  1.00  0.00     0.006 C 
HETATM    8  C   LIG     1      26.814  22.520  22.836  1.00  0.00     0.013 C 
HETATM    9  C   LIG     1      28.239  22.841  23.270  1.00  0.00     0.079 C 
HETATM   10  C   LIG     1      23.786  19.782  17.559  1.00  0.00     0.032 C 
HETATM   11  C   LIG     1      24.872  20.829  17.841  1.00  0.00     0.012 C 
HETATM   12  C   LIG     1      24.389  22.003  18.776  1.00  0.00    -0.034 C 
HETATM   13  C   LIG     1      23.905  23.174  17.877  1.00  0.00     0.016 C 
HETATM   14  C   LIG     1      25.604  22.429  19.711  1.00  0.00     0.027 C 
HETATM   15  C   LIG     1      26.798  23.065  18.944  1.00  0.00     0.124 C 
HETATM   16  C   LIG     1      28.010  23.207  19.875  1.00  0.00     0.049 C 
HETATM   17  C   LIG     1      27.723  24.055  21.147  1.00  0.00     0.023 C 
HETATM   18  C   LIG     1      27.756  25.573  20.862  1.00  0.00     0.024 C 
HETATM   19  C   LIG     1      28.754  23.703  22.176  1.00  0.00     0.135 C 
HETATM   20  O   LIG     1      29.922  24.055  22.110  1.00  0.00    -0.297 OA
ENDROOT
BRANCH   1  21
HETATM   21  O   LIG     1      23.995  17.933  19.133  1.00  0.00    -0.396 OA
HETATM   22  H   LIG     1      24.961  18.160  19.136  1.00  0.00     0.210 HD
ENDBRANCH   1  21
BRANCH  15  23
HETATM   23  O   LIG     1      26.458  24.322  18.419  1.00  0.00    -0.395 OA
HETATM   24  H   LIG     1      25.515  24.499  18.676  1.00  0.00     0.210 HD
ENDBRANCH  15  23
TORSDOF 2
ENDMDL
MODEL 15
REMARK VINA RESULT:      -4.5     15.154     17.176
REMARK  2 active torsions:
REMARK  status: ('A' for Active; 'I' for Inactive)
REMARK    1  A    between atoms: O_1  and  C_2 
REMARK    2  A    between atoms: C_16  and  O_17 
ROOT
HETATM    1  C   LIG     1      23.622  19.522  18.064  1.00  0.00     0.118 C 
HETATM    2  C   LIG     1      25.032  19.585  18.699  1.00  0.00     0.037 C 
HETATM    3  C   LIG     1      25.047  20.554  19.898  1.00  0.00    -0.004 C 
HETATM    4  C   LIG     1      26.304  20.396  20.774  1.00  0.00     0.006 C 
HETATM    5  C   LIG     1      27.546  20.968  20.107  1.00  0.00     0.006 C 
HETATM    6  C   LIG     1      27.370  22.465  19.792  1.00  0.00    -0.002 C 
HETATM    7  C   LIG     1      28.682  23.052  19.179  1.00  0.00     0.006 C 
HETATM    8  C   LIG     1      29.329  22.226  18.048  1.00  0.00     0.013 C 
HETATM    9  C   LIG     1      30.247  23.190  17.304  1.00  0.00     0.079 C 
HETATM   10  C   LIG     1      22.810  20.827  18.255  1.00  0.00     0.032 C 
HETATM   11  C   LIG     1      23.716  22.065  18.280  1.00  0.00     0.012 C 
HETATM   12  C   LIG     1      24.785  22.041  19.439  1.00  0.00    -0.034 C 
HETATM   13  C   LIG     1      24.197  22.808  20.657  1.00  0.00     0.016 C 
HETATM   14  C   LIG     1      26.124  22.709  18.901  1.00  0.00     0.027 C 
HETATM   15  C   LIG     1      25.989  24.226  18.584  1.00  0.00     0.124 C 
HETATM   16  C   LIG     1      27.235  24.724  17.837  1.00  0.00     0.049 C 
HETATM   17  C   LIG     1      28.562  24.490  18.614  1.00  0.00     0.023 C 
HETATM   18  C   LIG     1      28.792  25.547  19.717  1.00  0.00     0.024 C 
HETATM   19  C   LIG     1      29.686  24.527  17.624  1.00  0.00     0.135 C 
HETATM   20  O   LIG     1      30.086  25.553  17.094  1.00  0.00    -0.297 OA
ENDROOT
BRANCH   1  21
HETATM   21  O   LIG     1      23.708  19.176  16.703  1.00  0.00    -0.396 OA
HETATM   22  H   LIG     1      23.831  20.015  16.187  1.00  0.00     0.210 HD
ENDBRANCH   1  21
BRANCH  15  23
HETATM   23  O   LIG     1      25.810  24.980  19.754  1.00  0.00    -0.395 OA
HETATM   24  H   LIG     1      25.910  25.935  19.503  1.00  0.00     0.210 HD
ENDBRANCH  15  23
TORSDOF 2
ENDMDL
MODEL 16
REMARK VINA RESULT:      -4.3     11.307     14.378
REMARK  2 active torsions:
REMARK  status: ('A' for Active; 'I' for Inactive)
REMARK    1  A    between atoms: O_1  and  C_2 
REMARK    2  A    between atoms: C_16  and  O_17 
ROOT
HETATM    1  C   LIG     1      28.571  25.333  24.599  1.00  0.00     0.118 C 
HETATM    2  C   LIG     1      27.176  24.726  24.886  1.00  0.00     0.037 C 
HETATM    3  C   LIG     1      27.262  23.191  24.997  1.00  0.00    -0.004 C 
HETATM    4  C   LIG     1      25.998  22.569  25.620  1.00  0.00     0.006 C 
HETATM    5  C   LIG     1      24.818  22.581  24.660  1.00  0.00     0.006 C 
HETATM    6  C   LIG     1      25.143  21.808  23.369  1.00  0.00    -0.002 C 
HETATM    7  C   LIG     1      23.894  21.766  22.430  1.00  0.00     0.006 C 
HETATM    8  C   LIG     1      23.163  23.107  22.213  1.00  0.00     0.013 C 
HETATM    9  C   LIG     1      22.345  22.932  20.939  1.00  0.00     0.079 C 
HETATM   10  C   LIG     1      29.511  24.366  23.837  1.00  0.00     0.032 C 
HETATM   11  C   LIG     1      28.733  23.444  22.889  1.00  0.00     0.012 C 
HETATM   12  C   LIG     1      27.671  22.537  23.621  1.00  0.00    -0.034 C 
HETATM   13  C   LIG     1      28.336  21.168  23.935  1.00  0.00     0.016 C 
HETATM   14  C   LIG     1      26.404  22.383  22.671  1.00  0.00     0.027 C 
HETATM   15  C   LIG     1      26.689  21.595  21.361  1.00  0.00     0.124 C 
HETATM   16  C   LIG     1      25.497  21.716  20.401  1.00  0.00     0.049 C 
HETATM   17  C   LIG     1      24.156  21.212  21.006  1.00  0.00     0.023 C 
HETATM   18  C   LIG     1      24.037  19.672  20.972  1.00  0.00     0.024 C 
HETATM   19  C   LIG     1      23.038  21.832  20.224  1.00  0.00     0.135 C 
HETATM   20  O   LIG     1      22.742  21.495  19.087  1.00  0.00    -0.297 OA
ENDROOT
BRANCH   1  21
HETATM   21  O   LIG     1      28.446  26.557  23.917  1.00  0.00    -0.396 OA
HETATM   22  H   LIG     1      29.299  26.722  23.436  1.00  0.00     0.210 HD
ENDBRANCH   1  21
BRANCH  15  23
HETATM   23  O   LIG     1      26.947  20.240  21.623  1.00  0.00    -0.395 OA
HETATM   24  H   LIG     1      26.349  19.712  21.033  1.00  0.00     0.210 HD
ENDBRANCH  15  23
TORSDOF 2
ENDMDL
MODEL 17
REMARK VINA RESULT:      -4.3      2.514      6.147
REMARK  2 active torsions:
REMARK  status: ('A' for Active; 'I' for Inactive)
REMARK    1  A    between atoms: O_1  and  C_2 
REMARK    2  A    between atoms: C_16  and  O_17 
ROOT
HETATM    1  C   LIG     1      27.767  23.903  34.866  1.00  0.00     0.118 C 
HETATM    2  C   LIG     1      26.695  24.156  35.954  1.00  0.00     0.037 C 
HETATM    3  C   LIG     1      26.507  22.904  36.835  1.00  0.00    -0.004 C 
HETATM    4  C   LIG     1      25.728  23.201  38.129  1.00  0.00     0.006 C 
HETATM    5  C   LIG     1      24.245  23.422  37.871  1.00  0.00     0.006 C 
HETATM    6  C   LIG     1      23.607  22.192  37.202  1.00  0.00    -0.002 C 
HETATM    7  C   LIG     1      22.070  22.408  37.014  1.00  0.00     0.006 C 
HETATM    8  C   LIG     1      21.645  23.763  36.412  1.00  0.00     0.013 C 
HETATM    9  C   LIG     1      20.232  23.555  35.879  1.00  0.00     0.079 C 
HETATM   10  C   LIG     1      27.879  22.413  34.456  1.00  0.00     0.032 C 
HETATM   11  C   LIG     1      26.528  21.692  34.554  1.00  0.00     0.012 C 
HETATM   12  C   LIG     1      25.912  21.701  36.006  1.00  0.00    -0.034 C 
HETATM   13  C   LIG     1      26.335  20.388  36.721  1.00  0.00     0.016 C 
HETATM   14  C   LIG     1      24.332  21.831  35.878  1.00  0.00     0.027 C 
HETATM   15  C   LIG     1      23.648  20.600  35.218  1.00  0.00     0.124 C 
HETATM   16  C   LIG     1      22.179  20.915  34.905  1.00  0.00     0.049 C 
HETATM   17  C   LIG     1      21.352  21.337  36.153  1.00  0.00     0.023 C 
HETATM   18  C   LIG     1      20.918  20.127  37.009  1.00  0.00     0.024 C 
HETATM   19  C   LIG     1      20.147  22.087  35.673  1.00  0.00     0.135 C 
HETATM   20  O   LIG     1      19.193  21.553  35.125  1.00  0.00    -0.297 OA
ENDROOT
BRANCH   1  21
HETATM   21  O   LIG     1      27.533  24.719  33.744  1.00  0.00    -0.396 OA
HETATM   22  H   LIG     1      28.192  24.465  33.046  1.00  0.00     0.210 HD
ENDBRANCH   1  21
BRANCH  15  23
HETATM   23  O   LIG     1      23.721  19.469  36.047  1.00  0.00    -0.395 OA
HETATM   24  H   LIG     1      24.683  19.245  36.149  1.00  0.00     0.210 HD
ENDBRANCH  15  23
TORSDOF 2
ENDMDL
MODEL 18
REMARK VINA RESULT:      -4.3      7.415      9.817
REMARK  2 active torsions:
REMARK  status: ('A' for Active; 'I' for Inactive)
REMARK    1  A    between atoms: O_1  and  C_2 
REMARK    2  A    between atoms: C_16  and  O_17 
ROOT
HETATM    1  C   LIG     1      26.701  25.646  34.520  1.00  0.00     0.118 C 
HETATM    2  C   LIG     1      27.596  24.686  33.699  1.00  0.00     0.037 C 
HETATM    3  C   LIG     1      28.642  25.475  32.887  1.00  0.00    -0.004 C 
HETATM    4  C   LIG     1      29.766  24.578  32.337  1.00  0.00     0.006 C 
HETATM    5  C   LIG     1      29.298  23.716  31.174  1.00  0.00     0.006 C 
HETATM    6  C   LIG     1      28.769  24.583  30.016  1.00  0.00    -0.002 C 
HETATM    7  C   LIG     1      28.365  23.685  28.803  1.00  0.00     0.006 C 
HETATM    8  C   LIG     1      27.500  22.450  29.132  1.00  0.00     0.013 C 
HETATM    9  C   LIG     1      26.842  22.043  27.819  1.00  0.00     0.079 C 
HETATM   10  C   LIG     1      26.559  27.047  33.875  1.00  0.00     0.032 C 
HETATM   11  C   LIG     1      26.612  26.977  32.343  1.00  0.00     0.012 C 
HETATM   12  C   LIG     1      27.957  26.372  31.785  1.00  0.00    -0.034 C 
HETATM   13  C   LIG     1      28.925  27.547  31.472  1.00  0.00     0.016 C 
HETATM   14  C   LIG     1      27.621  25.513  30.489  1.00  0.00     0.027 C 
HETATM   15  C   LIG     1      27.095  26.356  29.292  1.00  0.00     0.124 C 
HETATM   16  C   LIG     1      26.559  25.432  28.189  1.00  0.00     0.049 C 
HETATM   17  C   LIG     1      27.612  24.415  27.662  1.00  0.00     0.023 C 
HETATM   18  C   LIG     1      28.597  25.054  26.658  1.00  0.00     0.024 C 
HETATM   19  C   LIG     1      26.872  23.287  27.009  1.00  0.00     0.135 C 
HETATM   20  O   LIG     1      26.310  23.383  25.929  1.00  0.00    -0.297 OA
ENDROOT
BRANCH   1  21
HETATM   21  O   LIG     1      25.441  25.068  34.754  1.00  0.00    -0.396 OA
HETATM   22  H   LIG     1      24.756  25.676  34.371  1.00  0.00     0.210 HD
ENDBRANCH   1  21
BRANCH  15  23
HETATM   23  O   LIG     1      28.102  27.182  28.766  1.00  0.00    -0.395 OA
HETATM   24  H   LIG     1      27.704  28.083  28.646  1.00  0.00     0.210 HD
ENDBRANCH  15  23
TORSDOF 2
ENDMDL
MODEL 19
REMARK VINA RESULT:      -4.3      9.769     11.778
REMARK  2 active torsions:
REMARK  status: ('A' for Active; 'I' for Inactive)
REMARK    1  A    between atoms: O_1  and  C_2 
REMARK    2  A    between atoms: C_16  and  O_17 
ROOT
HETATM    1  C   LIG     1      22.979  22.430  21.072  1.00  0.00     0.118 C 
HETATM    2  C   LIG     1      24.312  23.099  21.486  1.00  0.00     0.037 C 
HETATM    3  C   LIG     1      25.399  22.036  21.742  1.00  0.00    -0.004 C 
HETATM    4  C   LIG     1      26.814  22.639  21.812  1.00  0.00     0.006 C 
HETATM    5  C   LIG     1      27.051  23.406  23.105  1.00  0.00     0.006 C 
HETATM    6  C   LIG     1      26.858  22.498  24.333  1.00  0.00    -0.002 C 
HETATM    7  C   LIG     1      27.180  23.282  25.647  1.00  0.00     0.006 C 
HETATM    8  C   LIG     1      26.545  24.682  25.773  1.00  0.00     0.013 C 
HETATM    9  C   LIG     1      26.576  25.018  27.259  1.00  0.00     0.079 C 
HETATM   10  C   LIG     1      22.809  21.002  21.648  1.00  0.00     0.032 C 
HETATM   11  C   LIG     1      23.487  20.856  23.017  1.00  0.00     0.012 C 
HETATM   12  C   LIG     1      25.039  21.134  22.986  1.00  0.00    -0.034 C 
HETATM   13  C   LIG     1      25.772  19.776  22.803  1.00  0.00     0.016 C 
HETATM   14  C   LIG     1      25.446  21.856  24.343  1.00  0.00     0.027 C 
HETATM   15  C   LIG     1      25.278  20.966  25.607  1.00  0.00     0.124 C 
HETATM   16  C   LIG     1      25.443  21.812  26.877  1.00  0.00     0.049 C 
HETATM   17  C   LIG     1      26.811  22.548  26.961  1.00  0.00     0.023 C 
HETATM   18  C   LIG     1      27.953  21.617  27.424  1.00  0.00     0.024 C 
HETATM   19  C   LIG     1      26.659  23.691  27.918  1.00  0.00     0.135 C 
HETATM   20  O   LIG     1      26.572  23.550  29.129  1.00  0.00    -0.297 OA
ENDROOT
BRANCH   1  21
HETATM   21  O   LIG     1      21.888  23.247  21.419  1.00  0.00    -0.396 OA
HETATM   22  H   LIG     1      21.770  23.915  20.694  1.00  0.00     0.210 HD
ENDBRANCH   1  21
BRANCH  15  23
HETATM   23  O   LIG     1      26.206  19.913  25.619  1.00  0.00    -0.395 OA
HETATM   24  H   LIG     1      27.059  20.274  25.260  1.00  0.00     0.210 HD
ENDBRANCH  15  23
TORSDOF 2
ENDMDL
MODEL 20
REMARK VINA RESULT:      -4.3     12.419     15.226
REMARK  2 active torsions:
REMARK  status: ('A' for Active; 'I' for Inactive)
REMARK    1  A    between atoms: O_1  and  C_2 
REMARK    2  A    between atoms: C_16  and  O_17 
ROOT
HETATM    1  C   LIG     1      25.438  22.667  25.756  1.00  0.00     0.118 C 
HETATM    2  C   LIG     1      24.685  23.071  24.465  1.00  0.00     0.037 C 
HETATM    3  C   LIG     1      24.566  21.871  23.505  1.00  0.00    -0.004 C 
HETATM    4  C   LIG     1      23.540  22.109  22.381  1.00  0.00     0.006 C 
HETATM    5  C   LIG     1      24.050  23.086  21.332  1.00  0.00     0.006 C 
HETATM    6  C   LIG     1      25.354  22.580  20.688  1.00  0.00    -0.002 C 
HETATM    7  C   LIG     1      25.821  23.558  19.562  1.00  0.00     0.006 C 
HETATM    8  C   LIG     1      25.818  25.058  19.922  1.00  0.00     0.013 C 
HETATM    9  C   LIG     1      26.741  25.729  18.911  1.00  0.00     0.079 C 
HETATM   10  C   LIG     1      26.443  21.508  25.537  1.00  0.00     0.032 C 
HETATM   11  C   LIG     1      27.051  21.540  24.128  1.00  0.00     0.012 C 
HETATM   12  C   LIG     1      25.981  21.415  22.976  1.00  0.00    -0.034 C 
HETATM   13  C   LIG     1      25.869  19.917  22.578  1.00  0.00     0.016 C 
HETATM   14  C   LIG     1      26.448  22.325  21.758  1.00  0.00     0.027 C 
HETATM   15  C   LIG     1      27.757  21.838  21.072  1.00  0.00     0.124 C 
HETATM   16  C   LIG     1      28.266  22.902  20.090  1.00  0.00     0.049 C 
HETATM   17  C   LIG     1      27.234  23.280  18.989  1.00  0.00     0.023 C 
HETATM   18  C   LIG     1      27.184  22.241  17.848  1.00  0.00     0.024 C 
HETATM   19  C   LIG     1      27.615  24.624  18.445  1.00  0.00     0.135 C 
HETATM   20  O   LIG     1      28.578  24.808  17.715  1.00  0.00    -0.297 OA
ENDROOT
BRANCH   1  21
HETATM   21  O   LIG     1      26.073  23.784  26.327  1.00  0.00    -0.396 OA
HETATM   22  H   LIG     1      25.890  24.565  25.742  1.00  0.00     0.210 HD
ENDBRANCH   1  21
BRANCH  15  23
HETATM   23  O   LIG     1      27.558  20.627  20.392  1.00  0.00    -0.395 OA
HETATM   24  H   LIG     1      28.325  20.038  20.618  1.00  0.00     0.210 HD
ENDBRANCH  15  23
TORSDOF 2
ENDMDL
