REMARK  2 active torsions:
REMARK  status: ('A' for Active; 'I' for Inactive)
REMARK    1  A    between atoms: O_1  and  C_2 
REMARK    2  A    between atoms: C_16  and  O_17 
ROOT
HETATM    1  C   LIG     1       3.716  -1.742   0.331  1.00  0.00     0.118 C 
HETATM    2  C   LIG     1       2.304  -2.159  -0.147  1.00  0.00     0.037 C 
HETATM    3  C   LIG     1       1.804  -1.215  -1.259  1.00  0.00    -0.004 C 
HETATM    4  C   LIG     1       0.581  -1.776  -2.008  1.00  0.00     0.006 C 
HETATM    5  C   LIG     1      -0.689  -1.704  -1.173  1.00  0.00     0.006 C 
HETATM    6  C   LIG     1      -1.004  -0.254  -0.763  1.00  0.00    -0.002 C 
HETATM    7  C   LIG     1      -2.351  -0.191   0.028  1.00  0.00     0.006 C 
HETATM    8  C   LIG     1      -2.525  -1.232   1.153  1.00  0.00     0.013 C 
HETATM    9  C   LIG     1      -3.619  -0.682   2.061  1.00  0.00     0.079 C 
HETATM   10  C   LIG     1       3.995  -0.228   0.158  1.00  0.00     0.032 C 
HETATM   11  C   LIG     1       2.720   0.609   0.324  1.00  0.00     0.012 C 
HETATM   12  C   LIG     1       1.590   0.251  -0.716  1.00  0.00    -0.034 C 
HETATM   13  C   LIG     1       1.718   1.219  -1.925  1.00  0.00     0.016 C 
HETATM   14  C   LIG     1       0.181   0.383   0.010  1.00  0.00     0.027 C 
HETATM   15  C   LIG     1      -0.180   1.837   0.428  1.00  0.00     0.124 C 
HETATM   16  C   LIG     1      -1.417   1.835   1.337  1.00  0.00     0.049 C 
HETATM   17  C   LIG     1      -2.667   1.176   0.687  1.00  0.00     0.023 C 
HETATM   18  C   LIG     1      -3.385   2.122  -0.300  1.00  0.00     0.024 C 
HETATM   19  C   LIG     1      -3.601   0.777   1.789  1.00  0.00     0.135 C 
HETATM   20  O   LIG     1      -4.262   1.576   2.436  1.00  0.00    -0.297 OA
ENDROOT
BRANCH   1  21
HETATM   21  O   LIG     1       3.926  -2.145   1.662  1.00  0.00    -0.396 OA
HETATM   22  H   LIG     1       3.304  -1.625   2.235  1.00  0.00     0.210 HD
ENDBRANCH   1  21
BRANCH  15  23
HETATM   23  O   LIG     1      -0.421   2.647  -0.693  1.00  0.00    -0.395 OA
HETATM   24  H   LIG     1      -0.365   3.590  -0.387  1.00  0.00     0.210 HD
ENDBRANCH  15  23
TORSDOF 2
