REMARK  5 active torsions:
REMARK  status: ('A' for Active; 'I' for Inactive)
REMARK       I    between atoms: N_2  and  C_3 
REMARK       I    between atoms: C_3  and  N_4 
REMARK    1  A    between atoms: N_4  and  C_5 
REMARK    2  A    between atoms: C_5  and  C_6 
REMARK    3  A    between atoms: C_6  and  S_7 
REMARK    4  A    between atoms: S_7  and  C_8 
REMARK    5  A    between atoms: C_8  and  C_9 
ROOT
HETATM    1  C   LIG     1      -5.289   1.439  -0.378  1.00  0.00     0.165 C 
HETATM    2  N   LIG     1      -5.264  -0.020  -0.413  1.00  0.00    -0.228 N 
HETATM    3  C   LIG     1      -4.075  -0.801  -0.223  1.00  0.00     0.706 C 
HETATM    4  N   LIG     1      -2.894  -0.197   0.328  1.00  0.00    -0.223 N 
HETATM    5  N   LIG     1      -4.115  -2.074  -0.489  1.00  0.00     0.015 NA
HETATM    6  C   LIG     1      -3.043  -2.954  -0.270  1.00  0.00     0.223 C 
HETATM    7  N   LIG     1      -2.160  -3.681  -0.090  1.00  0.00    -0.169 NA
HETATM    8  H   LIG     1      -6.159  -0.514  -0.632  1.00  0.00     0.177 HD
HETATM    9  H   LIG     1      -3.011   0.445   1.144  1.00  0.00     0.177 HD
ENDROOT
BRANCH   4  10
HETATM   10  C   LIG     1      -1.665  -0.078  -0.454  1.00  0.00     0.148 C 
BRANCH  10  11
HETATM   11  C   LIG     1      -0.452  -0.317   0.439  1.00  0.00     0.094 C 
BRANCH  11  12
HETATM   12  S   LIG     1       1.077  -0.190  -0.546  1.00  0.00    -0.161 SA
BRANCH  12  13
HETATM   13  C   LIG     1       2.187  -0.552   0.855  1.00  0.00     0.135 C 
BRANCH  13  14
HETATM   14  C   LIG     1       3.614  -0.486   0.407  1.00  0.00     0.067 A 
HETATM   15  C   LIG     1       4.306   0.638  -0.001  1.00  0.00     0.032 A 
HETATM   16  C   LIG     1       3.775   2.029  -0.146  1.00  0.00     0.070 C 
HETATM   17  N   LIG     1       5.553   0.266  -0.330  1.00  0.00    -0.353 N 
HETATM   18  C   LIG     1       5.602  -1.060  -0.097  1.00  0.00     0.207 A 
HETATM   19  H   LIG     1       6.324   0.871  -0.692  1.00  0.00     0.166 HD
HETATM   20  N   LIG     1       4.431  -1.557   0.357  1.00  0.00    -0.246 NA
ENDBRANCH  13  14
ENDBRANCH  12  13
ENDBRANCH  11  12
ENDBRANCH  10  11
ENDBRANCH   4  10
TORSDOF 5
