MODEL 1
REMARK VINA RESULT:      -6.4      0.000      0.000
REMARK  1 active torsions:
REMARK  status: ('A' for Active; 'I' for Inactive)
REMARK    1  A    between atoms: O_1  and  C_2 
ROOT
HETATM    1  C   LIG     1      14.516  31.905  18.642  1.00  0.00     0.066 A 
HETATM    2  C   LIG     1      15.104  33.055  18.106  1.00  0.00     0.048 A 
HETATM    3  C   LIG     1      15.714  34.000  18.947  1.00  0.00    -0.023 A 
HETATM    4  C   LIG     1      16.301  35.143  18.395  1.00  0.00     0.013 A 
HETATM    5  C   LIG     1      16.912  36.088  19.212  1.00  0.00     0.009 A 
HETATM    6  C   LIG     1      16.926  35.919  20.602  1.00  0.00    -0.046 A 
HETATM    7  C   LIG     1      16.354  34.760  21.195  1.00  0.00    -0.040 A 
HETATM    8  C   LIG     1      16.345  34.586  22.727  1.00  0.00     0.041 C 
HETATM    9  C   LIG     1      16.988  35.728  23.565  1.00  0.00     0.022 C 
HETATM   10  C   LIG     1      16.928  37.069  22.816  1.00  0.00     0.025 C 
HETATM   11  C   LIG     1      15.462  37.557  22.658  1.00  0.00     0.024 C 
HETATM   12  C   LIG     1      17.673  36.868  21.496  1.00  0.00     0.035 C 
HETATM   13  C   LIG     1      18.054  38.276  21.029  1.00  0.00     0.018 C 
HETATM   14  C   LIG     1      18.416  38.997  22.338  1.00  0.00     0.080 C 
HETATM   15  C   LIG     1      17.723  38.192  23.393  1.00  0.00     0.136 C 
HETATM   16  O   LIG     1      17.761  38.462  24.584  1.00  0.00    -0.297 OA
HETATM   17  C   LIG     1      15.737  33.794  20.353  1.00  0.00    -0.019 A 
HETATM   18  C   LIG     1      15.137  32.624  20.871  1.00  0.00     0.015 A 
HETATM   19  C   LIG     1      14.536  31.693  20.021  1.00  0.00     0.037 A 
ENDROOT
BRANCH   1  20
HETATM   20  O   LIG     1      13.910  30.964  17.812  1.00  0.00    -0.361 OA
HETATM   21  H   LIG     1      12.993  30.587  18.019  1.00  0.00     0.217 HD
ENDBRANCH   1  20
TORSDOF 1
ENDMDL
MODEL 2
REMARK VINA RESULT:      -5.7     14.811     16.648
REMARK  1 active torsions:
REMARK  status: ('A' for Active; 'I' for Inactive)
REMARK    1  A    between atoms: O_1  and  C_2 
ROOT
HETATM    1  C   LIG     1      29.393  25.724  16.568  1.00  0.00     0.066 A 
HETATM    2  C   LIG     1      28.569  26.178  17.603  1.00  0.00     0.048 A 
HETATM    3  C   LIG     1      27.694  25.294  18.255  1.00  0.00    -0.023 A 
HETATM    4  C   LIG     1      26.879  25.763  19.291  1.00  0.00     0.013 A 
HETATM    5  C   LIG     1      26.010  24.902  19.950  1.00  0.00     0.009 A 
HETATM    6  C   LIG     1      25.920  23.557  19.568  1.00  0.00    -0.046 A 
HETATM    7  C   LIG     1      26.747  23.043  18.532  1.00  0.00    -0.040 A 
HETATM    8  C   LIG     1      26.629  21.570  18.092  1.00  0.00     0.041 C 
HETATM    9  C   LIG     1      25.578  20.698  18.839  1.00  0.00     0.022 C 
HETATM   10  C   LIG     1      24.433  21.561  19.393  1.00  0.00     0.025 C 
HETATM   11  C   LIG     1      23.594  22.184  18.243  1.00  0.00     0.024 C 
HETATM   12  C   LIG     1      25.070  22.584  20.335  1.00  0.00     0.035 C 
HETATM   13  C   LIG     1      23.933  23.056  21.245  1.00  0.00     0.018 C 
HETATM   14  C   LIG     1      23.115  21.776  21.485  1.00  0.00     0.080 C 
HETATM   15  C   LIG     1      23.489  20.893  20.335  1.00  0.00     0.136 C 
HETATM   16  O   LIG     1      23.029  19.774  20.164  1.00  0.00    -0.297 OA
HETATM   17  C   LIG     1      27.639  23.928  17.866  1.00  0.00    -0.019 A 
HETATM   18  C   LIG     1      28.482  23.493  16.819  1.00  0.00     0.015 A 
HETATM   19  C   LIG     1      29.347  24.384  16.181  1.00  0.00     0.037 A 
ENDROOT
BRANCH   1  20
HETATM   20  O   LIG     1      30.264  26.597  15.918  1.00  0.00    -0.361 OA
HETATM   21  H   LIG     1      30.472  26.500  14.931  1.00  0.00     0.217 HD
ENDBRANCH   1  20
TORSDOF 1
ENDMDL
MODEL 3
REMARK VINA RESULT:      -5.7     17.358     18.440
REMARK  1 active torsions:
REMARK  status: ('A' for Active; 'I' for Inactive)
REMARK    1  A    between atoms: O_1  and  C_2 
ROOT
HETATM    1  C   LIG     1      28.311  26.614  29.656  1.00  0.00     0.066 A 
HETATM    2  C   LIG     1      27.302  26.556  30.622  1.00  0.00     0.048 A 
HETATM    3  C   LIG     1      27.307  27.444  31.710  1.00  0.00    -0.023 A 
HETATM    4  C   LIG     1      26.288  27.375  32.666  1.00  0.00     0.013 A 
HETATM    5  C   LIG     1      26.274  28.249  33.747  1.00  0.00     0.009 A 
HETATM    6  C   LIG     1      27.296  29.193  33.908  1.00  0.00    -0.046 A 
HETATM    7  C   LIG     1      28.337  29.302  32.945  1.00  0.00    -0.040 A 
HETATM    8  C   LIG     1      29.477  30.323  33.135  1.00  0.00     0.041 C 
HETATM    9  C   LIG     1      29.417  31.210  34.413  1.00  0.00     0.022 C 
HETATM   10  C   LIG     1      28.648  30.506  35.542  1.00  0.00     0.025 C 
HETATM   11  C   LIG     1      29.415  29.251  36.043  1.00  0.00     0.024 C 
HETATM   12  C   LIG     1      27.246  30.217  35.006  1.00  0.00     0.035 C 
HETATM   13  C   LIG     1      26.372  30.019  36.248  1.00  0.00     0.018 C 
HETATM   14  C   LIG     1      26.923  31.058  37.238  1.00  0.00     0.080 C 
HETATM   15  C   LIG     1      28.305  31.336  36.734  1.00  0.00     0.136 C 
HETATM   16  O   LIG     1      29.079  32.113  37.272  1.00  0.00    -0.297 OA
HETATM   17  C   LIG     1      28.341  28.410  31.837  1.00  0.00    -0.019 A 
HETATM   18  C   LIG     1      29.350  28.451  30.848  1.00  0.00     0.015 A 
HETATM   19  C   LIG     1      29.330  27.561  29.772  1.00  0.00     0.037 A 
ENDROOT
BRANCH   1  20
HETATM   20  O   LIG     1      28.311  25.736  28.574  1.00  0.00    -0.361 OA
HETATM   21  H   LIG     1      29.095  25.121  28.390  1.00  0.00     0.217 HD
ENDBRANCH   1  20
TORSDOF 1
ENDMDL
MODEL 4
REMARK VINA RESULT:      -5.5     14.663     16.954
REMARK  1 active torsions:
REMARK  status: ('A' for Active; 'I' for Inactive)
REMARK    1  A    between atoms: O_1  and  C_2 
ROOT
HETATM    1  C   LIG     1      22.429  20.172  27.477  1.00  0.00     0.066 A 
HETATM    2  C   LIG     1      22.041  19.370  26.400  1.00  0.00     0.048 A 
HETATM    3  C   LIG     1      22.454  19.683  25.095  1.00  0.00    -0.023 A 
HETATM    4  C   LIG     1      22.059  18.868  24.028  1.00  0.00     0.013 A 
HETATM    5  C   LIG     1      22.461  19.160  22.730  1.00  0.00     0.009 A 
HETATM    6  C   LIG     1      23.246  20.291  22.469  1.00  0.00    -0.046 A 
HETATM    7  C   LIG     1      23.679  21.130  23.532  1.00  0.00    -0.040 A 
HETATM    8  C   LIG     1      24.521  22.390  23.243  1.00  0.00     0.041 C 
HETATM    9  C   LIG     1      24.862  22.677  21.752  1.00  0.00     0.022 C 
HETATM   10  C   LIG     1      23.807  22.070  20.813  1.00  0.00     0.025 C 
HETATM   11  C   LIG     1      22.434  22.777  20.983  1.00  0.00     0.024 C 
HETATM   12  C   LIG     1      23.782  20.567  21.093  1.00  0.00     0.035 C 
HETATM   13  C   LIG     1      23.157  19.935  19.847  1.00  0.00     0.018 C 
HETATM   14  C   LIG     1      23.730  20.778  18.696  1.00  0.00     0.080 C 
HETATM   15  C   LIG     1      24.137  22.057  19.358  1.00  0.00     0.136 C 
HETATM   16  O   LIG     1      24.632  23.001  18.760  1.00  0.00    -0.297 OA
HETATM   17  C   LIG     1      23.271  20.821  24.859  1.00  0.00    -0.019 A 
HETATM   18  C   LIG     1      23.651  21.617  25.963  1.00  0.00     0.015 A 
HETATM   19  C   LIG     1      23.233  21.291  27.255  1.00  0.00     0.037 A 
ENDROOT
BRANCH   1  20
HETATM   20  O   LIG     1      22.023  19.866  28.775  1.00  0.00    -0.361 OA
HETATM   21  H   LIG     1      22.659  19.448  29.444  1.00  0.00     0.217 HD
ENDBRANCH   1  20
TORSDOF 1
ENDMDL
MODEL 5
REMARK VINA RESULT:      -5.4     16.924     18.261
REMARK  1 active torsions:
REMARK  status: ('A' for Active; 'I' for Inactive)
REMARK    1  A    between atoms: O_1  and  C_2 
ROOT
HETATM    1  C   LIG     1      27.701  26.512  29.423  1.00  0.00     0.066 A 
HETATM    2  C   LIG     1      28.429  27.679  29.673  1.00  0.00     0.048 A 
HETATM    3  C   LIG     1      28.476  28.225  30.967  1.00  0.00    -0.023 A 
HETATM    4  C   LIG     1      29.213  29.391  31.201  1.00  0.00     0.013 A 
HETATM    5  C   LIG     1      29.274  29.944  32.475  1.00  0.00     0.009 A 
HETATM    6  C   LIG     1      28.577  29.353  33.537  1.00  0.00    -0.046 A 
HETATM    7  C   LIG     1      27.834  28.157  33.338  1.00  0.00    -0.040 A 
HETATM    8  C   LIG     1      27.045  27.521  34.500  1.00  0.00     0.041 C 
HETATM    9  C   LIG     1      27.114  28.250  35.874  1.00  0.00     0.022 C 
HETATM   10  C   LIG     1      27.389  29.751  35.694  1.00  0.00     0.025 C 
HETATM   11  C   LIG     1      26.193  30.460  35.001  1.00  0.00     0.024 C 
HETATM   12  C   LIG     1      28.715  29.868  34.942  1.00  0.00     0.035 C 
HETATM   13  C   LIG     1      29.220  31.284  35.231  1.00  0.00     0.018 C 
HETATM   14  C   LIG     1      28.824  31.509  36.699  1.00  0.00     0.080 C 
HETATM   15  C   LIG     1      27.722  30.521  36.928  1.00  0.00     0.136 C 
HETATM   16  O   LIG     1      27.130  30.401  37.990  1.00  0.00    -0.297 OA
HETATM   17  C   LIG     1      27.781  27.593  32.033  1.00  0.00    -0.019 A 
HETATM   18  C   LIG     1      27.053  26.414  31.756  1.00  0.00     0.015 A 
HETATM   19  C   LIG     1      27.017  25.884  30.465  1.00  0.00     0.037 A 
ENDROOT
BRANCH   1  20
HETATM   20  O   LIG     1      27.651  25.966  28.142  1.00  0.00    -0.361 OA
HETATM   21  H   LIG     1      27.000  26.308  27.445  1.00  0.00     0.217 HD
ENDBRANCH   1  20
TORSDOF 1
ENDMDL
MODEL 6
REMARK VINA RESULT:      -5.4     15.062     16.710
REMARK  1 active torsions:
REMARK  status: ('A' for Active; 'I' for Inactive)
REMARK    1  A    between atoms: O_1  and  C_2 
ROOT
HETATM    1  C   LIG     1      22.443  18.735  17.568  1.00  0.00     0.066 A 
HETATM    2  C   LIG     1      22.364  18.090  18.806  1.00  0.00     0.048 A 
HETATM    3  C   LIG     1      22.642  18.790  19.992  1.00  0.00    -0.023 A 
HETATM    4  C   LIG     1      22.555  18.131  21.223  1.00  0.00     0.013 A 
HETATM    5  C   LIG     1      22.823  18.808  22.407  1.00  0.00     0.009 A 
HETATM    6  C   LIG     1      23.209  20.155  22.381  1.00  0.00    -0.046 A 
HETATM    7  C   LIG     1      23.290  20.859  21.148  1.00  0.00    -0.040 A 
HETATM    8  C   LIG     1      23.742  22.334  21.115  1.00  0.00     0.041 C 
HETATM    9  C   LIG     1      24.090  22.989  22.483  1.00  0.00     0.022 C 
HETATM   10  C   LIG     1      24.547  21.935  23.504  1.00  0.00     0.025 C 
HETATM   11  C   LIG     1      25.901  21.299  23.085  1.00  0.00     0.024 C 
HETATM   12  C   LIG     1      23.398  20.937  23.649  1.00  0.00     0.035 C 
HETATM   13  C   LIG     1      23.636  20.240  24.992  1.00  0.00     0.018 C 
HETATM   14  C   LIG     1      24.161  21.372  25.890  1.00  0.00     0.080 C 
HETATM   15  C   LIG     1      24.676  22.389  24.920  1.00  0.00     0.136 C 
HETATM   16  O   LIG     1      25.193  23.444  25.255  1.00  0.00    -0.297 OA
HETATM   17  C   LIG     1      23.008  20.162  19.941  1.00  0.00    -0.019 A 
HETATM   18  C   LIG     1      23.080  20.792  18.678  1.00  0.00     0.015 A 
HETATM   19  C   LIG     1      22.799  20.082  17.509  1.00  0.00     0.037 A 
ENDROOT
BRANCH   1  20
HETATM   20  O   LIG     1      22.167  18.045  16.389  1.00  0.00    -0.361 OA
HETATM   21  H   LIG     1      22.884  17.520  15.902  1.00  0.00     0.217 HD
ENDBRANCH   1  20
TORSDOF 1
ENDMDL
MODEL 7
REMARK VINA RESULT:      -5.3     14.638     16.915
REMARK  1 active torsions:
REMARK  status: ('A' for Active; 'I' for Inactive)
REMARK    1  A    between atoms: O_1  and  C_2 
ROOT
HETATM    1  C   LIG     1      26.258  24.083  27.759  1.00  0.00     0.066 A 
HETATM    2  C   LIG     1      25.373  23.015  27.586  1.00  0.00     0.048 A 
HETATM    3  C   LIG     1      25.072  22.541  26.298  1.00  0.00    -0.023 A 
HETATM    4  C   LIG     1      24.187  21.469  26.142  1.00  0.00     0.013 A 
HETATM    5  C   LIG     1      23.881  20.985  24.876  1.00  0.00     0.009 A 
HETATM    6  C   LIG     1      24.435  21.581  23.736  1.00  0.00    -0.046 A 
HETATM    7  C   LIG     1      25.352  22.661  23.859  1.00  0.00    -0.040 A 
HETATM    8  C   LIG     1      25.943  23.336  22.605  1.00  0.00     0.041 C 
HETATM    9  C   LIG     1      25.487  22.773  21.227  1.00  0.00     0.022 C 
HETATM   10  C   LIG     1      24.098  22.123  21.324  1.00  0.00     0.025 C 
HETATM   11  C   LIG     1      23.004  23.183  21.629  1.00  0.00     0.024 C 
HETATM   12  C   LIG     1      24.206  21.009  22.366  1.00  0.00     0.035 C 
HETATM   13  C   LIG     1      23.031  20.070  22.076  1.00  0.00     0.018 C 
HETATM   14  C   LIG     1      22.952  20.066  20.541  1.00  0.00     0.080 C 
HETATM   15  C   LIG     1      23.648  21.330  20.143  1.00  0.00     0.136 C 
HETATM   16  O   LIG     1      23.780  21.694  18.984  1.00  0.00    -0.297 OA
HETATM   17  C   LIG     1      25.667  23.147  25.159  1.00  0.00    -0.019 A 
HETATM   18  C   LIG     1      26.559  24.224  25.358  1.00  0.00     0.015 A 
HETATM   19  C   LIG     1      26.848  24.683  26.646  1.00  0.00     0.037 A 
ENDROOT
BRANCH   1  20
HETATM   20  O   LIG     1      26.560  24.556  29.034  1.00  0.00    -0.361 OA
HETATM   21  H   LIG     1      27.252  24.102  29.618  1.00  0.00     0.217 HD
ENDBRANCH   1  20
TORSDOF 1
ENDMDL
MODEL 8
REMARK VINA RESULT:      -5.3     15.241     16.666
REMARK  1 active torsions:
REMARK  status: ('A' for Active; 'I' for Inactive)
REMARK    1  A    between atoms: O_1  and  C_2 
ROOT
HETATM    1  C   LIG     1      26.556  23.100  26.774  1.00  0.00     0.066 A 
HETATM    2  C   LIG     1      27.274  23.440  25.624  1.00  0.00     0.048 A 
HETATM    3  C   LIG     1      26.693  23.295  24.353  1.00  0.00    -0.023 A 
HETATM    4  C   LIG     1      27.425  23.643  23.212  1.00  0.00     0.013 A 
HETATM    5  C   LIG     1      26.865  23.510  21.947  1.00  0.00     0.009 A 
HETATM    6  C   LIG     1      25.569  23.001  21.796  1.00  0.00    -0.046 A 
HETATM    7  C   LIG     1      24.791  22.654  22.935  1.00  0.00    -0.040 A 
HETATM    8  C   LIG     1      23.374  22.069  22.769  1.00  0.00     0.041 C 
HETATM    9  C   LIG     1      22.858  21.888  21.312  1.00  0.00     0.022 C 
HETATM   10  C   LIG     1      24.024  21.705  20.327  1.00  0.00     0.025 C 
HETATM   11  C   LIG     1      24.768  20.366  20.585  1.00  0.00     0.024 C 
HETATM   12  C   LIG     1      24.903  22.950  20.450  1.00  0.00     0.035 C 
HETATM   13  C   LIG     1      25.714  23.001  19.152  1.00  0.00     0.018 C 
HETATM   14  C   LIG     1      24.710  22.526  18.089  1.00  0.00     0.080 C 
HETATM   15  C   LIG     1      23.687  21.767  18.875  1.00  0.00     0.136 C 
HETATM   16  O   LIG     1      22.719  21.216  18.373  1.00  0.00    -0.297 OA
HETATM   17  C   LIG     1      25.368  22.800  24.227  1.00  0.00    -0.019 A 
HETATM   18  C   LIG     1      24.661  22.464  25.404  1.00  0.00     0.015 A 
HETATM   19  C   LIG     1      25.252  22.615  26.660  1.00  0.00     0.037 A 
ENDROOT
BRANCH   1  20
HETATM   20  O   LIG     1      27.127  23.242  28.037  1.00  0.00    -0.361 OA
HETATM   21  H   LIG     1      27.884  23.895  28.206  1.00  0.00     0.217 HD
ENDBRANCH   1  20
TORSDOF 1
ENDMDL
MODEL 9
REMARK VINA RESULT:      -5.2     15.115     15.949
REMARK  1 active torsions:
REMARK  status: ('A' for Active; 'I' for Inactive)
REMARK    1  A    between atoms: O_1  and  C_2 
ROOT
HETATM    1  C   LIG     1      22.809  19.725  18.934  1.00  0.00     0.066 A 
HETATM    2  C   LIG     1      23.479  19.922  20.146  1.00  0.00     0.048 A 
HETATM    3  C   LIG     1      24.347  21.014  20.309  1.00  0.00    -0.023 A 
HETATM    4  C   LIG     1      25.007  21.200  21.529  1.00  0.00     0.013 A 
HETATM    5  C   LIG     1      25.867  22.276  21.710  1.00  0.00     0.009 A 
HETATM    6  C   LIG     1      26.105  23.177  20.663  1.00  0.00    -0.046 A 
HETATM    7  C   LIG     1      25.437  23.028  19.416  1.00  0.00    -0.040 A 
HETATM    8  C   LIG     1      25.719  24.002  18.254  1.00  0.00     0.041 C 
HETATM    9  C   LIG     1      26.750  25.135  18.526  1.00  0.00     0.022 C 
HETATM   10  C   LIG     1      27.757  24.722  19.612  1.00  0.00     0.025 C 
HETATM   11  C   LIG     1      28.661  23.558  19.123  1.00  0.00     0.024 C 
HETATM   12  C   LIG     1      26.943  24.406  20.867  1.00  0.00     0.035 C 
HETATM   13  C   LIG     1      27.935  24.516  22.029  1.00  0.00     0.018 C 
HETATM   14  C   LIG     1      28.822  25.706  21.626  1.00  0.00     0.080 C 
HETATM   15  C   LIG     1      28.645  25.797  20.142  1.00  0.00     0.136 C 
HETATM   16  O   LIG     1      29.209  26.626  19.443  1.00  0.00    -0.297 OA
HETATM   17  C   LIG     1      24.553  21.928  19.240  1.00  0.00    -0.019 A 
HETATM   18  C   LIG     1      23.865  21.708  18.026  1.00  0.00     0.015 A 
HETATM   19  C   LIG     1      23.004  20.618  17.880  1.00  0.00     0.037 A 
ENDROOT
BRANCH   1  20
HETATM   20  O   LIG     1      21.947  18.643  18.767  1.00  0.00    -0.361 OA
HETATM   21  H   LIG     1      22.247  17.791  18.309  1.00  0.00     0.217 HD
ENDBRANCH   1  20
TORSDOF 1
ENDMDL
MODEL 10
REMARK VINA RESULT:      -5.2     15.261     16.651
REMARK  1 active torsions:
REMARK  status: ('A' for Active; 'I' for Inactive)
REMARK    1  A    between atoms: O_1  and  C_2 
ROOT
HETATM    1  C   LIG     1      23.901  22.046  19.567  1.00  0.00     0.066 A 
HETATM    2  C   LIG     1      23.244  21.082  20.338  1.00  0.00     0.048 A 
HETATM    3  C   LIG     1      23.381  21.075  21.736  1.00  0.00    -0.023 A 
HETATM    4  C   LIG     1      22.713  20.106  22.493  1.00  0.00     0.013 A 
HETATM    5  C   LIG     1      22.834  20.086  23.878  1.00  0.00     0.009 A 
HETATM    6  C   LIG     1      23.646  21.021  24.532  1.00  0.00    -0.046 A 
HETATM    7  C   LIG     1      24.324  22.030  23.794  1.00  0.00    -0.040 A 
HETATM    8  C   LIG     1      25.240  23.044  24.510  1.00  0.00     0.041 C 
HETATM    9  C   LIG     1      25.371  22.900  26.054  1.00  0.00     0.022 C 
HETATM   10  C   LIG     1      25.116  21.451  26.502  1.00  0.00     0.025 C 
HETATM   11  C   LIG     1      26.230  20.501  25.983  1.00  0.00     0.024 C 
HETATM   12  C   LIG     1      23.707  21.088  26.031  1.00  0.00     0.035 C 
HETATM   13  C   LIG     1      23.283  19.904  26.904  1.00  0.00     0.018 C 
HETATM   14  C   LIG     1      23.873  20.250  28.282  1.00  0.00     0.080 C 
HETATM   15  C   LIG     1      24.967  21.222  27.968  1.00  0.00     0.136 C 
HETATM   16  O   LIG     1      25.690  21.725  28.816  1.00  0.00    -0.297 OA
HETATM   17  C   LIG     1      24.191  22.050  22.378  1.00  0.00    -0.019 A 
HETATM   18  C   LIG     1      24.845  23.014  21.579  1.00  0.00     0.015 A 
HETATM   19  C   LIG     1      24.698  23.008  20.190  1.00  0.00     0.037 A 
ENDROOT
BRANCH   1  20
HETATM   20  O   LIG     1      23.769  22.058  18.180  1.00  0.00    -0.361 OA
HETATM   21  H   LIG     1      24.032  22.866  17.629  1.00  0.00     0.217 HD
ENDBRANCH   1  20
TORSDOF 1
ENDMDL
MODEL 11
REMARK VINA RESULT:      -5.1     15.303     16.703
REMARK  1 active torsions:
REMARK  status: ('A' for Active; 'I' for Inactive)
REMARK    1  A    between atoms: O_1  and  C_2 
ROOT
HETATM    1  C   LIG     1      23.869  20.576  27.191  1.00  0.00     0.066 A 
HETATM    2  C   LIG     1      24.838  21.465  26.716  1.00  0.00     0.048 A 
HETATM    3  C   LIG     1      24.861  21.835  25.362  1.00  0.00    -0.023 A 
HETATM    4  C   LIG     1      25.835  22.728  24.903  1.00  0.00     0.013 A 
HETATM    5  C   LIG     1      25.871  23.109  23.567  1.00  0.00     0.009 A 
HETATM    6  C   LIG     1      24.947  22.582  22.655  1.00  0.00    -0.046 A 
HETATM    7  C   LIG     1      23.933  21.686  23.091  1.00  0.00    -0.040 A 
HETATM    8  C   LIG     1      22.931  21.085  22.084  1.00  0.00     0.041 C 
HETATM    9  C   LIG     1      23.093  21.513  20.597  1.00  0.00     0.022 C 
HETATM   10  C   LIG     1      24.545  21.910  20.287  1.00  0.00     0.025 C 
HETATM   11  C   LIG     1      25.494  20.684  20.386  1.00  0.00     0.024 C 
HETATM   12  C   LIG     1      24.897  23.059  21.232  1.00  0.00     0.035 C 
HETATM   13  C   LIG     1      26.089  23.766  20.581  1.00  0.00     0.018 C 
HETATM   14  C   LIG     1      25.761  23.706  19.080  1.00  0.00     0.080 C 
HETATM   15  C   LIG     1      24.790  22.571  18.972  1.00  0.00     0.136 C 
HETATM   16  O   LIG     1      24.299  22.198  17.917  1.00  0.00    -0.297 OA
HETATM   17  C   LIG     1      23.897  21.307  24.461  1.00  0.00    -0.019 A 
HETATM   18  C   LIG     1      22.927  20.411  24.965  1.00  0.00     0.015 A 
HETATM   19  C   LIG     1      22.917  20.054  26.315  1.00  0.00     0.037 A 
ENDROOT
BRANCH   1  20
HETATM   20  O   LIG     1      23.841  20.206  28.535  1.00  0.00    -0.361 OA
HETATM   21  H   LIG     1      23.566  20.859  29.259  1.00  0.00     0.217 HD
ENDBRANCH   1  20
TORSDOF 1
ENDMDL
MODEL 12
REMARK VINA RESULT:      -5.1     14.769     15.851
REMARK  1 active torsions:
REMARK  status: ('A' for Active; 'I' for Inactive)
REMARK    1  A    between atoms: O_1  and  C_2 
ROOT
HETATM    1  C   LIG     1      23.359  21.581  22.176  1.00  0.00     0.066 A 
HETATM    2  C   LIG     1      23.503  21.631  20.786  1.00  0.00     0.048 A 
HETATM    3  C   LIG     1      24.605  22.283  20.208  1.00  0.00    -0.023 A 
HETATM    4  C   LIG     1      24.736  22.321  18.816  1.00  0.00     0.013 A 
HETATM    5  C   LIG     1      25.822  22.958  18.226  1.00  0.00     0.009 A 
HETATM    6  C   LIG     1      26.787  23.593  19.019  1.00  0.00    -0.046 A 
HETATM    7  C   LIG     1      26.693  23.559  20.437  1.00  0.00    -0.040 A 
HETATM    8  C   LIG     1      27.739  24.280  21.310  1.00  0.00     0.041 C 
HETATM    9  C   LIG     1      28.880  25.028  20.561  1.00  0.00     0.022 C 
HETATM   10  C   LIG     1      28.431  25.465  19.157  1.00  0.00     0.025 C 
HETATM   11  C   LIG     1      27.318  26.546  19.237  1.00  0.00     0.024 C 
HETATM   12  C   LIG     1      28.023  24.193  18.412  1.00  0.00     0.035 C 
HETATM   13  C   LIG     1      28.091  24.558  16.926  1.00  0.00     0.018 C 
HETATM   14  C   LIG     1      29.323  25.474  16.842  1.00  0.00     0.080 C 
HETATM   15  C   LIG     1      29.495  25.971  18.243  1.00  0.00     0.136 C 
HETATM   16  O   LIG     1      30.376  26.747  18.583  1.00  0.00    -0.297 OA
HETATM   17  C   LIG     1      25.583  22.899  21.034  1.00  0.00    -0.019 A 
HETATM   18  C   LIG     1      25.417  22.834  22.436  1.00  0.00     0.015 A 
HETATM   19  C   LIG     1      24.316  22.181  22.995  1.00  0.00     0.037 A 
ENDROOT
BRANCH   1  20
HETATM   20  O   LIG     1      22.268  20.935  22.754  1.00  0.00    -0.361 OA
HETATM   21  H   LIG     1      21.338  21.338  22.727  1.00  0.00     0.217 HD
ENDBRANCH   1  20
TORSDOF 1
ENDMDL
MODEL 13
REMARK VINA RESULT:      -5.0     14.982     16.714
REMARK  1 active torsions:
REMARK  status: ('A' for Active; 'I' for Inactive)
REMARK    1  A    between atoms: O_1  and  C_2 
ROOT
HETATM    1  C   LIG     1      26.386  24.302  26.811  1.00  0.00     0.066 A 
HETATM    2  C   LIG     1      25.435  23.600  26.064  1.00  0.00     0.048 A 
HETATM    3  C   LIG     1      25.645  23.351  24.698  1.00  0.00    -0.023 A 
HETATM    4  C   LIG     1      24.684  22.644  23.967  1.00  0.00     0.013 A 
HETATM    5  C   LIG     1      24.877  22.384  22.615  1.00  0.00     0.009 A 
HETATM    6  C   LIG     1      26.024  22.851  21.960  1.00  0.00    -0.046 A 
HETATM    7  C   LIG     1      27.028  23.558  22.678  1.00  0.00    -0.040 A 
HETATM    8  C   LIG     1      28.279  24.095  21.953  1.00  0.00     0.041 C 
HETATM    9  C   LIG     1      28.375  23.819  20.425  1.00  0.00     0.022 C 
HETATM   10  C   LIG     1      26.980  23.655  19.801  1.00  0.00     0.025 C 
HETATM   11  C   LIG     1      26.185  24.989  19.850  1.00  0.00     0.024 C 
HETATM   12  C   LIG     1      26.307  22.492  20.529  1.00  0.00     0.035 C 
HETATM   13  C   LIG     1      25.196  22.015  19.589  1.00  0.00     0.018 C 
HETATM   14  C   LIG     1      25.829  22.154  18.194  1.00  0.00     0.080 C 
HETATM   15  C   LIG     1      26.931  23.147  18.399  1.00  0.00     0.136 C 
HETATM   16  O   LIG     1      27.668  23.534  17.505  1.00  0.00    -0.297 OA
HETATM   17  C   LIG     1      26.828  23.813  24.063  1.00  0.00    -0.019 A 
HETATM   18  C   LIG     1      27.776  24.519  24.838  1.00  0.00     0.015 A 
HETATM   19  C   LIG     1      27.552  24.758  26.195  1.00  0.00     0.037 A 
ENDROOT
BRANCH   1  20
HETATM   20  O   LIG     1      26.183  24.552  28.167  1.00  0.00    -0.361 OA
HETATM   21  H   LIG     1      26.504  23.906  28.878  1.00  0.00     0.217 HD
ENDBRANCH   1  20
TORSDOF 1
ENDMDL
MODEL 14
REMARK VINA RESULT:      -5.0     14.830     16.520
REMARK  1 active torsions:
REMARK  status: ('A' for Active; 'I' for Inactive)
REMARK    1  A    between atoms: O_1  and  C_2 
ROOT
HETATM    1  C   LIG     1      22.295  18.505  16.455  1.00  0.00     0.066 A 
HETATM    2  C   LIG     1      23.430  19.321  16.451  1.00  0.00     0.048 A 
HETATM    3  C   LIG     1      23.898  19.894  17.645  1.00  0.00    -0.023 A 
HETATM    4  C   LIG     1      25.037  20.706  17.624  1.00  0.00     0.013 A 
HETATM    5  C   LIG     1      25.517  21.279  18.796  1.00  0.00     0.009 A 
HETATM    6  C   LIG     1      24.850  21.073  20.011  1.00  0.00    -0.046 A 
HETATM    7  C   LIG     1      23.699  20.239  20.070  1.00  0.00    -0.040 A 
HETATM    8  C   LIG     1      22.948  20.033  21.401  1.00  0.00     0.041 C 
HETATM    9  C   LIG     1      23.516  20.772  22.647  1.00  0.00     0.022 C 
HETATM   10  C   LIG     1      24.284  22.039  22.240  1.00  0.00     0.025 C 
HETATM   11  C   LIG     1      23.328  23.101  21.630  1.00  0.00     0.024 C 
HETATM   12  C   LIG     1      25.408  21.590  21.305  1.00  0.00     0.035 C 
HETATM   13  C   LIG     1      26.437  22.724  21.338  1.00  0.00     0.018 C 
HETATM   14  C   LIG     1      26.413  23.183  22.806  1.00  0.00     0.080 C 
HETATM   15  C   LIG     1      25.085  22.707  23.307  1.00  0.00     0.136 C 
HETATM   16  O   LIG     1      24.685  22.894  24.446  1.00  0.00    -0.297 OA
HETATM   17  C   LIG     1      23.218  19.650  18.868  1.00  0.00    -0.019 A 
HETATM   18  C   LIG     1      22.073  18.821  18.848  1.00  0.00     0.015 A 
HETATM   19  C   LIG     1      21.622  18.257  17.652  1.00  0.00     0.037 A 
ENDROOT
BRANCH   1  20
HETATM   20  O   LIG     1      21.826  17.933  15.274  1.00  0.00    -0.361 OA
HETATM   21  H   LIG     1      20.920  18.175  14.890  1.00  0.00     0.217 HD
ENDBRANCH   1  20
TORSDOF 1
ENDMDL
MODEL 15
REMARK VINA RESULT:      -5.0     17.074     17.831
REMARK  1 active torsions:
REMARK  status: ('A' for Active; 'I' for Inactive)
REMARK    1  A    between atoms: O_1  and  C_2 
ROOT
HETATM    1  C   LIG     1      29.310  26.333  26.956  1.00  0.00     0.066 A 
HETATM    2  C   LIG     1      28.409  25.783  27.873  1.00  0.00     0.048 A 
HETATM    3  C   LIG     1      28.188  26.405  29.113  1.00  0.00    -0.023 A 
HETATM    4  C   LIG     1      27.281  25.843  30.018  1.00  0.00     0.013 A 
HETATM    5  C   LIG     1      27.046  26.447  31.248  1.00  0.00     0.009 A 
HETATM    6  C   LIG     1      27.735  27.612  31.609  1.00  0.00    -0.046 A 
HETATM    7  C   LIG     1      28.650  28.219  30.705  1.00  0.00    -0.040 A 
HETATM    8  C   LIG     1      29.429  29.486  31.111  1.00  0.00     0.041 C 
HETATM    9  C   LIG     1      29.155  30.050  32.536  1.00  0.00     0.022 C 
HETATM   10  C   LIG     1      28.687  28.941  33.492  1.00  0.00     0.025 C 
HETATM   11  C   LIG     1      29.822  27.913  33.754  1.00  0.00     0.024 C 
HETATM   12  C   LIG     1      27.420  28.341  32.883  1.00  0.00     0.035 C 
HETATM   13  C   LIG     1      26.702  27.650  34.046  1.00  0.00     0.018 C 
HETATM   14  C   LIG     1      26.949  28.600  35.230  1.00  0.00     0.080 C 
HETATM   15  C   LIG     1      28.157  29.381  34.815  1.00  0.00     0.136 C 
HETATM   16  O   LIG     1      28.677  30.242  35.509  1.00  0.00    -0.297 OA
HETATM   17  C   LIG     1      28.881  27.600  29.445  1.00  0.00    -0.019 A 
HETATM   18  C   LIG     1      29.785  28.138  28.502  1.00  0.00     0.015 A 
HETATM   19  C   LIG     1      29.993  27.508  27.273  1.00  0.00     0.037 A 
ENDROOT
BRANCH   1  20
HETATM   20  O   LIG     1      29.534  25.721  25.724  1.00  0.00    -0.361 OA
HETATM   21  H   LIG     1      30.455  25.699  25.302  1.00  0.00     0.217 HD
ENDBRANCH   1  20
TORSDOF 1
ENDMDL
MODEL 16
REMARK VINA RESULT:      -5.0     16.041     17.446
REMARK  1 active torsions:
REMARK  status: ('A' for Active; 'I' for Inactive)
REMARK    1  A    between atoms: O_1  and  C_2 
ROOT
HETATM    1  C   LIG     1      28.104  25.329  27.893  1.00  0.00     0.066 A 
HETATM    2  C   LIG     1      28.032  25.084  26.518  1.00  0.00     0.048 A 
HETATM    3  C   LIG     1      27.036  24.242  25.997  1.00  0.00    -0.023 A 
HETATM    4  C   LIG     1      26.975  24.010  24.619  1.00  0.00     0.013 A 
HETATM    5  C   LIG     1      25.994  23.182  24.085  1.00  0.00     0.009 A 
HETATM    6  C   LIG     1      25.067  22.549  24.923  1.00  0.00    -0.046 A 
HETATM    7  C   LIG     1      25.090  22.777  26.327  1.00  0.00    -0.040 A 
HETATM    8  C   LIG     1      24.088  22.060  27.254  1.00  0.00     0.041 C 
HETATM    9  C   LIG     1      23.072  21.097  26.575  1.00  0.00     0.022 C 
HETATM   10  C   LIG     1      23.631  20.537  25.258  1.00  0.00     0.025 C 
HETATM   11  C   LIG     1      24.849  19.608  25.517  1.00  0.00     0.024 C 
HETATM   12  C   LIG     1      23.933  21.739  24.363  1.00  0.00     0.035 C 
HETATM   13  C   LIG     1      23.975  21.181  22.937  1.00  0.00     0.018 C 
HETATM   14  C   LIG     1      22.855  20.128  22.936  1.00  0.00     0.080 C 
HETATM   15  C   LIG     1      22.672  19.799  24.385  1.00  0.00     0.136 C 
HETATM   16  O   LIG     1      21.866  18.978  24.797  1.00  0.00    -0.297 OA
HETATM   17  C   LIG     1      26.092  23.631  26.866  1.00  0.00    -0.019 A 
HETATM   18  C   LIG     1      26.184  23.894  28.251  1.00  0.00     0.015 A 
HETATM   19  C   LIG     1      27.181  24.734  28.753  1.00  0.00     0.037 A 
ENDROOT
BRANCH   1  20
HETATM   20  O   LIG     1      29.091  26.163  28.415  1.00  0.00    -0.361 OA
HETATM   21  H   LIG     1      29.668  26.741  27.815  1.00  0.00     0.217 HD
ENDBRANCH   1  20
TORSDOF 1
ENDMDL
MODEL 17
REMARK VINA RESULT:      -4.9     15.466     17.549
REMARK  1 active torsions:
REMARK  status: ('A' for Active; 'I' for Inactive)
REMARK    1  A    between atoms: O_1  and  C_2 
ROOT
HETATM    1  C   LIG     1      24.871  22.734  25.701  1.00  0.00     0.066 A 
HETATM    2  C   LIG     1      23.936  21.732  25.425  1.00  0.00     0.048 A 
HETATM    3  C   LIG     1      23.848  21.176  24.138  1.00  0.00    -0.023 A 
HETATM    4  C   LIG     1      22.909  20.172  23.880  1.00  0.00     0.013 A 
HETATM    5  C   LIG     1      22.810  19.607  22.614  1.00  0.00     0.009 A 
HETATM    6  C   LIG     1      23.632  20.054  21.572  1.00  0.00    -0.046 A 
HETATM    7  C   LIG     1      24.609  21.061  21.805  1.00  0.00    -0.040 A 
HETATM    8  C   LIG     1      25.497  21.573  20.652  1.00  0.00     0.041 C 
HETATM    9  C   LIG     1      25.266  20.933  19.253  1.00  0.00     0.022 C 
HETATM   10  C   LIG     1      23.827  20.411  19.111  1.00  0.00     0.025 C 
HETATM   11  C   LIG     1      22.805  21.581  19.115  1.00  0.00     0.024 C 
HETATM   12  C   LIG     1      23.620  19.387  20.226  1.00  0.00     0.035 C 
HETATM   13  C   LIG     1      22.438  18.527  19.769  1.00  0.00     0.018 C 
HETATM   14  C   LIG     1      22.660  18.396  18.253  1.00  0.00     0.080 C 
HETATM   15  C   LIG     1      23.541  19.560  17.920  1.00  0.00     0.136 C 
HETATM   16  O   LIG     1      23.933  19.810  16.790  1.00  0.00    -0.297 OA
HETATM   17  C   LIG     1      24.711  21.629  23.104  1.00  0.00    -0.019 A 
HETATM   18  C   LIG     1      25.649  22.642  23.407  1.00  0.00     0.015 A 
HETATM   19  C   LIG     1      25.724  23.184  24.692  1.00  0.00     0.037 A 
ENDROOT
BRANCH   1  20
HETATM   20  O   LIG     1      24.964  23.290  26.975  1.00  0.00    -0.361 OA
HETATM   21  H   LIG     1      25.476  22.829  27.719  1.00  0.00     0.217 HD
ENDBRANCH   1  20
TORSDOF 1
ENDMDL
MODEL 18
REMARK VINA RESULT:      -4.8     15.619     16.075
REMARK  1 active torsions:
REMARK  status: ('A' for Active; 'I' for Inactive)
REMARK    1  A    between atoms: O_1  and  C_2 
ROOT
HETATM    1  C   LIG     1      23.330  20.530  18.315  1.00  0.00     0.066 A 
HETATM    2  C   LIG     1      22.816  20.453  19.613  1.00  0.00     0.048 A 
HETATM    3  C   LIG     1      23.463  21.107  20.674  1.00  0.00    -0.023 A 
HETATM    4  C   LIG     1      22.933  21.023  21.967  1.00  0.00     0.013 A 
HETATM    5  C   LIG     1      23.557  21.667  23.028  1.00  0.00     0.009 A 
HETATM    6  C   LIG     1      24.740  22.389  22.822  1.00  0.00    -0.046 A 
HETATM    7  C   LIG     1      25.295  22.510  21.519  1.00  0.00    -0.040 A 
HETATM    8  C   LIG     1      26.612  23.282  21.295  1.00  0.00     0.041 C 
HETATM    9  C   LIG     1      27.277  23.910  22.554  1.00  0.00     0.022 C 
HETATM   10  C   LIG     1      26.898  23.137  23.827  1.00  0.00     0.025 C 
HETATM   11  C   LIG     1      27.497  21.704  23.812  1.00  0.00     0.024 C 
HETATM   12  C   LIG     1      25.373  23.182  23.930  1.00  0.00     0.035 C 
HETATM   13  C   LIG     1      25.059  22.896  25.401  1.00  0.00     0.018 C 
HETATM   14  C   LIG     1      26.183  23.628  26.153  1.00  0.00     0.080 C 
HETATM   15  C   LIG     1      27.265  23.771  25.127  1.00  0.00     0.136 C 
HETATM   16  O   LIG     1      28.344  24.300  25.350  1.00  0.00    -0.297 OA
HETATM   17  C   LIG     1      24.647  21.854  20.436  1.00  0.00    -0.019 A 
HETATM   18  C   LIG     1      25.147  21.919  19.115  1.00  0.00     0.015 A 
HETATM   19  C   LIG     1      24.492  21.263  18.071  1.00  0.00     0.037 A 
ENDROOT
BRANCH   1  20
HETATM   20  O   LIG     1      22.692  19.882  17.259  1.00  0.00    -0.361 OA
HETATM   21  H   LIG     1      21.916  19.250  17.415  1.00  0.00     0.217 HD
ENDBRANCH   1  20
TORSDOF 1
ENDMDL
MODEL 19
REMARK VINA RESULT:      -4.8     15.843     16.509
REMARK  1 active torsions:
REMARK  status: ('A' for Active; 'I' for Inactive)
REMARK    1  A    between atoms: O_1  and  C_2 
ROOT
HETATM    1  C   LIG     1      23.642  20.958  23.112  1.00  0.00     0.066 A 
HETATM    2  C   LIG     1      23.533  20.986  24.506  1.00  0.00     0.048 A 
HETATM    3  C   LIG     1      24.344  21.845  25.266  1.00  0.00    -0.023 A 
HETATM    4  C   LIG     1      24.220  21.863  26.659  1.00  0.00     0.013 A 
HETATM    5  C   LIG     1      25.010  22.710  27.428  1.00  0.00     0.009 A 
HETATM    6  C   LIG     1      25.961  23.539  26.818  1.00  0.00    -0.046 A 
HETATM    7  C   LIG     1      26.100  23.558  25.402  1.00  0.00    -0.040 A 
HETATM    8  C   LIG     1      27.164  24.451  24.731  1.00  0.00     0.041 C 
HETATM    9  C   LIG     1      28.052  25.311  25.676  1.00  0.00     0.022 C 
HETATM   10  C   LIG     1      28.171  24.668  27.067  1.00  0.00     0.025 C 
HETATM   11  C   LIG     1      28.957  23.329  26.999  1.00  0.00     0.024 C 
HETATM   12  C   LIG     1      26.749  24.539  27.614  1.00  0.00     0.035 C 
HETATM   13  C   LIG     1      26.911  24.407  29.131  1.00  0.00     0.018 C 
HETATM   14  C   LIG     1      28.075  25.362  29.447  1.00  0.00     0.080 C 
HETATM   15  C   LIG     1      28.787  25.504  28.138  1.00  0.00     0.136 C 
HETATM   16  O   LIG     1      29.790  26.184  27.984  1.00  0.00    -0.297 OA
HETATM   17  C   LIG     1      25.283  22.695  24.622  1.00  0.00    -0.019 A 
HETATM   18  C   LIG     1      25.374  22.650  23.212  1.00  0.00     0.015 A 
HETATM   19  C   LIG     1      24.560  21.790  22.471  1.00  0.00     0.037 A 
ENDROOT
BRANCH   1  20
HETATM   20  O   LIG     1      22.840  20.107  22.354  1.00  0.00    -0.361 OA
HETATM   21  H   LIG     1      22.999  19.975  21.362  1.00  0.00     0.217 HD
ENDBRANCH   1  20
TORSDOF 1
ENDMDL
MODEL 20
REMARK VINA RESULT:      -4.8     15.029     16.603
REMARK  1 active torsions:
REMARK  status: ('A' for Active; 'I' for Inactive)
REMARK    1  A    between atoms: O_1  and  C_2 
ROOT
HETATM    1  C   LIG     1      22.809  20.187  18.754  1.00  0.00     0.066 A 
HETATM    2  C   LIG     1      22.949  21.434  19.370  1.00  0.00     0.048 A 
HETATM    3  C   LIG     1      23.421  21.528  20.689  1.00  0.00    -0.023 A 
HETATM    4  C   LIG     1      23.559  22.784  21.289  1.00  0.00     0.013 A 
HETATM    5  C   LIG     1      24.029  22.897  22.592  1.00  0.00     0.009 A 
HETATM    6  C   LIG     1      24.347  21.750  23.332  1.00  0.00    -0.046 A 
HETATM    7  C   LIG     1      24.235  20.459  22.747  1.00  0.00    -0.040 A 
HETATM    8  C   LIG     1      24.559  19.195  23.568  1.00  0.00     0.041 C 
HETATM    9  C   LIG     1      25.009  19.414  25.042  1.00  0.00     0.022 C 
HETATM   10  C   LIG     1      24.446  20.728  25.606  1.00  0.00     0.025 C 
HETATM   11  C   LIG     1      22.899  20.664  25.735  1.00  0.00     0.024 C 
HETATM   12  C   LIG     1      24.957  21.849  24.701  1.00  0.00     0.035 C 
HETATM   13  C   LIG     1      24.845  23.127  25.538  1.00  0.00     0.018 C 
HETATM   14  C   LIG     1      25.232  22.660  26.951  1.00  0.00     0.080 C 
HETATM   15  C   LIG     1      24.994  21.182  26.917  1.00  0.00     0.136 C 
HETATM   16  O   LIG     1      25.178  20.444  27.873  1.00  0.00    -0.297 OA
HETATM   17  C   LIG     1      23.761  20.352  21.410  1.00  0.00    -0.019 A 
HETATM   18  C   LIG     1      23.612  19.102  20.767  1.00  0.00     0.015 A 
HETATM   19  C   LIG     1      23.142  19.026  19.454  1.00  0.00     0.037 A 
ENDROOT
BRANCH   1  20
HETATM   20  O   LIG     1      22.341  20.088  17.445  1.00  0.00    -0.361 OA
HETATM   21  H   LIG     1      22.795  20.575  16.682  1.00  0.00     0.217 HD
ENDBRANCH   1  20
TORSDOF 1
ENDMDL
