REMARK  1 active torsions:
REMARK  status: ('A' for Active; 'I' for Inactive)
REMARK    1  A    between atoms: O_1  and  C_2 
ROOT
HETATM    1  C   LIG     1       4.721   0.072  -0.521  1.00  0.00     0.066 A 
HETATM    2  C   LIG     1       4.014  -0.164   0.662  1.00  0.00     0.048 A 
HETATM    3  C   LIG     1       2.613  -0.262   0.646  1.00  0.00    -0.023 A 
HETATM    4  C   LIG     1       1.921  -0.502   1.838  1.00  0.00     0.013 A 
HETATM    5  C   LIG     1       0.535  -0.606   1.841  1.00  0.00     0.009 A 
HETATM    6  C   LIG     1      -0.190  -0.446   0.653  1.00  0.00    -0.046 A 
HETATM    7  C   LIG     1       0.483  -0.219  -0.579  1.00  0.00    -0.040 A 
HETATM    8  C   LIG     1      -0.315  -0.016  -1.883  1.00  0.00     0.041 C 
HETATM    9  C   LIG     1      -1.866  -0.078  -1.771  1.00  0.00     0.022 C 
HETATM   10  C   LIG     1      -2.338   0.315  -0.362  1.00  0.00     0.025 C 
HETATM   11  C   LIG     1      -2.042   1.812  -0.070  1.00  0.00     0.024 C 
HETATM   12  C   LIG     1      -1.676  -0.661   0.611  1.00  0.00     0.035 C 
HETATM   13  C   LIG     1      -2.530  -0.606   1.881  1.00  0.00     0.018 C 
HETATM   14  C   LIG     1      -3.963  -0.475   1.339  1.00  0.00     0.080 C 
HETATM   15  C   LIG     1      -3.774   0.064  -0.045  1.00  0.00     0.136 C 
HETATM   16  O   LIG     1      -4.697   0.319  -0.804  1.00  0.00    -0.297 OA
HETATM   17  C   LIG     1       1.902  -0.121  -0.576  1.00  0.00    -0.019 A 
HETATM   18  C   LIG     1       2.638   0.116  -1.759  1.00  0.00     0.015 A 
HETATM   19  C   LIG     1       4.031   0.210  -1.726  1.00  0.00     0.037 A 
ENDROOT
BRANCH   1  20
HETATM   20  O   LIG     1       6.111   0.170  -0.511  1.00  0.00    -0.361 OA
HETATM   21  H   LIG     1       6.643   0.074   0.346  1.00  0.00     0.217 HD
ENDBRANCH   1  20
TORSDOF 1
