REMARK  5 active torsions:
REMARK  status: ('A' for Active; 'I' for Inactive)
REMARK    1  A    between atoms: C_2  and  C_3 
REMARK    2  A    between atoms: C_2  and  O_15 
REMARK    3  A    between atoms: C_4  and  C_5 
REMARK    4  A    between atoms: C_9  and  O_10 
REMARK    5  A    between atoms: C_12  and  O_13 
ROOT
HETATM    1  C   LIG     1      -1.448   0.314  -0.097  1.00  0.00     0.087 A 
HETATM    2  C   LIG     1      -1.823  -0.904  -0.718  1.00  0.00     0.021 A 
HETATM    3  C   LIG     1      -0.829  -1.831  -1.057  1.00  0.00     0.018 A 
HETATM    4  C   LIG     1       0.509  -1.577  -0.777  1.00  0.00     0.040 A 
HETATM    5  C   LIG     1       0.901  -0.381  -0.151  1.00  0.00     0.102 A 
HETATM    6  C   LIG     1      -0.087   0.580   0.186  1.00  0.00     0.119 A 
ENDROOT
BRANCH   1   7
HETATM    7  C   LIG     1      -2.460   1.343   0.239  1.00  0.00     0.180 C 
HETATM    8  O   LIG     1      -3.242   1.771  -0.651  1.00  0.00    -0.646 OA
BRANCH   7   9
HETATM    9  O   LIG     1      -2.547   1.862   1.528  1.00  0.00    -0.773 OA
HETATM   10  H   LIG     1      -1.961   1.514   2.277  1.00  0.00     0.167 HD
ENDBRANCH   7   9
ENDBRANCH   1   7
BRANCH   2  11
HETATM   11  C   LIG     1      -3.244  -1.247  -0.973  1.00  0.00     0.271 C 
HETATM   12  O   LIG     1      -3.556  -2.272  -1.637  1.00  0.00    -0.301 OA
ENDBRANCH   2  11
BRANCH   6  13
HETATM   13  O   LIG     1       0.218   1.821   0.783  1.00  0.00    -0.352 OA
HETATM   14  C   LIG     1       1.506   2.299   1.152  1.00  0.00     0.210 C 
ENDBRANCH   6  13
BRANCH   5  15
HETATM   15  O   LIG     1       2.253  -0.132   0.135  1.00  0.00    -0.353 OA
HETATM   16  C   LIG     1       3.328  -1.019  -0.157  1.00  0.00     0.210 C 
ENDBRANCH   5  15
TORSDOF 5
