MODEL 1
REMARK VINA RESULT:      -6.3      0.000      0.000
REMARK  5 active torsions:
REMARK  status: ('A' for Active; 'I' for Inactive)
REMARK    1  A    between atoms: C_2  and  C_3 
REMARK    2  A    between atoms: C_2  and  O_15 
REMARK    3  A    between atoms: C_4  and  C_5 
REMARK    4  A    between atoms: C_9  and  O_10 
REMARK    5  A    between atoms: C_12  and  O_13 
ROOT
HETATM    1  C   LIG     1      18.189  37.411  20.823  1.00  0.00     0.087 A 
HETATM    2  C   LIG     1      18.429  38.806  20.904  1.00  0.00     0.021 A 
HETATM    3  C   LIG     1      18.038  39.500  22.057  1.00  0.00     0.018 A 
HETATM    4  C   LIG     1      17.437  38.835  23.120  1.00  0.00     0.040 A 
HETATM    5  C   LIG     1      17.201  37.450  23.065  1.00  0.00     0.102 A 
HETATM    6  C   LIG     1      17.573  36.730  21.900  1.00  0.00     0.119 A 
ENDROOT
BRANCH   1   7
HETATM    7  C   LIG     1      18.545  36.645  19.606  1.00  0.00     0.180 C 
HETATM    8  O   LIG     1      17.655  36.350  18.765  1.00  0.00    -0.646 OA
BRANCH   7   9
HETATM    9  O   LIG     1      19.854  36.225  19.386  1.00  0.00    -0.773 OA
HETATM   10  H   LIG     1      20.631  36.642  19.884  1.00  0.00     0.167 HD
ENDBRANCH   7   9
ENDBRANCH   1   7
BRANCH   2  11
HETATM   11  C   LIG     1      19.129  39.544  19.823  1.00  0.00     0.271 C 
HETATM   12  O   LIG     1      20.358  39.366  19.606  1.00  0.00    -0.301 OA
ENDBRANCH   2  11
BRANCH   6  13
HETATM   13  O   LIG     1      17.343  35.348  21.743  1.00  0.00    -0.352 OA
HETATM   14  C   LIG     1      16.091  34.710  21.517  1.00  0.00     0.210 C 
ENDBRANCH   6  13
BRANCH   5  15
HETATM   15  O   LIG     1      16.599  36.783  24.144  1.00  0.00    -0.353 OA
HETATM   16  C   LIG     1      17.301  36.129  25.196  1.00  0.00     0.210 C 
ENDBRANCH   5  15
TORSDOF 5
ENDMDL
MODEL 2
REMARK VINA RESULT:      -6.0      7.157      9.988
REMARK  5 active torsions:
REMARK  status: ('A' for Active; 'I' for Inactive)
REMARK    1  A    between atoms: C_2  and  C_3 
REMARK    2  A    between atoms: C_2  and  O_15 
REMARK    3  A    between atoms: C_4  and  C_5 
REMARK    4  A    between atoms: C_9  and  O_10 
REMARK    5  A    between atoms: C_12  and  O_13 
ROOT
HETATM    1  C   LIG     1      14.474  31.416  15.873  1.00  0.00     0.087 A 
HETATM    2  C   LIG     1      14.233  30.554  14.774  1.00  0.00     0.021 A 
HETATM    3  C   LIG     1      15.080  30.617  13.659  1.00  0.00     0.018 A 
HETATM    4  C   LIG     1      16.155  31.498  13.629  1.00  0.00     0.040 A 
HETATM    5  C   LIG     1      16.418  32.354  14.713  1.00  0.00     0.102 A 
HETATM    6  C   LIG     1      15.563  32.319  15.845  1.00  0.00     0.119 A 
ENDROOT
BRANCH   1   7
HETATM    7  C   LIG     1      13.578  31.416  17.054  1.00  0.00     0.180 C 
HETATM    8  O   LIG     1      13.870  30.724  18.065  1.00  0.00    -0.646 OA
BRANCH   7   9
HETATM    9  O   LIG     1      12.401  32.159  17.055  1.00  0.00    -0.773 OA
HETATM   10  H   LIG     1      11.871  32.307  16.205  1.00  0.00     0.167 HD
ENDBRANCH   7   9
ENDBRANCH   1   7
BRANCH   2  11
HETATM   11  C   LIG     1      13.141  29.550  14.791  1.00  0.00     0.271 C 
HETATM   12  O   LIG     1      13.179  28.534  14.046  1.00  0.00    -0.301 OA
ENDBRANCH   2  11
BRANCH   6  13
HETATM   13  O   LIG     1      15.730  33.165  16.961  1.00  0.00    -0.352 OA
HETATM   14  C   LIG     1      15.155  34.452  17.153  1.00  0.00     0.210 C 
ENDBRANCH   6  13
BRANCH   5  15
HETATM   15  O   LIG     1      17.508  33.238  14.679  1.00  0.00    -0.353 OA
HETATM   16  C   LIG     1      18.007  33.877  13.509  1.00  0.00     0.210 C 
ENDBRANCH   5  15
TORSDOF 5
ENDMDL
MODEL 3
REMARK VINA RESULT:      -5.9      1.800      5.335
REMARK  5 active torsions:
REMARK  status: ('A' for Active; 'I' for Inactive)
REMARK    1  A    between atoms: C_2  and  C_3 
REMARK    2  A    between atoms: C_2  and  O_15 
REMARK    3  A    between atoms: C_4  and  C_5 
REMARK    4  A    between atoms: C_9  and  O_10 
REMARK    5  A    between atoms: C_12  and  O_13 
ROOT
HETATM    1  C   LIG     1      17.436  36.852  23.881  1.00  0.00     0.087 A 
HETATM    2  C   LIG     1      17.138  35.479  24.066  1.00  0.00     0.021 A 
HETATM    3  C   LIG     1      16.953  34.664  22.942  1.00  0.00     0.018 A 
HETATM    4  C   LIG     1      17.075  35.181  21.658  1.00  0.00     0.040 A 
HETATM    5  C   LIG     1      17.382  36.537  21.452  1.00  0.00     0.102 A 
HETATM    6  C   LIG     1      17.557  37.386  22.575  1.00  0.00     0.119 A 
ENDROOT
BRANCH   1   7
HETATM    7  C   LIG     1      17.596  37.762  25.040  1.00  0.00     0.180 C 
HETATM    8  O   LIG     1      16.706  38.617  25.296  1.00  0.00    -0.646 OA
BRANCH   7   9
HETATM    9  O   LIG     1      18.731  37.700  25.843  1.00  0.00    -0.773 OA
HETATM   10  H   LIG     1      18.753  37.131  26.681  1.00  0.00     0.167 HD
ENDBRANCH   7   9
ENDBRANCH   1   7
BRANCH   2  11
HETATM   11  C   LIG     1      17.066  34.869  25.417  1.00  0.00     0.271 C 
HETATM   12  O   LIG     1      18.107  34.693  26.107  1.00  0.00    -0.301 OA
ENDBRANCH   2  11
BRANCH   6  13
HETATM   13  O   LIG     1      17.831  38.765  22.464  1.00  0.00    -0.352 OA
HETATM   14  C   LIG     1      19.028  39.362  21.981  1.00  0.00     0.210 C 
ENDBRANCH   6  13
BRANCH   5  15
HETATM   15  O   LIG     1      17.510  37.053  20.152  1.00  0.00    -0.353 OA
HETATM   16  C   LIG     1      18.675  36.946  19.340  1.00  0.00     0.210 C 
ENDBRANCH   5  15
TORSDOF 5
ENDMDL
MODEL 4
REMARK VINA RESULT:      -5.7      1.730      4.314
REMARK  5 active torsions:
REMARK  status: ('A' for Active; 'I' for Inactive)
REMARK    1  A    between atoms: C_2  and  C_3 
REMARK    2  A    between atoms: C_2  and  O_15 
REMARK    3  A    between atoms: C_4  and  C_5 
REMARK    4  A    between atoms: C_9  and  O_10 
REMARK    5  A    between atoms: C_12  and  O_13 
ROOT
HETATM    1  C   LIG     1      17.569  37.486  22.882  1.00  0.00     0.087 A 
HETATM    2  C   LIG     1      17.454  36.982  24.202  1.00  0.00     0.021 A 
HETATM    3  C   LIG     1      17.109  35.638  24.391  1.00  0.00     0.018 A 
HETATM    4  C   LIG     1      16.897  34.796  23.304  1.00  0.00     0.040 A 
HETATM    5  C   LIG     1      17.017  35.273  21.988  1.00  0.00     0.102 A 
HETATM    6  C   LIG     1      17.349  36.636  21.773  1.00  0.00     0.119 A 
ENDROOT
BRANCH   1   7
HETATM    7  C   LIG     1      17.888  38.912  22.635  1.00  0.00     0.180 C 
HETATM    8  O   LIG     1      17.002  39.793  22.798  1.00  0.00    -0.646 OA
BRANCH   7   9
HETATM    9  O   LIG     1      19.155  39.294  22.202  1.00  0.00    -0.773 OA
HETATM   10  H   LIG     1      19.825  39.712  22.837  1.00  0.00     0.167 HD
ENDBRANCH   7   9
ENDBRANCH   1   7
BRANCH   2  11
HETATM   11  C   LIG     1      17.738  37.825  25.389  1.00  0.00     0.271 C 
HETATM   12  O   LIG     1      16.858  38.590  25.869  1.00  0.00    -0.301 OA
ENDBRANCH   2  11
BRANCH   6  13
HETATM   13  O   LIG     1      17.457  37.209  20.488  1.00  0.00    -0.352 OA
HETATM   14  C   LIG     1      18.530  37.050  19.568  1.00  0.00     0.210 C 
ENDBRANCH   6  13
BRANCH   5  15
HETATM   15  O   LIG     1      16.808  34.417  20.894  1.00  0.00    -0.353 OA
HETATM   16  C   LIG     1      15.558  33.835  20.538  1.00  0.00     0.210 C 
ENDBRANCH   5  15
TORSDOF 5
ENDMDL
MODEL 5
REMARK VINA RESULT:      -5.7      6.790      9.220
REMARK  5 active torsions:
REMARK  status: ('A' for Active; 'I' for Inactive)
REMARK    1  A    between atoms: C_2  and  C_3 
REMARK    2  A    between atoms: C_2  and  O_15 
REMARK    3  A    between atoms: C_4  and  C_5 
REMARK    4  A    between atoms: C_9  and  O_10 
REMARK    5  A    between atoms: C_12  and  O_13 
ROOT
HETATM    1  C   LIG     1      15.035  31.433  15.066  1.00  0.00     0.087 A 
HETATM    2  C   LIG     1      13.852  30.711  15.360  1.00  0.00     0.021 A 
HETATM    3  C   LIG     1      13.292  30.812  16.641  1.00  0.00     0.018 A 
HETATM    4  C   LIG     1      13.872  31.620  17.612  1.00  0.00     0.040 A 
HETATM    5  C   LIG     1      15.039  32.354  17.337  1.00  0.00     0.102 A 
HETATM    6  C   LIG     1      15.633  32.254  16.052  1.00  0.00     0.119 A 
ENDROOT
BRANCH   1   7
HETATM    7  C   LIG     1      15.688  31.323  13.740  1.00  0.00     0.180 C 
HETATM    8  O   LIG     1      16.086  30.202  13.326  1.00  0.00    -0.646 OA
BRANCH   7   9
HETATM    9  O   LIG     1      15.886  32.450  12.948  1.00  0.00    -0.773 OA
HETATM   10  H   LIG     1      15.442  32.543  12.042  1.00  0.00     0.167 HD
ENDBRANCH   7   9
ENDBRANCH   1   7
BRANCH   2  11
HETATM   11  C   LIG     1      13.160  29.891  14.335  1.00  0.00     0.271 C 
HETATM   12  O   LIG     1      13.338  28.645  14.271  1.00  0.00    -0.301 OA
ENDBRANCH   2  11
BRANCH   6  13
HETATM   13  O   LIG     1      16.822  32.926  15.700  1.00  0.00    -0.352 OA
HETATM   14  C   LIG     1      16.977  34.318  15.453  1.00  0.00     0.210 C 
ENDBRANCH   6  13
BRANCH   5  15
HETATM   15  O   LIG     1      15.617  33.174  18.319  1.00  0.00    -0.353 OA
HETATM   16  C   LIG     1      15.429  33.026  19.723  1.00  0.00     0.210 C 
ENDBRANCH   5  15
TORSDOF 5
ENDMDL
MODEL 6
REMARK VINA RESULT:      -5.7      1.473      3.534
REMARK  5 active torsions:
REMARK  status: ('A' for Active; 'I' for Inactive)
REMARK    1  A    between atoms: C_2  and  C_3 
REMARK    2  A    between atoms: C_2  and  O_15 
REMARK    3  A    between atoms: C_4  and  C_5 
REMARK    4  A    between atoms: C_9  and  O_10 
REMARK    5  A    between atoms: C_12  and  O_13 
ROOT
HETATM    1  C   LIG     1      17.811  37.871  21.893  1.00  0.00     0.087 A 
HETATM    2  C   LIG     1      18.395  38.124  20.626  1.00  0.00     0.021 A 
HETATM    3  C   LIG     1      18.273  37.162  19.615  1.00  0.00     0.018 A 
HETATM    4  C   LIG     1      17.577  35.979  19.835  1.00  0.00     0.040 A 
HETATM    5  C   LIG     1      16.980  35.713  21.080  1.00  0.00     0.102 A 
HETATM    6  C   LIG     1      17.105  36.666  22.124  1.00  0.00     0.119 A 
ENDROOT
BRANCH   1   7
HETATM    7  C   LIG     1      17.951  38.839  23.006  1.00  0.00     0.180 C 
HETATM    8  O   LIG     1      19.061  38.974  23.586  1.00  0.00    -0.646 OA
BRANCH   7   9
HETATM    9  O   LIG     1      16.863  39.593  23.435  1.00  0.00    -0.773 OA
HETATM   10  H   LIG     1      16.454  39.454  24.352  1.00  0.00     0.167 HD
ENDBRANCH   7   9
ENDBRANCH   1   7
BRANCH   2  11
HETATM   11  C   LIG     1      19.087  39.401  20.325  1.00  0.00     0.271 C 
HETATM   12  O   LIG     1      20.198  39.413  19.730  1.00  0.00    -0.301 OA
ENDBRANCH   2  11
BRANCH   6  13
HETATM   13  O   LIG     1      16.570  36.468  23.414  1.00  0.00    -0.352 OA
HETATM   14  C   LIG     1      17.172  35.758  24.490  1.00  0.00     0.210 C 
ENDBRANCH   6  13
BRANCH   5  15
HETATM   15  O   LIG     1      16.273  34.519  21.296  1.00  0.00    -0.353 OA
HETATM   16  C   LIG     1      15.657  33.738  20.277  1.00  0.00     0.210 C 
ENDBRANCH   5  15
TORSDOF 5
ENDMDL
MODEL 7
REMARK VINA RESULT:      -5.4      1.517      4.232
REMARK  5 active torsions:
REMARK  status: ('A' for Active; 'I' for Inactive)
REMARK    1  A    between atoms: C_2  and  C_3 
REMARK    2  A    between atoms: C_2  and  O_15 
REMARK    3  A    between atoms: C_4  and  C_5 
REMARK    4  A    between atoms: C_9  and  O_10 
REMARK    5  A    between atoms: C_12  and  O_13 
ROOT
HETATM    1  C   LIG     1      17.204  36.633  22.383  1.00  0.00     0.087 A 
HETATM    2  C   LIG     1      17.441  37.754  23.218  1.00  0.00     0.021 A 
HETATM    3  C   LIG     1      18.063  38.887  22.678  1.00  0.00     0.018 A 
HETATM    4  C   LIG     1      18.431  38.929  21.338  1.00  0.00     0.040 A 
HETATM    5  C   LIG     1      18.195  37.833  20.490  1.00  0.00     0.102 A 
HETATM    6  C   LIG     1      17.582  36.668  21.019  1.00  0.00     0.119 A 
ENDROOT
BRANCH   1   7
HETATM    7  C   LIG     1      16.590  35.396  22.920  1.00  0.00     0.180 C 
HETATM    8  O   LIG     1      17.137  34.786  23.877  1.00  0.00    -0.646 OA
BRANCH   7   9
HETATM    9  O   LIG     1      15.420  34.884  22.367  1.00  0.00    -0.773 OA
HETATM   10  H   LIG     1      15.038  33.996  22.671  1.00  0.00     0.167 HD
ENDBRANCH   7   9
ENDBRANCH   1   7
BRANCH   2  11
HETATM   11  C   LIG     1      17.003  37.780  24.635  1.00  0.00     0.271 C 
HETATM   12  O   LIG     1      17.121  38.822  25.333  1.00  0.00    -0.301 OA
ENDBRANCH   2  11
BRANCH   6  13
HETATM   13  O   LIG     1      17.339  35.510  20.252  1.00  0.00    -0.352 OA
HETATM   14  C   LIG     1      16.208  35.252  19.427  1.00  0.00     0.210 C 
ENDBRANCH   6  13
BRANCH   5  15
HETATM   15  O   LIG     1      18.564  37.883  19.136  1.00  0.00    -0.353 OA
HETATM   16  C   LIG     1      19.127  39.016  18.483  1.00  0.00     0.210 C 
ENDBRANCH   5  15
TORSDOF 5
ENDMDL
MODEL 8
REMARK VINA RESULT:      -5.4      6.943      9.213
REMARK  5 active torsions:
REMARK  status: ('A' for Active; 'I' for Inactive)
REMARK    1  A    between atoms: C_2  and  C_3 
REMARK    2  A    between atoms: C_2  and  O_15 
REMARK    3  A    between atoms: C_4  and  C_5 
REMARK    4  A    between atoms: C_9  and  O_10 
REMARK    5  A    between atoms: C_12  and  O_13 
ROOT
HETATM    1  C   LIG     1      15.514  32.604  15.711  1.00  0.00     0.087 A 
HETATM    2  C   LIG     1      16.455  33.012  14.732  1.00  0.00     0.021 A 
HETATM    3  C   LIG     1      16.619  32.235  13.578  1.00  0.00     0.018 A 
HETATM    4  C   LIG     1      15.862  31.086  13.378  1.00  0.00     0.040 A 
HETATM    5  C   LIG     1      14.916  30.670  14.331  1.00  0.00     0.102 A 
HETATM    6  C   LIG     1      14.745  31.433  15.515  1.00  0.00     0.119 A 
ENDROOT
BRANCH   1   7
HETATM    7  C   LIG     1      15.338  33.371  16.967  1.00  0.00     0.180 C 
HETATM    8  O   LIG     1      14.924  34.559  16.926  1.00  0.00    -0.646 OA
BRANCH   7   9
HETATM    9  O   LIG     1      15.646  32.799  18.199  1.00  0.00    -0.773 OA
HETATM   10  H   LIG     1      16.522  32.314  18.351  1.00  0.00     0.167 HD
ENDBRANCH   7   9
ENDBRANCH   1   7
BRANCH   2  11
HETATM   11  C   LIG     1      17.234  34.267  14.871  1.00  0.00     0.271 C 
HETATM   12  O   LIG     1      17.529  34.964  13.862  1.00  0.00    -0.301 OA
ENDBRANCH   2  11
BRANCH   6  13
HETATM   13  O   LIG     1      13.845  31.072  16.540  1.00  0.00    -0.352 OA
HETATM   14  C   LIG     1      12.469  31.419  16.631  1.00  0.00     0.210 C 
ENDBRANCH   6  13
BRANCH   5  15
HETATM   15  O   LIG     1      14.150  29.512  14.122  1.00  0.00    -0.353 OA
HETATM   16  C   LIG     1      14.678  28.226  13.813  1.00  0.00     0.210 C 
ENDBRANCH   5  15
TORSDOF 5
ENDMDL
MODEL 9
REMARK VINA RESULT:      -5.3      1.626      3.509
REMARK  5 active torsions:
REMARK  status: ('A' for Active; 'I' for Inactive)
REMARK    1  A    between atoms: C_2  and  C_3 
REMARK    2  A    between atoms: C_2  and  O_15 
REMARK    3  A    between atoms: C_4  and  C_5 
REMARK    4  A    between atoms: C_9  and  O_10 
REMARK    5  A    between atoms: C_12  and  O_13 
ROOT
HETATM    1  C   LIG     1      17.395  36.651  20.491  1.00  0.00     0.087 A 
HETATM    2  C   LIG     1      16.263  35.800  20.538  1.00  0.00     0.021 A 
HETATM    3  C   LIG     1      15.378  35.902  21.620  1.00  0.00     0.018 A 
HETATM    4  C   LIG     1      15.590  36.834  22.630  1.00  0.00     0.040 A 
HETATM    5  C   LIG     1      16.700  37.695  22.596  1.00  0.00     0.102 A 
HETATM    6  C   LIG     1      17.619  37.598  21.519  1.00  0.00     0.119 A 
ENDROOT
BRANCH   1   7
HETATM    7  C   LIG     1      18.381  36.549  19.389  1.00  0.00     0.180 C 
HETATM    8  O   LIG     1      18.010  36.704  18.196  1.00  0.00    -0.646 OA
BRANCH   7   9
HETATM    9  O   LIG     1      19.718  36.263  19.655  1.00  0.00    -0.773 OA
HETATM   10  H   LIG     1      20.431  36.366  18.943  1.00  0.00     0.167 HD
ENDBRANCH   7   9
ENDBRANCH   1   7
BRANCH   2  11
HETATM   11  C   LIG     1      15.960  34.839  19.449  1.00  0.00     0.271 C 
HETATM   12  O   LIG     1      15.762  33.619  19.695  1.00  0.00    -0.301 OA
ENDBRANCH   2  11
BRANCH   6  13
HETATM   13  O   LIG     1      18.777  38.396  21.421  1.00  0.00    -0.352 OA
HETATM   14  C   LIG     1      18.908  39.633  20.730  1.00  0.00     0.210 C 
ENDBRANCH   6  13
BRANCH   5  15
HETATM   15  O   LIG     1      16.906  38.638  23.615  1.00  0.00    -0.353 OA
HETATM   16  C   LIG     1      17.389  38.340  24.921  1.00  0.00     0.210 C 
ENDBRANCH   5  15
TORSDOF 5
ENDMDL
MODEL 10
REMARK VINA RESULT:      -5.2      7.575      9.924
REMARK  5 active torsions:
REMARK  status: ('A' for Active; 'I' for Inactive)
REMARK    1  A    between atoms: C_2  and  C_3 
REMARK    2  A    between atoms: C_2  and  O_15 
REMARK    3  A    between atoms: C_4  and  C_5 
REMARK    4  A    between atoms: C_9  and  O_10 
REMARK    5  A    between atoms: C_12  and  O_13 
ROOT
HETATM    1  C   LIG     1      15.209  31.722  15.221  1.00  0.00     0.087 A 
HETATM    2  C   LIG     1      14.544  32.303  16.330  1.00  0.00     0.021 A 
HETATM    3  C   LIG     1      13.345  31.734  16.779  1.00  0.00     0.018 A 
HETATM    4  C   LIG     1      12.815  30.605  16.164  1.00  0.00     0.040 A 
HETATM    5  C   LIG     1      13.466  30.007  15.070  1.00  0.00     0.102 A 
HETATM    6  C   LIG     1      14.673  30.576  14.587  1.00  0.00     0.119 A 
ENDROOT
BRANCH   1   7
HETATM    7  C   LIG     1      16.456  32.316  14.683  1.00  0.00     0.180 C 
HETATM    8  O   LIG     1      17.567  32.023  15.200  1.00  0.00    -0.646 OA
BRANCH   7   9
HETATM    9  O   LIG     1      16.416  33.214  13.620  1.00  0.00    -0.773 OA
HETATM   10  H   LIG     1      16.702  32.940  12.687  1.00  0.00     0.167 HD
ENDBRANCH   7   9
ENDBRANCH   1   7
BRANCH   2  11
HETATM   11  C   LIG     1      15.107  33.465  17.060  1.00  0.00     0.271 C 
HETATM   12  O   LIG     1      15.301  34.566  16.478  1.00  0.00    -0.301 OA
ENDBRANCH   2  11
BRANCH   6  13
HETATM   13  O   LIG     1      15.374  30.065  13.475  1.00  0.00    -0.352 OA
HETATM   14  C   LIG     1      15.679  28.701  13.210  1.00  0.00     0.210 C 
ENDBRANCH   6  13
BRANCH   5  15
HETATM   15  O   LIG     1      12.930  28.864  14.456  1.00  0.00    -0.353 OA
HETATM   16  C   LIG     1      11.820  28.858  13.564  1.00  0.00     0.210 C 
ENDBRANCH   5  15
TORSDOF 5
ENDMDL
MODEL 11
REMARK VINA RESULT:      -5.2      6.612      9.530
REMARK  5 active torsions:
REMARK  status: ('A' for Active; 'I' for Inactive)
REMARK    1  A    between atoms: C_2  and  C_3 
REMARK    2  A    between atoms: C_2  and  O_15 
REMARK    3  A    between atoms: C_4  and  C_5 
REMARK    4  A    between atoms: C_9  and  O_10 
REMARK    5  A    between atoms: C_12  and  O_13 
ROOT
HETATM    1  C   LIG     1      15.327  32.297  16.116  1.00  0.00     0.087 A 
HETATM    2  C   LIG     1      14.413  31.278  15.748  1.00  0.00     0.021 A 
HETATM    3  C   LIG     1      14.549  30.659  14.498  1.00  0.00     0.018 A 
HETATM    4  C   LIG     1      15.574  31.020  13.631  1.00  0.00     0.040 A 
HETATM    5  C   LIG     1      16.498  32.020  13.982  1.00  0.00     0.102 A 
HETATM    6  C   LIG     1      16.369  32.672  15.235  1.00  0.00     0.119 A 
ENDROOT
BRANCH   1   7
HETATM    7  C   LIG     1      15.195  33.010  17.409  1.00  0.00     0.180 C 
HETATM    8  O   LIG     1      15.607  32.471  18.470  1.00  0.00    -0.646 OA
BRANCH   7   9
HETATM    9  O   LIG     1      14.601  34.268  17.471  1.00  0.00    -0.773 OA
HETATM   10  H   LIG     1      14.022  34.615  16.716  1.00  0.00     0.167 HD
ENDBRANCH   7   9
ENDBRANCH   1   7
BRANCH   2  11
HETATM   11  C   LIG     1      13.347  30.813  16.669  1.00  0.00     0.271 C 
HETATM   12  O   LIG     1      12.313  31.505  16.869  1.00  0.00    -0.301 OA
ENDBRANCH   2  11
BRANCH   6  13
HETATM   13  O   LIG     1      17.228  33.710  15.655  1.00  0.00    -0.352 OA
HETATM   14  C   LIG     1      17.186  35.072  15.248  1.00  0.00     0.210 C 
ENDBRANCH   6  13
BRANCH   5  15
HETATM   15  O   LIG     1      17.535  32.377  13.105  1.00  0.00    -0.353 OA
HETATM   16  C   LIG     1      17.632  33.620  12.416  1.00  0.00     0.210 C 
ENDBRANCH   5  15
TORSDOF 5
ENDMDL
MODEL 12
REMARK VINA RESULT:      -5.1      1.566      3.903
REMARK  5 active torsions:
REMARK  status: ('A' for Active; 'I' for Inactive)
REMARK    1  A    between atoms: C_2  and  C_3 
REMARK    2  A    between atoms: C_2  and  O_15 
REMARK    3  A    between atoms: C_4  and  C_5 
REMARK    4  A    between atoms: C_9  and  O_10 
REMARK    5  A    between atoms: C_12  and  O_13 
ROOT
HETATM    1  C   LIG     1      17.694  37.911  21.399  1.00  0.00     0.087 A 
HETATM    2  C   LIG     1      16.814  38.040  22.503  1.00  0.00     0.021 A 
HETATM    3  C   LIG     1      15.828  37.067  22.707  1.00  0.00     0.018 A 
HETATM    4  C   LIG     1      15.715  35.975  21.853  1.00  0.00     0.040 A 
HETATM    5  C   LIG     1      16.585  35.822  20.759  1.00  0.00     0.102 A 
HETATM    6  C   LIG     1      17.581  36.805  20.524  1.00  0.00     0.119 A 
ENDROOT
BRANCH   1   7
HETATM    7  C   LIG     1      18.724  38.939  21.119  1.00  0.00     0.180 C 
HETATM    8  O   LIG     1      19.647  39.148  21.950  1.00  0.00    -0.646 OA
BRANCH   7   9
HETATM    9  O   LIG     1      18.675  39.697  19.952  1.00  0.00    -0.773 OA
HETATM   10  H   LIG     1      18.803  39.272  19.042  1.00  0.00     0.167 HD
ENDBRANCH   7   9
ENDBRANCH   1   7
BRANCH   2  11
HETATM   11  C   LIG     1      16.942  39.151  23.479  1.00  0.00     0.271 C 
HETATM   12  O   LIG     1      16.884  38.935  24.720  1.00  0.00    -0.301 OA
ENDBRANCH   2  11
BRANCH   6  13
HETATM   13  O   LIG     1      18.473  36.751  19.432  1.00  0.00    -0.352 OA
HETATM   14  C   LIG     1      19.863  36.454  19.477  1.00  0.00     0.210 C 
ENDBRANCH   6  13
BRANCH   5  15
HETATM   15  O   LIG     1      16.471  34.715  19.903  1.00  0.00    -0.353 OA
HETATM   16  C   LIG     1      15.559  33.635  20.079  1.00  0.00     0.210 C 
ENDBRANCH   5  15
TORSDOF 5
ENDMDL
MODEL 13
REMARK VINA RESULT:      -5.1      6.135      8.428
REMARK  5 active torsions:
REMARK  status: ('A' for Active; 'I' for Inactive)
REMARK    1  A    between atoms: C_2  and  C_3 
REMARK    2  A    between atoms: C_2  and  O_15 
REMARK    3  A    between atoms: C_4  and  C_5 
REMARK    4  A    between atoms: C_9  and  O_10 
REMARK    5  A    between atoms: C_12  and  O_13 
ROOT
HETATM    1  C   LIG     1      15.735  32.312  15.675  1.00  0.00     0.087 A 
HETATM    2  C   LIG     1      15.135  31.358  14.815  1.00  0.00     0.021 A 
HETATM    3  C   LIG     1      14.133  30.520  15.320  1.00  0.00     0.018 A 
HETATM    4  C   LIG     1      13.712  30.626  16.641  1.00  0.00     0.040 A 
HETATM    5  C   LIG     1      14.285  31.573  17.507  1.00  0.00     0.102 A 
HETATM    6  C   LIG     1      15.314  32.421  17.022  1.00  0.00     0.119 A 
ENDROOT
BRANCH   1   7
HETATM    7  C   LIG     1      16.830  33.189  15.197  1.00  0.00     0.180 C 
HETATM    8  O   LIG     1      17.926  32.686  14.833  1.00  0.00    -0.646 OA
BRANCH   7   9
HETATM    9  O   LIG     1      16.672  34.572  15.164  1.00  0.00    -0.773 OA
HETATM   10  H   LIG     1      16.209  35.068  15.916  1.00  0.00     0.167 HD
ENDBRANCH   7   9
ENDBRANCH   1   7
BRANCH   2  11
HETATM   11  C   LIG     1      15.504  31.256  13.381  1.00  0.00     0.271 C 
HETATM   12  O   LIG     1      15.913  30.169  12.891  1.00  0.00    -0.301 OA
ENDBRANCH   2  11
BRANCH   6  13
HETATM   13  O   LIG     1      15.970  33.375  17.828  1.00  0.00    -0.352 OA
HETATM   14  C   LIG     1      15.432  34.599  18.314  1.00  0.00     0.210 C 
ENDBRANCH   6  13
BRANCH   5  15
HETATM   15  O   LIG     1      13.853  31.680  18.839  1.00  0.00    -0.353 OA
HETATM   16  C   LIG     1      14.626  31.328  19.981  1.00  0.00     0.210 C 
ENDBRANCH   5  15
TORSDOF 5
ENDMDL
MODEL 14
REMARK VINA RESULT:      -4.8      1.720      5.014
REMARK  5 active torsions:
REMARK  status: ('A' for Active; 'I' for Inactive)
REMARK    1  A    between atoms: C_2  and  C_3 
REMARK    2  A    between atoms: C_2  and  O_15 
REMARK    3  A    between atoms: C_4  and  C_5 
REMARK    4  A    between atoms: C_9  and  O_10 
REMARK    5  A    between atoms: C_12  and  O_13 
ROOT
HETATM    1  C   LIG     1      16.879  37.258  22.058  1.00  0.00     0.087 A 
HETATM    2  C   LIG     1      16.488  36.256  21.135  1.00  0.00     0.021 A 
HETATM    3  C   LIG     1      17.185  36.132  19.926  1.00  0.00     0.018 A 
HETATM    4  C   LIG     1      18.258  36.966  19.633  1.00  0.00     0.040 A 
HETATM    5  C   LIG     1      18.670  37.959  20.539  1.00  0.00     0.102 A 
HETATM    6  C   LIG     1      17.967  38.113  21.763  1.00  0.00     0.119 A 
ENDROOT
BRANCH   1   7
HETATM    7  C   LIG     1      16.143  37.454  23.329  1.00  0.00     0.180 C 
HETATM    8  O   LIG     1      16.562  36.917  24.389  1.00  0.00    -0.646 OA
BRANCH   7   9
HETATM    9  O   LIG     1      14.976  38.212  23.366  1.00  0.00    -0.773 OA
HETATM   10  H   LIG     1      14.108  37.826  23.717  1.00  0.00     0.167 HD
ENDBRANCH   7   9
ENDBRANCH   1   7
BRANCH   2  11
HETATM   11  C   LIG     1      15.394  35.299  21.435  1.00  0.00     0.271 C 
HETATM   12  O   LIG     1      15.626  34.210  22.025  1.00  0.00    -0.301 OA
ENDBRANCH   2  11
BRANCH   6  13
HETATM   13  O   LIG     1      18.287  39.104  22.715  1.00  0.00    -0.352 OA
HETATM   14  C   LIG     1      19.338  39.062  23.672  1.00  0.00     0.210 C 
ENDBRANCH   6  13
BRANCH   5  15
HETATM   15  O   LIG     1      19.758  38.794  20.241  1.00  0.00    -0.353 OA
HETATM   16  C   LIG     1      20.651  38.616  19.147  1.00  0.00     0.210 C 
ENDBRANCH   5  15
TORSDOF 5
ENDMDL
MODEL 15
REMARK VINA RESULT:      -4.8      7.566     10.399
REMARK  5 active torsions:
REMARK  status: ('A' for Active; 'I' for Inactive)
REMARK    1  A    between atoms: C_2  and  C_3 
REMARK    2  A    between atoms: C_2  and  O_15 
REMARK    3  A    between atoms: C_4  and  C_5 
REMARK    4  A    between atoms: C_9  and  O_10 
REMARK    5  A    between atoms: C_12  and  O_13 
ROOT
HETATM    1  C   LIG     1      14.833  31.623  15.716  1.00  0.00     0.087 A 
HETATM    2  C   LIG     1      13.533  31.123  15.978  1.00  0.00     0.021 A 
HETATM    3  C   LIG     1      13.044  30.057  15.210  1.00  0.00     0.018 A 
HETATM    4  C   LIG     1      13.823  29.480  14.214  1.00  0.00     0.040 A 
HETATM    5  C   LIG     1      15.120  29.952  13.946  1.00  0.00     0.102 A 
HETATM    6  C   LIG     1      15.629  31.042  14.699  1.00  0.00     0.119 A 
ENDROOT
BRANCH   1   7
HETATM    7  C   LIG     1      15.375  32.776  16.472  1.00  0.00     0.180 C 
HETATM    8  O   LIG     1      15.755  32.626  17.663  1.00  0.00    -0.646 OA
BRANCH   7   9
HETATM    9  O   LIG     1      15.451  34.038  15.888  1.00  0.00    -0.773 OA
HETATM   10  H   LIG     1      15.028  34.848  16.325  1.00  0.00     0.167 HD
ENDBRANCH   7   9
ENDBRANCH   1   7
BRANCH   2  11
HETATM   11  C   LIG     1      12.694  31.663  17.076  1.00  0.00     0.271 C 
HETATM   12  O   LIG     1      11.886  32.608  16.872  1.00  0.00    -0.301 OA
ENDBRANCH   2  11
BRANCH   6  13
HETATM   13  O   LIG     1      16.903  31.603  14.476  1.00  0.00    -0.352 OA
HETATM   14  C   LIG     1      17.251  32.568  13.490  1.00  0.00     0.210 C 
ENDBRANCH   6  13
BRANCH   5  15
HETATM   15  O   LIG     1      15.904  29.361  12.942  1.00  0.00    -0.353 OA
HETATM   16  C   LIG     1      15.886  27.980  12.596  1.00  0.00     0.210 C 
ENDBRANCH   5  15
TORSDOF 5
ENDMDL
MODEL 16
REMARK VINA RESULT:      -4.6      1.317      2.470
REMARK  5 active torsions:
REMARK  status: ('A' for Active; 'I' for Inactive)
REMARK    1  A    between atoms: C_2  and  C_3 
REMARK    2  A    between atoms: C_2  and  O_15 
REMARK    3  A    between atoms: C_4  and  C_5 
REMARK    4  A    between atoms: C_9  and  O_10 
REMARK    5  A    between atoms: C_12  and  O_13 
ROOT
HETATM    1  C   LIG     1      17.198  36.698  21.716  1.00  0.00     0.087 A 
HETATM    2  C   LIG     1      17.923  37.587  20.882  1.00  0.00     0.021 A 
HETATM    3  C   LIG     1      18.566  38.690  21.458  1.00  0.00     0.018 A 
HETATM    4  C   LIG     1      18.515  38.910  22.830  1.00  0.00     0.040 A 
HETATM    5  C   LIG     1      17.812  38.034  23.676  1.00  0.00     0.102 A 
HETATM    6  C   LIG     1      17.139  36.919  23.112  1.00  0.00     0.119 A 
ENDROOT
BRANCH   1   7
HETATM    7  C   LIG     1      16.466  35.543  21.145  1.00  0.00     0.180 C 
HETATM    8  O   LIG     1      17.064  34.452  20.951  1.00  0.00    -0.646 OA
BRANCH   7   9
HETATM    9  O   LIG     1      15.122  35.653  20.800  1.00  0.00    -0.773 OA
HETATM   10  H   LIG     1      14.800  35.446  19.862  1.00  0.00     0.167 HD
ENDBRANCH   7   9
ENDBRANCH   1   7
BRANCH   2  11
HETATM   11  C   LIG     1      18.062  37.354  19.423  1.00  0.00     0.271 C 
HETATM   12  O   LIG     1      18.936  36.566  18.972  1.00  0.00    -0.301 OA
ENDBRANCH   2  11
BRANCH   6  13
HETATM   13  O   LIG     1      16.381  36.009  23.879  1.00  0.00    -0.352 OA
HETATM   14  C   LIG     1      16.872  34.899  24.620  1.00  0.00     0.210 C 
ENDBRANCH   6  13
BRANCH   5  15
HETATM   15  O   LIG     1      17.768  38.257  25.061  1.00  0.00    -0.353 OA
HETATM   16  C   LIG     1      18.454  37.480  26.037  1.00  0.00     0.210 C 
ENDBRANCH   5  15
TORSDOF 5
ENDMDL
MODEL 17
REMARK VINA RESULT:      -4.3      1.871      2.590
REMARK  5 active torsions:
REMARK  status: ('A' for Active; 'I' for Inactive)
REMARK    1  A    between atoms: C_2  and  C_3 
REMARK    2  A    between atoms: C_2  and  O_15 
REMARK    3  A    between atoms: C_4  and  C_5 
REMARK    4  A    between atoms: C_9  and  O_10 
REMARK    5  A    between atoms: C_12  and  O_13 
ROOT
HETATM    1  C   LIG     1      17.604  36.836  20.471  1.00  0.00     0.087 A 
HETATM    2  C   LIG     1      17.711  37.881  21.423  1.00  0.00     0.021 A 
HETATM    3  C   LIG     1      16.739  37.992  22.426  1.00  0.00     0.018 A 
HETATM    4  C   LIG     1      15.688  37.085  22.505  1.00  0.00     0.040 A 
HETATM    5  C   LIG     1      15.570  36.034  21.578  1.00  0.00     0.102 A 
HETATM    6  C   LIG     1      16.534  35.912  20.544  1.00  0.00     0.119 A 
ENDROOT
BRANCH   1   7
HETATM    7  C   LIG     1      18.583  36.706  19.367  1.00  0.00     0.180 C 
HETATM    8  O   LIG     1      19.772  36.370  19.616  1.00  0.00    -0.646 OA
BRANCH   7   9
HETATM    9  O   LIG     1      18.213  36.971  18.051  1.00  0.00    -0.773 OA
HETATM   10  H   LIG     1      18.229  36.247  17.343  1.00  0.00     0.167 HD
ENDBRANCH   7   9
ENDBRANCH   1   7
BRANCH   2  11
HETATM   11  C   LIG     1      18.851  38.830  21.418  1.00  0.00     0.271 C 
HETATM   12  O   LIG     1      19.400  39.193  22.494  1.00  0.00    -0.301 OA
ENDBRANCH   2  11
BRANCH   6  13
HETATM   13  O   LIG     1      16.475  34.912  19.551  1.00  0.00    -0.352 OA
HETATM   14  C   LIG     1      15.494  34.777  18.531  1.00  0.00     0.210 C 
ENDBRANCH   6  13
BRANCH   5  15
HETATM   15  O   LIG     1      14.511  35.117  21.667  1.00  0.00    -0.353 OA
HETATM   16  C   LIG     1      14.644  33.702  21.570  1.00  0.00     0.210 C 
ENDBRANCH   5  15
TORSDOF 5
ENDMDL
MODEL 18
REMARK VINA RESULT:      -4.2      6.817      9.380
REMARK  5 active torsions:
REMARK  status: ('A' for Active; 'I' for Inactive)
REMARK    1  A    between atoms: C_2  and  C_3 
REMARK    2  A    between atoms: C_2  and  O_15 
REMARK    3  A    between atoms: C_4  and  C_5 
REMARK    4  A    between atoms: C_9  and  O_10 
REMARK    5  A    between atoms: C_12  and  O_13 
ROOT
HETATM    1  C   LIG     1      15.325  31.501  15.086  1.00  0.00     0.087 A 
HETATM    2  C   LIG     1      14.242  31.585  15.996  1.00  0.00     0.021 A 
HETATM    3  C   LIG     1      14.157  32.687  16.857  1.00  0.00     0.018 A 
HETATM    4  C   LIG     1      15.109  33.700  16.814  1.00  0.00     0.040 A 
HETATM    5  C   LIG     1      16.184  33.643  15.911  1.00  0.00     0.102 A 
HETATM    6  C   LIG     1      16.300  32.527  15.042  1.00  0.00     0.119 A 
ENDROOT
BRANCH   1   7
HETATM    7  C   LIG     1      15.480  30.333  14.188  1.00  0.00     0.180 C 
HETATM    8  O   LIG     1      16.004  29.272  14.620  1.00  0.00    -0.646 OA
BRANCH   7   9
HETATM    9  O   LIG     1      15.069  30.396  12.859  1.00  0.00    -0.773 OA
HETATM   10  H   LIG     1      14.307  29.826  12.515  1.00  0.00     0.167 HD
ENDBRANCH   7   9
ENDBRANCH   1   7
BRANCH   2  11
HETATM   11  C   LIG     1      13.167  30.563  16.029  1.00  0.00     0.271 C 
HETATM   12  O   LIG     1      12.205  30.656  16.839  1.00  0.00    -0.301 OA
ENDBRANCH   2  11
BRANCH   6  13
HETATM   13  O   LIG     1      17.363  32.369  14.129  1.00  0.00    -0.352 OA
HETATM   14  C   LIG     1      17.500  32.993  12.858  1.00  0.00     0.210 C 
ENDBRANCH   6  13
BRANCH   5  15
HETATM   15  O   LIG     1      17.140  34.671  15.868  1.00  0.00    -0.353 OA
HETATM   16  C   LIG     1      17.279  35.615  14.811  1.00  0.00     0.210 C 
ENDBRANCH   5  15
TORSDOF 5
ENDMDL
MODEL 19
REMARK VINA RESULT:      -3.8     16.862     17.750
REMARK  5 active torsions:
REMARK  status: ('A' for Active; 'I' for Inactive)
REMARK    1  A    between atoms: C_2  and  C_3 
REMARK    2  A    between atoms: C_2  and  O_15 
REMARK    3  A    between atoms: C_4  and  C_5 
REMARK    4  A    between atoms: C_9  and  O_10 
REMARK    5  A    between atoms: C_12  and  O_13 
ROOT
HETATM    1  C   LIG     1      27.439  28.990  33.577  1.00  0.00     0.087 A 
HETATM    2  C   LIG     1      27.226  30.149  34.365  1.00  0.00     0.021 A 
HETATM    3  C   LIG     1      28.087  31.244  34.216  1.00  0.00     0.018 A 
HETATM    4  C   LIG     1      29.131  31.210  33.299  1.00  0.00     0.040 A 
HETATM    5  C   LIG     1      29.353  30.076  32.499  1.00  0.00     0.102 A 
HETATM    6  C   LIG     1      28.503  28.949  32.645  1.00  0.00     0.119 A 
ENDROOT
BRANCH   1   7
HETATM    7  C   LIG     1      26.581  27.792  33.732  1.00  0.00     0.180 C 
HETATM    8  O   LIG     1      26.707  27.054  34.745  1.00  0.00    -0.646 OA
BRANCH   7   9
HETATM    9  O   LIG     1      25.644  27.457  32.758  1.00  0.00    -0.773 OA
HETATM   10  H   LIG     1      24.664  27.686  32.868  1.00  0.00     0.167 HD
ENDBRANCH   7   9
ENDBRANCH   1   7
BRANCH   2  11
HETATM   11  C   LIG     1      26.084  30.255  35.307  1.00  0.00     0.271 C 
HETATM   12  O   LIG     1      25.662  31.378  35.693  1.00  0.00    -0.301 OA
ENDBRANCH   2  11
BRANCH   6  13
HETATM   13  O   LIG     1      28.673  27.756  31.911  1.00  0.00    -0.352 OA
HETATM   14  C   LIG     1      28.353  27.542  30.541  1.00  0.00     0.210 C 
ENDBRANCH   6  13
BRANCH   5  15
HETATM   15  O   LIG     1      30.405  30.050  31.569  1.00  0.00    -0.353 OA
HETATM   16  C   LIG     1      30.398  30.708  30.307  1.00  0.00     0.210 C 
ENDBRANCH   5  15
TORSDOF 5
ENDMDL
MODEL 20
REMARK VINA RESULT:      -3.6     19.463     21.972
REMARK  5 active torsions:
REMARK  status: ('A' for Active; 'I' for Inactive)
REMARK    1  A    between atoms: C_2  and  C_3 
REMARK    2  A    between atoms: C_2  and  O_15 
REMARK    3  A    between atoms: C_4  and  C_5 
REMARK    4  A    between atoms: C_9  and  O_10 
REMARK    5  A    between atoms: C_12  and  O_13 
ROOT
HETATM    1  C   LIG     1      21.440  22.184  36.261  1.00  0.00     0.087 A 
HETATM    2  C   LIG     1      22.195  21.397  37.167  1.00  0.00     0.021 A 
HETATM    3  C   LIG     1      21.764  20.098  37.467  1.00  0.00     0.018 A 
HETATM    4  C   LIG     1      20.621  19.572  36.876  1.00  0.00     0.040 A 
HETATM    5  C   LIG     1      19.864  20.331  35.966  1.00  0.00     0.102 A 
HETATM    6  C   LIG     1      20.273  21.655  35.661  1.00  0.00     0.119 A 
ENDROOT
BRANCH   1   7
HETATM    7  C   LIG     1      21.833  23.578  35.949  1.00  0.00     0.180 C 
HETATM    8  O   LIG     1      22.828  23.800  35.209  1.00  0.00    -0.646 OA
BRANCH   7   9
HETATM    9  O   LIG     1      21.126  24.653  36.480  1.00  0.00    -0.773 OA
HETATM   10  H   LIG     1      20.392  24.515  37.164  1.00  0.00     0.167 HD
ENDBRANCH   7   9
ENDBRANCH   1   7
BRANCH   2  11
HETATM   11  C   LIG     1      23.459  21.893  37.768  1.00  0.00     0.271 C 
HETATM   12  O   LIG     1      24.577  21.594  37.268  1.00  0.00    -0.301 OA
ENDBRANCH   2  11
BRANCH   6  13
HETATM   13  O   LIG     1      19.556  22.499  34.788  1.00  0.00    -0.352 OA
HETATM   14  C   LIG     1      19.753  22.647  33.387  1.00  0.00     0.210 C 
ENDBRANCH   6  13
BRANCH   5  15
HETATM   15  O   LIG     1      18.714  19.792  35.368  1.00  0.00    -0.353 OA
HETATM   16  C   LIG     1      17.582  19.292  36.073  1.00  0.00     0.210 C 
ENDBRANCH   5  15
TORSDOF 5
ENDMDL
