REMARK  4 active torsions:
REMARK  status: ('A' for Active; 'I' for Inactive)
REMARK    1  A    between atoms: C_2  and  N_3 
REMARK    2  A    between atoms: C_5  and  C_20 
REMARK    3  A    between atoms: C_10  and  N_11 
REMARK    4  A    between atoms: C_20  and  O_21 
ROOT
HETATM    1  N   LIG     1      -2.268  -0.028  -0.868  1.00  0.00    -0.340 N 
HETATM    2  C   LIG     1      -3.563   0.342  -0.629  1.00  0.00     0.115 A 
HETATM    3  C   LIG     1      -3.898   1.173   0.451  1.00  0.00     0.104 A 
HETATM    4  C   LIG     1      -2.869   1.658   1.279  1.00  0.00     0.205 A 
HETATM    5  C   LIG     1      -1.542   1.270   1.032  1.00  0.00     0.080 A 
HETATM    6  C   LIG     1      -1.258   0.419  -0.054  1.00  0.00     0.164 A 
HETATM    7  N   LIG     1       0.033   0.055  -0.289  1.00  0.00    -0.044 NA
HETATM    8  C   LIG     1       1.059   0.484   0.494  1.00  0.00     0.726 A 
HETATM    9  N   LIG     1       0.792   1.307   1.544  1.00  0.00    -0.074 NA
HETATM   10  C   LIG     1      -0.473   1.708   1.827  1.00  0.00     0.155 A 
HETATM   11  O   LIG     1      -3.130   2.456   2.221  1.00  0.00    -0.286 OA
ENDROOT
BRANCH   8  12
HETATM   12  N   LIG     1       2.414   0.068   0.214  1.00  0.00    -0.211 N 
HETATM   13  C   LIG     1       2.709  -0.692  -1.010  1.00  0.00     0.171 C 
HETATM   14  C   LIG     1       3.925  -1.601  -0.801  1.00  0.00     0.290 C 
HETATM   15  N   LIG     1       5.065  -0.852  -0.259  1.00  0.00     0.086 N 
HETATM   16  C   LIG     1       4.719  -0.258   1.038  1.00  0.00     0.290 C 
HETATM   17  H   LIG     1       5.322  -0.088  -0.928  1.00  0.00     0.316 HD
HETATM   18  C   LIG     1       3.538   0.711   0.910  1.00  0.00     0.171 C 
ENDBRANCH   8  12
BRANCH   1  19
HETATM   19  C   LIG     1      -1.980  -0.914  -2.010  1.00  0.00     0.125 C 
HETATM   20  C   LIG     1      -1.775  -2.352  -1.539  1.00  0.00     0.027 C 
ENDBRANCH   1  19
BRANCH   3  21
HETATM   21  C   LIG     1      -5.319   1.534   0.674  1.00  0.00     0.181 C 
HETATM   22  O   LIG     1      -6.085   1.694  -0.313  1.00  0.00    -0.646 OA
BRANCH  21  23
HETATM   23  O   LIG     1      -5.844   1.673   1.958  1.00  0.00    -0.772 OA
HETATM   24  H   LIG     1      -5.312   1.434   2.785  1.00  0.00     0.167 HD
ENDBRANCH  21  23
ENDBRANCH   3  21
TORSDOF 4
