MODEL 1
REMARK VINA RESULT:      -7.8      0.000      0.000
REMARK  4 active torsions:
REMARK  status: ('A' for Active; 'I' for Inactive)
REMARK    1  A    between atoms: C_2  and  N_3 
REMARK    2  A    between atoms: C_5  and  C_20 
REMARK    3  A    between atoms: C_10  and  N_11 
REMARK    4  A    between atoms: C_20  and  O_21 
ROOT
HETATM    1  N   LIG     1      15.608  31.308  14.227  1.00  0.00    -0.340 N 
HETATM    2  C   LIG     1      14.733  31.066  15.250  1.00  0.00     0.115 A 
HETATM    3  C   LIG     1      14.623  31.943  16.340  1.00  0.00     0.104 A 
HETATM    4  C   LIG     1      15.409  33.109  16.355  1.00  0.00     0.205 A 
HETATM    5  C   LIG     1      16.310  33.349  15.304  1.00  0.00     0.080 A 
HETATM    6  C   LIG     1      16.398  32.430  14.241  1.00  0.00     0.164 A 
HETATM    7  N   LIG     1      17.269  32.676  13.224  1.00  0.00    -0.044 NA
HETATM    8  C   LIG     1      18.062  33.780  13.202  1.00  0.00     0.726 A 
HETATM    9  N   LIG     1      17.982  34.673  14.226  1.00  0.00    -0.074 NA
HETATM   10  C   LIG     1      17.131  34.486  15.266  1.00  0.00     0.155 A 
HETATM   11  O   LIG     1      15.290  33.948  17.290  1.00  0.00    -0.286 OA
ENDROOT
BRANCH   8  12
HETATM   12  N   LIG     1      18.979  34.000  12.107  1.00  0.00    -0.211 N 
HETATM   13  C   LIG     1      20.310  33.376  12.130  1.00  0.00     0.171 C 
HETATM   14  C   LIG     1      21.318  34.224  11.347  1.00  0.00     0.290 C 
HETATM   15  N   LIG     1      20.817  34.544  10.005  1.00  0.00     0.086 N 
HETATM   16  C   LIG     1      19.562  35.301  10.091  1.00  0.00     0.290 C 
HETATM   17  H   LIG     1      20.644  33.653   9.482  1.00  0.00     0.316 HD
HETATM   18  C   LIG     1      18.477  34.499  10.819  1.00  0.00     0.171 C 
ENDBRANCH   8  12
BRANCH   1  19
HETATM   19  C   LIG     1      15.688  30.343  13.115  1.00  0.00     0.125 C 
HETATM   20  C   LIG     1      15.334  28.937  13.595  1.00  0.00     0.027 C 
ENDBRANCH   1  19
BRANCH   3  21
HETATM   21  C   LIG     1      13.668  31.628  17.430  1.00  0.00     0.181 C 
HETATM   22  O   LIG     1      12.464  31.382  17.153  1.00  0.00    -0.646 OA
BRANCH  21  23
HETATM   23  O   LIG     1      14.075  31.565  18.762  1.00  0.00    -0.772 OA
HETATM   24  H   LIG     1      13.732  32.213  19.459  1.00  0.00     0.167 HD
ENDBRANCH  21  23
ENDBRANCH   3  21
TORSDOF 4
ENDMDL
MODEL 2
REMARK VINA RESULT:      -6.1      4.132      6.935
REMARK  4 active torsions:
REMARK  status: ('A' for Active; 'I' for Inactive)
REMARK    1  A    between atoms: C_2  and  N_3 
REMARK    2  A    between atoms: C_5  and  C_20 
REMARK    3  A    between atoms: C_10  and  N_11 
REMARK    4  A    between atoms: C_20  and  O_21 
ROOT
HETATM    1  N   LIG     1      15.634  33.022  16.042  1.00  0.00    -0.340 N 
HETATM    2  C   LIG     1      15.156  32.100  15.151  1.00  0.00     0.115 A 
HETATM    3  C   LIG     1      14.381  31.009  15.574  1.00  0.00     0.104 A 
HETATM    4  C   LIG     1      14.065  30.890  16.940  1.00  0.00     0.205 A 
HETATM    5  C   LIG     1      14.563  31.837  17.850  1.00  0.00     0.080 A 
HETATM    6  C   LIG     1      15.353  32.904  17.379  1.00  0.00     0.164 A 
HETATM    7  N   LIG     1      15.824  33.821  18.269  1.00  0.00    -0.044 NA
HETATM    8  C   LIG     1      15.560  33.738  19.601  1.00  0.00     0.726 A 
HETATM    9  N   LIG     1      14.797  32.710  20.062  1.00  0.00    -0.074 NA
HETATM   10  C   LIG     1      14.295  31.768  19.225  1.00  0.00     0.155 A 
HETATM   11  O   LIG     1      13.319  29.956  17.344  1.00  0.00    -0.286 OA
ENDROOT
BRANCH   8  12
HETATM   12  N   LIG     1      16.086  34.728  20.512  1.00  0.00    -0.211 N 
HETATM   13  C   LIG     1      16.706  35.953  19.986  1.00  0.00     0.171 C 
HETATM   14  C   LIG     1      17.766  36.482  20.957  1.00  0.00     0.290 C 
HETATM   15  N   LIG     1      17.230  36.607  22.317  1.00  0.00     0.086 N 
HETATM   16  C   LIG     1      16.777  35.302  22.813  1.00  0.00     0.290 C 
HETATM   17  H   LIG     1      16.418  37.269  22.306  1.00  0.00     0.316 HD
HETATM   18  C   LIG     1      15.672  34.720  21.923  1.00  0.00     0.171 C 
ENDBRANCH   8  12
BRANCH   1  19
HETATM   19  C   LIG     1      16.455  34.138  15.539  1.00  0.00     0.125 C 
HETATM   20  C   LIG     1      17.569  33.623  14.631  1.00  0.00     0.027 C 
ENDBRANCH   1  19
BRANCH   3  21
HETATM   21  C   LIG     1      13.899  30.031  14.570  1.00  0.00     0.181 C 
HETATM   22  O   LIG     1      14.672  29.642  13.655  1.00  0.00    -0.646 OA
BRANCH  21  23
HETATM   23  O   LIG     1      12.611  29.500  14.628  1.00  0.00    -0.772 OA
HETATM   24  H   LIG     1      11.897  29.747  13.955  1.00  0.00     0.167 HD
ENDBRANCH  21  23
ENDBRANCH   3  21
TORSDOF 4
ENDMDL
MODEL 3
REMARK VINA RESULT:      -6.0      6.204      8.931
REMARK  4 active torsions:
REMARK  status: ('A' for Active; 'I' for Inactive)
REMARK    1  A    between atoms: C_2  and  N_3 
REMARK    2  A    between atoms: C_5  and  C_20 
REMARK    3  A    between atoms: C_10  and  N_11 
REMARK    4  A    between atoms: C_20  and  O_21 
ROOT
HETATM    1  N   LIG     1      17.888  37.029  20.429  1.00  0.00    -0.340 N 
HETATM    2  C   LIG     1      18.303  37.849  21.442  1.00  0.00     0.115 A 
HETATM    3  C   LIG     1      17.793  37.718  22.743  1.00  0.00     0.104 A 
HETATM    4  C   LIG     1      16.861  36.698  23.007  1.00  0.00     0.205 A 
HETATM    5  C   LIG     1      16.434  35.863  21.962  1.00  0.00     0.080 A 
HETATM    6  C   LIG     1      16.962  36.046  20.668  1.00  0.00     0.164 A 
HETATM    7  N   LIG     1      16.547  35.226  19.663  1.00  0.00    -0.044 NA
HETATM    8  C   LIG     1      15.635  34.237  19.866  1.00  0.00     0.726 A 
HETATM    9  N   LIG     1      15.123  34.055  21.113  1.00  0.00    -0.074 NA
HETATM   10  C   LIG     1      15.499  34.836  22.156  1.00  0.00     0.155 A 
HETATM   11  O   LIG     1      16.430  36.515  24.179  1.00  0.00    -0.286 OA
ENDROOT
BRANCH   8  12
HETATM   12  N   LIG     1      15.217  33.394  18.770  1.00  0.00    -0.211 N 
HETATM   13  C   LIG     1      15.282  33.899  17.391  1.00  0.00     0.171 C 
HETATM   14  C   LIG     1      14.215  33.229  16.519  1.00  0.00     0.290 C 
HETATM   15  N   LIG     1      14.270  31.767  16.636  1.00  0.00     0.086 N 
HETATM   16  C   LIG     1      14.040  31.354  18.025  1.00  0.00     0.290 C 
HETATM   17  H   LIG     1      15.216  31.435  16.331  1.00  0.00     0.316 HD
HETATM   18  C   LIG     1      15.101  31.941  18.964  1.00  0.00     0.171 C 
ENDBRANCH   8  12
BRANCH   1  19
HETATM   19  C   LIG     1      18.449  37.224  19.080  1.00  0.00     0.125 C 
HETATM   20  C   LIG     1      19.070  38.613  18.950  1.00  0.00     0.027 C 
ENDBRANCH   1  19
BRANCH   3  21
HETATM   21  C   LIG     1      18.266  38.641  23.803  1.00  0.00     0.181 C 
HETATM   22  O   LIG     1      19.430  39.119  23.741  1.00  0.00    -0.646 OA
BRANCH  21  23
HETATM   23  O   LIG     1      17.442  39.021  24.861  1.00  0.00    -0.772 OA
HETATM   24  H   LIG     1      17.048  38.347  25.505  1.00  0.00     0.167 HD
ENDBRANCH  21  23
ENDBRANCH   3  21
TORSDOF 4
ENDMDL
MODEL 4
REMARK VINA RESULT:      -5.9      4.535      7.007
REMARK  4 active torsions:
REMARK  status: ('A' for Active; 'I' for Inactive)
REMARK    1  A    between atoms: C_2  and  N_3 
REMARK    2  A    between atoms: C_5  and  C_20 
REMARK    3  A    between atoms: C_10  and  N_11 
REMARK    4  A    between atoms: C_20  and  O_21 
ROOT
HETATM    1  N   LIG     1      15.572  33.946  16.784  1.00  0.00    -0.340 N 
HETATM    2  C   LIG     1      14.979  32.892  16.146  1.00  0.00     0.115 A 
HETATM    3  C   LIG     1      14.427  31.820  16.864  1.00  0.00     0.104 A 
HETATM    4  C   LIG     1      14.459  31.856  18.270  1.00  0.00     0.205 A 
HETATM    5  C   LIG     1      15.074  32.939  18.920  1.00  0.00     0.080 A 
HETATM    6  C   LIG     1      15.631  33.982  18.155  1.00  0.00     0.164 A 
HETATM    7  N   LIG     1      16.219  35.031  18.795  1.00  0.00    -0.044 NA
HETATM    8  C   LIG     1      16.289  35.102  20.151  1.00  0.00     0.726 A 
HETATM    9  N   LIG     1      15.753  34.097  20.896  1.00  0.00    -0.074 NA
HETATM   10  C   LIG     1      15.150  33.028  20.317  1.00  0.00     0.155 A 
HETATM   11  O   LIG     1      13.917  30.938  18.945  1.00  0.00    -0.286 OA
ENDROOT
BRANCH   8  12
HETATM   12  N   LIG     1      16.928  36.228  20.791  1.00  0.00    -0.211 N 
HETATM   13  C   LIG     1      16.493  36.655  22.129  1.00  0.00     0.171 C 
HETATM   14  C   LIG     1      16.732  38.157  22.321  1.00  0.00     0.290 C 
HETATM   15  N   LIG     1      18.111  38.526  21.982  1.00  0.00     0.086 N 
HETATM   16  C   LIG     1      18.400  38.201  20.580  1.00  0.00     0.290 C 
HETATM   17  H   LIG     1      18.770  37.996  22.600  1.00  0.00     0.316 HD
HETATM   18  C   LIG     1      18.236  36.700  20.312  1.00  0.00     0.171 C 
ENDBRANCH   8  12
BRANCH   1  19
HETATM   19  C   LIG     1      16.147  35.036  15.976  1.00  0.00     0.125 C 
HETATM   20  C   LIG     1      17.254  34.508  15.067  1.00  0.00     0.027 C 
ENDBRANCH   1  19
BRANCH   3  21
HETATM   21  C   LIG     1      13.807  30.695  16.123  1.00  0.00     0.181 C 
HETATM   22  O   LIG     1      14.438  30.142  15.183  1.00  0.00    -0.646 OA
BRANCH  21  23
HETATM   23  O   LIG     1      12.545  30.206  16.460  1.00  0.00    -0.772 OA
HETATM   24  H   LIG     1      12.302  29.229  16.355  1.00  0.00     0.167 HD
ENDBRANCH  21  23
ENDBRANCH   3  21
TORSDOF 4
ENDMDL
MODEL 5
REMARK VINA RESULT:      -5.0      5.616      8.144
REMARK  4 active torsions:
REMARK  status: ('A' for Active; 'I' for Inactive)
REMARK    1  A    between atoms: C_2  and  N_3 
REMARK    2  A    between atoms: C_5  and  C_20 
REMARK    3  A    between atoms: C_10  and  N_11 
REMARK    4  A    between atoms: C_20  and  O_21 
ROOT
HETATM    1  N   LIG     1      17.480  36.703  20.226  1.00  0.00    -0.340 N 
HETATM    2  C   LIG     1      17.738  37.384  21.383  1.00  0.00     0.115 A 
HETATM    3  C   LIG     1      17.133  37.020  22.596  1.00  0.00     0.104 A 
HETATM    4  C   LIG     1      16.272  35.908  22.618  1.00  0.00     0.205 A 
HETATM    5  C   LIG     1      16.006  35.216  21.425  1.00  0.00     0.080 A 
HETATM    6  C   LIG     1      16.623  35.631  20.229  1.00  0.00     0.164 A 
HETATM    7  N   LIG     1      16.364  34.949  19.079  1.00  0.00    -0.044 NA
HETATM    8  C   LIG     1      15.525  33.879  19.047  1.00  0.00     0.726 A 
HETATM    9  N   LIG     1      14.926  33.471  20.199  1.00  0.00    -0.074 NA
HETATM   10  C   LIG     1      15.147  34.108  21.377  1.00  0.00     0.155 A 
HETATM   11  O   LIG     1      15.760  35.517  23.703  1.00  0.00    -0.286 OA
ENDROOT
BRANCH   8  12
HETATM   12  N   LIG     1      15.272  33.187  17.804  1.00  0.00    -0.211 N 
HETATM   13  C   LIG     1      14.128  32.269  17.696  1.00  0.00     0.171 C 
HETATM   14  C   LIG     1      14.413  31.170  16.667  1.00  0.00     0.290 C 
HETATM   15  N   LIG     1      14.863  31.737  15.390  1.00  0.00     0.086 N 
HETATM   16  C   LIG     1      16.097  32.509  15.577  1.00  0.00     0.290 C 
HETATM   17  H   LIG     1      14.117  32.369  15.015  1.00  0.00     0.316 HD
HETATM   18  C   LIG     1      15.886  33.668  16.558  1.00  0.00     0.171 C 
ENDBRANCH   8  12
BRANCH   1  19
HETATM   19  C   LIG     1      18.135  37.142  18.980  1.00  0.00     0.125 C 
HETATM   20  C   LIG     1      19.431  37.889  19.287  1.00  0.00     0.027 C 
ENDBRANCH   1  19
BRANCH   3  21
HETATM   21  C   LIG     1      17.437  37.800  23.820  1.00  0.00     0.181 C 
HETATM   22  O   LIG     1      17.064  39.000  23.905  1.00  0.00    -0.646 OA
BRANCH  21  23
HETATM   23  O   LIG     1      18.103  37.228  24.903  1.00  0.00    -0.772 OA
HETATM   24  H   LIG     1      18.966  37.613  25.268  1.00  0.00     0.167 HD
ENDBRANCH  21  23
ENDBRANCH   3  21
TORSDOF 4
ENDMDL
