REMARK  0 active torsions:
REMARK  status: ('A' for Active; 'I' for Inactive)
ROOT
HETATM    1  O   LIG     1      -0.514   2.345   0.096  1.00  0.00    -0.268 OA
HETATM    2  C   LIG     1      -0.246   1.115   0.046  1.00  0.00     0.247 A 
HETATM    3  N   LIG     1      -1.250   0.198  -0.018  1.00  0.00    -0.318 N 
HETATM    4  C   LIG     1      -0.973  -1.133  -0.073  1.00  0.00     0.209 A 
HETATM    5  N   LIG     1       0.316  -1.562  -0.065  1.00  0.00    -0.256 NA
HETATM    6  C   LIG     1       1.345  -0.678  -0.002  1.00  0.00     0.123 A 
HETATM    7  C   LIG     1       1.084   0.690   0.055  1.00  0.00     0.093 A 
HETATM    8  H   LIG     1      -2.247   0.514  -0.025  1.00  0.00     0.169 HD
ENDROOT
TORSDOF 0
