MODEL 1
REMARK VINA RESULT:      -4.7      0.000      0.000
REMARK  0 active torsions:
REMARK  status: ('A' for Active; 'I' for Inactive)
ROOT
HETATM    1  O   LIG     1      20.575  39.437  19.232  1.00  0.00    -0.268 OA
HETATM    2  C   LIG     1      19.679  38.854  19.899  1.00  0.00     0.247 A 
HETATM    3  N   LIG     1      19.115  39.472  20.973  1.00  0.00    -0.318 N 
HETATM    4  C   LIG     1      18.147  38.854  21.702  1.00  0.00     0.209 A 
HETATM    5  N   LIG     1      17.730  37.606  21.362  1.00  0.00    -0.256 NA
HETATM    6  C   LIG     1      18.267  36.957  20.297  1.00  0.00     0.123 A 
HETATM    7  C   LIG     1      19.261  37.572  19.537  1.00  0.00     0.093 A 
HETATM    8  H   LIG     1      19.427  40.433  21.247  1.00  0.00     0.169 HD
ENDROOT
TORSDOF 0
ENDMDL
MODEL 2
REMARK VINA RESULT:      -4.6      5.295      5.730
REMARK  0 active torsions:
REMARK  status: ('A' for Active; 'I' for Inactive)
ROOT
HETATM    1  O   LIG     1      16.858  38.464  24.499  1.00  0.00    -0.268 OA
HETATM    2  C   LIG     1      17.225  37.376  25.018  1.00  0.00     0.247 A 
HETATM    3  N   LIG     1      17.787  37.364  26.257  1.00  0.00    -0.318 N 
HETATM    4  C   LIG     1      18.187  36.195  26.828  1.00  0.00     0.209 A 
HETATM    5  N   LIG     1      18.027  35.022  26.162  1.00  0.00    -0.256 NA
HETATM    6  C   LIG     1      17.470  34.993  24.924  1.00  0.00     0.123 A 
HETATM    7  C   LIG     1      17.053  36.178  24.321  1.00  0.00     0.093 A 
HETATM    8  H   LIG     1      17.916  38.260  26.781  1.00  0.00     0.169 HD
ENDROOT
TORSDOF 0
ENDMDL
MODEL 3
REMARK VINA RESULT:      -4.5      5.135      5.909
REMARK  0 active torsions:
REMARK  status: ('A' for Active; 'I' for Inactive)
ROOT
HETATM    1  O   LIG     1      16.936  38.472  24.547  1.00  0.00    -0.268 OA
HETATM    2  C   LIG     1      17.265  37.341  24.993  1.00  0.00     0.247 A 
HETATM    3  N   LIG     1      16.979  36.215  24.284  1.00  0.00    -0.318 N 
HETATM    4  C   LIG     1      17.330  34.988  24.756  1.00  0.00     0.209 A 
HETATM    5  N   LIG     1      17.974  34.874  25.946  1.00  0.00    -0.256 NA
HETATM    6  C   LIG     1      18.277  35.974  26.683  1.00  0.00     0.123 A 
HETATM    7  C   LIG     1      17.927  37.241  26.219  1.00  0.00     0.093 A 
HETATM    8  H   LIG     1      16.483  36.288  23.366  1.00  0.00     0.169 HD
ENDROOT
TORSDOF 0
ENDMDL
MODEL 4
REMARK VINA RESULT:      -4.5      5.036      5.700
REMARK  0 active torsions:
REMARK  status: ('A' for Active; 'I' for Inactive)
ROOT
HETATM    1  O   LIG     1      17.900  34.675  26.088  1.00  0.00    -0.268 OA
HETATM    2  C   LIG     1      17.576  35.755  25.525  1.00  0.00     0.247 A 
HETATM    3  N   LIG     1      17.618  36.926  26.217  1.00  0.00    -0.318 N 
HETATM    4  C   LIG     1      17.271  38.099  25.620  1.00  0.00     0.209 A 
HETATM    5  N   LIG     1      16.878  38.112  24.320  1.00  0.00    -0.256 NA
HETATM    6  C   LIG     1      16.824  36.964  23.596  1.00  0.00     0.123 A 
HETATM    7  C   LIG     1      17.175  35.751  24.188  1.00  0.00     0.093 A 
HETATM    8  H   LIG     1      17.918  36.931  27.219  1.00  0.00     0.169 HD
ENDROOT
TORSDOF 0
ENDMDL
MODEL 5
REMARK VINA RESULT:      -4.2      1.839      2.544
REMARK  0 active torsions:
REMARK  status: ('A' for Active; 'I' for Inactive)
ROOT
HETATM    1  O   LIG     1      17.686  35.933  20.342  1.00  0.00    -0.268 OA
HETATM    2  C   LIG     1      18.269  37.049  20.330  1.00  0.00     0.247 A 
HETATM    3  N   LIG     1      17.939  38.003  21.243  1.00  0.00    -0.318 N 
HETATM    4  C   LIG     1      18.563  39.212  21.241  1.00  0.00     0.209 A 
HETATM    5  N   LIG     1      19.527  39.480  20.322  1.00  0.00    -0.256 NA
HETATM    6  C   LIG     1      19.885  38.554  19.395  1.00  0.00     0.123 A 
HETATM    7  C   LIG     1      19.259  37.309  19.380  1.00  0.00     0.093 A 
HETATM    8  H   LIG     1      17.198  37.811  21.956  1.00  0.00     0.169 HD
ENDROOT
TORSDOF 0
ENDMDL
MODEL 6
REMARK VINA RESULT:      -4.2      4.462      5.280
REMARK  0 active torsions:
REMARK  status: ('A' for Active; 'I' for Inactive)
ROOT
HETATM    1  O   LIG     1      17.359  34.772  24.440  1.00  0.00    -0.268 OA
HETATM    2  C   LIG     1      17.217  36.023  24.381  1.00  0.00     0.247 A 
HETATM    3  N   LIG     1      16.761  36.606  23.239  1.00  0.00    -0.318 N 
HETATM    4  C   LIG     1      16.603  37.956  23.163  1.00  0.00     0.209 A 
HETATM    5  N   LIG     1      16.902  38.738  24.233  1.00  0.00    -0.256 NA
HETATM    6  C   LIG     1      17.360  38.193  25.390  1.00  0.00     0.123 A 
HETATM    7  C   LIG     1      17.529  36.813  25.489  1.00  0.00     0.093 A 
HETATM    8  H   LIG     1      16.527  36.016  22.408  1.00  0.00     0.169 HD
ENDROOT
TORSDOF 0
ENDMDL
MODEL 7
REMARK VINA RESULT:      -4.1      2.874      3.338
REMARK  0 active torsions:
REMARK  status: ('A' for Active; 'I' for Inactive)
ROOT
HETATM    1  O   LIG     1      19.096  39.060  21.884  1.00  0.00    -0.268 OA
HETATM    2  C   LIG     1      18.166  38.671  22.639  1.00  0.00     0.247 A 
HETATM    3  N   LIG     1      18.381  38.539  23.977  1.00  0.00    -0.318 N 
HETATM    4  C   LIG     1      17.384  38.119  24.803  1.00  0.00     0.209 A 
HETATM    5  N   LIG     1      16.158  37.827  24.298  1.00  0.00    -0.256 NA
HETATM    6  C   LIG     1      15.904  37.946  22.969  1.00  0.00     0.123 A 
HETATM    7  C   LIG     1      16.910  38.374  22.105  1.00  0.00     0.093 A 
HETATM    8  H   LIG     1      19.320  38.760  24.380  1.00  0.00     0.169 HD
ENDROOT
TORSDOF 0
ENDMDL
MODEL 8
REMARK VINA RESULT:      -4.0      8.093      8.951
REMARK  0 active torsions:
REMARK  status: ('A' for Active; 'I' for Inactive)
ROOT
HETATM    1  O   LIG     1      12.943  30.707  16.955  1.00  0.00    -0.268 OA
HETATM    2  C   LIG     1      13.826  31.557  16.666  1.00  0.00     0.247 A 
HETATM    3  N   LIG     1      13.911  32.721  17.366  1.00  0.00    -0.318 N 
HETATM    4  C   LIG     1      14.861  33.647  17.063  1.00  0.00     0.209 A 
HETATM    5  N   LIG     1      15.738  33.418  16.052  1.00  0.00    -0.256 NA
HETATM    6  C   LIG     1      15.685  32.269  15.330  1.00  0.00     0.123 A 
HETATM    7  C   LIG     1      14.721  31.307  15.624  1.00  0.00     0.093 A 
HETATM    8  H   LIG     1      13.242  32.911  18.147  1.00  0.00     0.169 HD
ENDROOT
TORSDOF 0
ENDMDL
MODEL 9
REMARK VINA RESULT:      -4.0      4.198      4.835
REMARK  0 active torsions:
REMARK  status: ('A' for Active; 'I' for Inactive)
ROOT
HETATM    1  O   LIG     1      16.368  37.034  22.200  1.00  0.00    -0.268 OA
HETATM    2  C   LIG     1      16.775  37.022  23.392  1.00  0.00     0.247 A 
HETATM    3  N   LIG     1      16.884  38.186  24.089  1.00  0.00    -0.318 N 
HETATM    4  C   LIG     1      17.322  38.187  25.377  1.00  0.00     0.209 A 
HETATM    5  N   LIG     1      17.655  37.018  25.984  1.00  0.00    -0.256 NA
HETATM    6  C   LIG     1      17.559  35.836  25.322  1.00  0.00     0.123 A 
HETATM    7  C   LIG     1      17.113  35.813  24.002  1.00  0.00     0.093 A 
HETATM    8  H   LIG     1      16.631  39.094  23.634  1.00  0.00     0.169 HD
ENDROOT
TORSDOF 0
ENDMDL
MODEL 10
REMARK VINA RESULT:      -4.0      2.954      3.832
REMARK  0 active torsions:
REMARK  status: ('A' for Active; 'I' for Inactive)
ROOT
HETATM    1  O   LIG     1      15.703  38.057  23.583  1.00  0.00    -0.268 OA
HETATM    2  C   LIG     1      16.509  37.855  22.637  1.00  0.00     0.247 A 
HETATM    3  N   LIG     1      16.522  36.655  21.993  1.00  0.00    -0.318 N 
HETATM    4  C   LIG     1      17.388  36.425  20.970  1.00  0.00     0.209 A 
HETATM    5  N   LIG     1      18.254  37.396  20.578  1.00  0.00    -0.256 NA
HETATM    6  C   LIG     1      18.272  38.605  21.196  1.00  0.00     0.123 A 
HETATM    7  C   LIG     1      17.393  38.862  22.246  1.00  0.00     0.093 A 
HETATM    8  H   LIG     1      15.861  35.899  22.284  1.00  0.00     0.169 HD
ENDROOT
TORSDOF 0
ENDMDL
MODEL 11
REMARK VINA RESULT:      -3.9      2.970      3.631
REMARK  0 active torsions:
REMARK  status: ('A' for Active; 'I' for Inactive)
ROOT
HETATM    1  O   LIG     1      17.467  36.106  20.873  1.00  0.00    -0.268 OA
HETATM    2  C   LIG     1      17.296  36.918  21.821  1.00  0.00     0.247 A 
HETATM    3  N   LIG     1      16.844  36.477  23.026  1.00  0.00    -0.318 N 
HETATM    4  C   LIG     1      16.656  37.344  24.058  1.00  0.00     0.209 A 
HETATM    5  N   LIG     1      16.920  38.667  23.893  1.00  0.00    -0.256 NA
HETATM    6  C   LIG     1      17.372  39.145  22.705  1.00  0.00     0.123 A 
HETATM    7  C   LIG     1      17.572  38.274  21.635  1.00  0.00     0.093 A 
HETATM    8  H   LIG     1      16.636  35.461  23.168  1.00  0.00     0.169 HD
ENDROOT
TORSDOF 0
ENDMDL
MODEL 12
REMARK VINA RESULT:      -3.9      1.995      2.502
REMARK  0 active torsions:
REMARK  status: ('A' for Active; 'I' for Inactive)
ROOT
HETATM    1  O   LIG     1      18.459  36.463  19.308  1.00  0.00    -0.268 OA
HETATM    2  C   LIG     1      18.006  36.786  20.438  1.00  0.00     0.247 A 
HETATM    3  N   LIG     1      18.232  38.033  20.935  1.00  0.00    -0.318 N 
HETATM    4  C   LIG     1      17.747  38.393  22.155  1.00  0.00     0.209 A 
HETATM    5  N   LIG     1      17.029  37.507  22.892  1.00  0.00    -0.256 NA
HETATM    6  C   LIG     1      16.783  36.254  22.430  1.00  0.00     0.123 A 
HETATM    7  C   LIG     1      17.269  35.864  21.184  1.00  0.00     0.093 A 
HETATM    8  H   LIG     1      18.783  38.726  20.379  1.00  0.00     0.169 HD
ENDROOT
TORSDOF 0
ENDMDL
MODEL 13
REMARK VINA RESULT:      -3.9      7.551      8.397
REMARK  0 active torsions:
REMARK  status: ('A' for Active; 'I' for Inactive)
ROOT
HETATM    1  O   LIG     1      15.572  34.538  17.110  1.00  0.00    -0.268 OA
HETATM    2  C   LIG     1      15.133  33.428  16.708  1.00  0.00     0.247 A 
HETATM    3  N   LIG     1      14.021  32.886  17.276  1.00  0.00    -0.318 N 
HETATM    4  C   LIG     1      13.537  31.688  16.850  1.00  0.00     0.209 A 
HETATM    5  N   LIG     1      14.162  31.018  15.847  1.00  0.00    -0.256 NA
HETATM    6  C   LIG     1      15.273  31.526  15.255  1.00  0.00     0.123 A 
HETATM    7  C   LIG     1      15.786  32.752  15.676  1.00  0.00     0.093 A 
HETATM    8  H   LIG     1      13.530  33.390  18.049  1.00  0.00     0.169 HD
ENDROOT
TORSDOF 0
ENDMDL
MODEL 14
REMARK VINA RESULT:      -3.8      9.526     10.365
REMARK  0 active torsions:
REMARK  status: ('A' for Active; 'I' for Inactive)
ROOT
HETATM    1  O   LIG     1      13.076  30.616  16.671  1.00  0.00    -0.268 OA
HETATM    2  C   LIG     1      13.980  30.828  15.820  1.00  0.00     0.247 A 
HETATM    3  N   LIG     1      14.863  31.849  16.000  1.00  0.00    -0.318 N 
HETATM    4  C   LIG     1      15.844  32.088  15.088  1.00  0.00     0.209 A 
HETATM    5  N   LIG     1      15.952  31.305  13.983  1.00  0.00    -0.256 NA
HETATM    6  C   LIG     1      15.091  30.278  13.768  1.00  0.00     0.123 A 
HETATM    7  C   LIG     1      14.078  30.015  14.689  1.00  0.00     0.093 A 
HETATM    8  H   LIG     1      14.791  32.459  16.847  1.00  0.00     0.169 HD
ENDROOT
TORSDOF 0
ENDMDL
MODEL 15
REMARK VINA RESULT:      -3.8     10.390     11.068
REMARK  0 active torsions:
REMARK  status: ('A' for Active; 'I' for Inactive)
ROOT
HETATM    1  O   LIG     1      12.669  31.523  17.055  1.00  0.00    -0.268 OA
HETATM    2  C   LIG     1      13.269  30.976  16.092  1.00  0.00     0.247 A 
HETATM    3  N   LIG     1      12.666  29.980  15.386  1.00  0.00    -0.318 N 
HETATM    4  C   LIG     1      13.304  29.382  14.344  1.00  0.00     0.209 A 
HETATM    5  N   LIG     1      14.557  29.775  13.995  1.00  0.00    -0.256 NA
HETATM    6  C   LIG     1      15.191  30.765  14.675  1.00  0.00     0.123 A 
HETATM    7  C   LIG     1      14.556  31.391  15.745  1.00  0.00     0.093 A 
HETATM    8  H   LIG     1      11.702  29.667  15.644  1.00  0.00     0.169 HD
ENDROOT
TORSDOF 0
ENDMDL
MODEL 16
REMARK VINA RESULT:      -3.8      3.750      4.391
REMARK  0 active torsions:
REMARK  status: ('A' for Active; 'I' for Inactive)
ROOT
HETATM    1  O   LIG     1      17.189  36.620  25.285  1.00  0.00    -0.268 OA
HETATM    2  C   LIG     1      17.159  36.519  24.029  1.00  0.00     0.247 A 
HETATM    3  N   LIG     1      17.259  37.630  23.250  1.00  0.00    -0.318 N 
HETATM    4  C   LIG     1      17.229  37.533  21.893  1.00  0.00     0.209 A 
HETATM    5  N   LIG     1      17.097  36.319  21.300  1.00  0.00    -0.256 NA
HETATM    6  C   LIG     1      16.994  35.187  22.042  1.00  0.00     0.123 A 
HETATM    7  C   LIG     1      17.023  35.263  23.434  1.00  0.00     0.093 A 
HETATM    8  H   LIG     1      17.361  38.572  23.694  1.00  0.00     0.169 HD
ENDROOT
TORSDOF 0
ENDMDL
MODEL 17
REMARK VINA RESULT:      -3.8      6.465      7.370
REMARK  0 active torsions:
REMARK  status: ('A' for Active; 'I' for Inactive)
ROOT
HETATM    1  O   LIG     1      14.537  31.226  19.414  1.00  0.00    -0.268 OA
HETATM    2  C   LIG     1      14.827  32.269  18.769  1.00  0.00     0.247 A 
HETATM    3  N   LIG     1      15.289  33.371  19.421  1.00  0.00    -0.318 N 
HETATM    4  C   LIG     1      15.606  34.502  18.735  1.00  0.00     0.209 A 
HETATM    5  N   LIG     1      15.463  34.544  17.384  1.00  0.00    -0.256 NA
HETATM    6  C   LIG     1      15.004  33.465  16.698  1.00  0.00     0.123 A 
HETATM    7  C   LIG     1      14.674  32.295  17.381  1.00  0.00     0.093 A 
HETATM    8  H   LIG     1      15.404  33.353  20.460  1.00  0.00     0.169 HD
ENDROOT
TORSDOF 0
ENDMDL
MODEL 18
REMARK VINA RESULT:      -3.8      2.767      3.580
REMARK  0 active torsions:
REMARK  status: ('A' for Active; 'I' for Inactive)
ROOT
HETATM    1  O   LIG     1      16.420  34.882  20.357  1.00  0.00    -0.268 OA
HETATM    2  C   LIG     1      17.057  35.939  20.610  1.00  0.00     0.247 A 
HETATM    3  N   LIG     1      18.052  36.354  19.778  1.00  0.00    -0.318 N 
HETATM    4  C   LIG     1      18.746  37.494  20.040  1.00  0.00     0.209 A 
HETATM    5  N   LIG     1      18.451  38.235  21.139  1.00  0.00    -0.256 NA
HETATM    6  C   LIG     1      17.466  37.854  21.993  1.00  0.00     0.123 A 
HETATM    7  C   LIG     1      16.742  36.690  21.744  1.00  0.00     0.093 A 
HETATM    8  H   LIG     1      18.289  35.793  18.927  1.00  0.00     0.169 HD
ENDROOT
TORSDOF 0
ENDMDL
MODEL 19
REMARK VINA RESULT:      -3.7      6.288      7.155
REMARK  0 active torsions:
REMARK  status: ('A' for Active; 'I' for Inactive)
ROOT
HETATM    1  O   LIG     1      15.823  33.612  20.502  1.00  0.00    -0.268 OA
HETATM    2  C   LIG     1      15.389  33.366  19.346  1.00  0.00     0.247 A 
HETATM    3  N   LIG     1      15.429  34.326  18.381  1.00  0.00    -0.318 N 
HETATM    4  C   LIG     1      14.964  34.072  17.128  1.00  0.00     0.209 A 
HETATM    5  N   LIG     1      14.451  32.851  16.826  1.00  0.00    -0.256 NA
HETATM    6  C   LIG     1      14.394  31.867  17.760  1.00  0.00     0.123 A 
HETATM    7  C   LIG     1      14.865  32.106  19.050  1.00  0.00     0.093 A 
HETATM    8  H   LIG     1      15.821  35.271  18.600  1.00  0.00     0.169 HD
ENDROOT
TORSDOF 0
ENDMDL
MODEL 20
REMARK VINA RESULT:      -3.7      5.691      6.416
REMARK  0 active torsions:
REMARK  status: ('A' for Active; 'I' for Inactive)
ROOT
HETATM    1  O   LIG     1      14.994  33.793  16.426  1.00  0.00    -0.268 OA
HETATM    2  C   LIG     1      15.176  33.709  17.669  1.00  0.00     0.247 A 
HETATM    3  N   LIG     1      15.476  34.822  18.393  1.00  0.00    -0.318 N 
HETATM    4  C   LIG     1      15.675  34.744  19.737  1.00  0.00     0.209 A 
HETATM    5  N   LIG     1      15.574  33.547  20.373  1.00  0.00    -0.256 NA
HETATM    6  C   LIG     1      15.277  32.415  19.685  1.00  0.00     0.123 A 
HETATM    7  C   LIG     1      15.069  32.472  18.308  1.00  0.00     0.093 A 
HETATM    8  H   LIG     1      15.557  35.749  17.917  1.00  0.00     0.169 HD
ENDROOT
TORSDOF 0
ENDMDL
