REMARK  2 active torsions:
REMARK  status: ('A' for Active; 'I' for Inactive)
REMARK    1  A    between atoms: C_9  and  S_10 
REMARK    2  A    between atoms: S_10  and  C_11 
ROOT
HETATM    1  O   LIG     1      -5.742  -2.034  -1.827  1.00  0.00    -0.293 OA
HETATM    2  C   LIG     1      -4.632  -1.908  -1.247  1.00  0.00     0.149 C 
HETATM    3  C   LIG     1      -3.702  -3.079  -1.169  1.00  0.00     0.084 C 
HETATM    4  C   LIG     1      -2.262  -2.631  -0.883  1.00  0.00     0.022 C 
HETATM    5  C   LIG     1      -2.158  -1.612   0.297  1.00  0.00    -0.016 C 
HETATM    6  C   LIG     1      -2.562  -2.308   1.619  1.00  0.00     0.020 C 
HETATM    7  C   LIG     1      -3.135  -0.452   0.052  1.00  0.00    -0.067 C 
HETATM    8  C   LIG     1      -2.768   0.920   0.569  1.00  0.00     0.051 C 
HETATM    9  C   LIG     1      -1.403   1.417   0.018  1.00  0.00     0.064 C 
HETATM   10  C   LIG     1      -0.500   0.225  -0.452  1.00  0.00     0.010 C 
HETATM   11  C   LIG     1      -0.689  -1.036   0.446  1.00  0.00     0.004 C 
HETATM   12  C   LIG     1       0.439  -2.083   0.198  1.00  0.00     0.007 C 
HETATM   13  C   LIG     1       1.868  -1.553   0.493  1.00  0.00     0.013 C 
HETATM   14  C   LIG     1       2.053  -0.025   0.211  1.00  0.00    -0.008 C 
HETATM   15  C   LIG     1       1.997   0.750   1.562  1.00  0.00     0.019 C 
HETATM   16  C   LIG     1       1.001   0.464  -0.808  1.00  0.00     0.002 C 
HETATM   17  C   LIG     1       1.495   1.811  -1.331  1.00  0.00     0.009 C 
HETATM   18  C   LIG     1       3.028   1.739  -1.187  1.00  0.00     0.040 C 
HETATM   19  C   LIG     1       3.356   0.358  -0.560  1.00  0.00     0.079 C 
HETATM   20  O   LIG     1       3.609  -0.553  -1.626  1.00  0.00    -0.309 OA
HETATM   21  C   LIG     1       4.936  -0.913  -1.678  1.00  0.00     0.259 C 
HETATM   22  C   LIG     1       5.748  -0.256  -0.639  1.00  0.00     0.114 C 
HETATM   23  C   LIG     1       4.676   0.350   0.270  1.00  0.00     0.049 C 
HETATM   24  O   LIG     1       5.399  -1.696  -2.548  1.00  0.00    -0.265 OA
HETATM   25  C   LIG     1      -4.281  -0.621  -0.629  1.00  0.00     0.053 C 
ENDROOT
BRANCH   9  26
HETATM   26  S   LIG     1      -0.646   2.506   1.288  1.00  0.00    -0.087 SA
BRANCH  26  27
HETATM   27  C   LIG     1      -1.636   3.954   0.892  1.00  0.00     0.182 C 
HETATM   28  C   LIG     1      -2.900   4.240   1.639  1.00  0.00     0.104 C 
HETATM   29  O   LIG     1      -1.261   4.718   0.017  1.00  0.00    -0.286 OA
ENDBRANCH  26  27
ENDBRANCH   9  26
TORSDOF 2
