MODEL 1
REMARK VINA RESULT:      -6.2      0.000      0.000
REMARK  2 active torsions:
REMARK  status: ('A' for Active; 'I' for Inactive)
REMARK    1  A    between atoms: C_9  and  S_10 
REMARK    2  A    between atoms: S_10  and  C_11 
ROOT
HETATM    1  O   LIG     1      22.446  18.151  15.324  1.00  0.00    -0.293 OA
HETATM    2  C   LIG     1      23.411  18.687  15.928  1.00  0.00     0.149 C 
HETATM    3  C   LIG     1      24.763  18.714  15.285  1.00  0.00     0.084 C 
HETATM    4  C   LIG     1      25.659  19.792  15.911  1.00  0.00     0.022 C 
HETATM    5  C   LIG     1      25.659  19.761  17.473  1.00  0.00    -0.016 C 
HETATM    6  C   LIG     1      26.319  18.450  17.964  1.00  0.00     0.020 C 
HETATM    7  C   LIG     1      24.209  19.782  17.980  1.00  0.00    -0.067 C 
HETATM    8  C   LIG     1      23.920  20.452  19.304  1.00  0.00     0.051 C 
HETATM    9  C   LIG     1      24.381  21.936  19.333  1.00  0.00     0.064 C 
HETATM   10  C   LIG     1      25.494  22.216  18.265  1.00  0.00     0.010 C 
HETATM   11  C   LIG     1      26.446  20.994  18.083  1.00  0.00     0.004 C 
HETATM   12  C   LIG     1      27.732  21.388  17.296  1.00  0.00     0.007 C 
HETATM   13  C   LIG     1      28.577  22.495  17.981  1.00  0.00     0.013 C 
HETATM   14  C   LIG     1      27.733  23.529  18.798  1.00  0.00    -0.008 C 
HETATM   15  C   LIG     1      27.829  23.176  20.314  1.00  0.00     0.019 C 
HETATM   16  C   LIG     1      26.280  23.565  18.279  1.00  0.00     0.002 C 
HETATM   17  C   LIG     1      25.656  24.849  18.822  1.00  0.00     0.009 C 
HETATM   18  C   LIG     1      26.849  25.807  19.004  1.00  0.00     0.040 C 
HETATM   19  C   LIG     1      28.122  25.026  18.583  1.00  0.00     0.079 C 
HETATM   20  O   LIG     1      28.363  25.301  17.206  1.00  0.00    -0.309 OA
HETATM   21  C   LIG     1      29.488  26.074  17.035  1.00  0.00     0.259 C 
HETATM   22  C   LIG     1      30.137  26.429  18.309  1.00  0.00     0.114 C 
HETATM   23  C   LIG     1      29.417  25.513  19.302  1.00  0.00     0.049 C 
HETATM   24  O   LIG     1      29.890  26.458  15.906  1.00  0.00    -0.265 OA
HETATM   25  C   LIG     1      23.200  19.252  17.269  1.00  0.00     0.053 C 
ENDROOT
BRANCH   9  26
HETATM   26  S   LIG     1      24.846  22.348  21.061  1.00  0.00    -0.087 SA
BRANCH  26  27
HETATM   27  C   LIG     1      23.194  22.143  21.741  1.00  0.00     0.182 C 
HETATM   28  C   LIG     1      22.060  22.988  21.254  1.00  0.00     0.104 C 
HETATM   29  O   LIG     1      22.996  21.294  22.596  1.00  0.00    -0.286 OA
ENDBRANCH  26  27
ENDBRANCH   9  26
TORSDOF 2
ENDMDL
MODEL 2
REMARK VINA RESULT:      -5.9      3.516      8.342
REMARK  2 active torsions:
REMARK  status: ('A' for Active; 'I' for Inactive)
REMARK    1  A    between atoms: C_9  and  S_10 
REMARK    2  A    between atoms: S_10  and  C_11 
ROOT
HETATM    1  O   LIG     1      30.173  28.302  25.771  1.00  0.00    -0.293 OA
HETATM    2  C   LIG     1      29.927  27.322  25.021  1.00  0.00     0.149 C 
HETATM    3  C   LIG     1      29.173  26.148  25.564  1.00  0.00     0.084 C 
HETATM    4  C   LIG     1      28.559  25.308  24.436  1.00  0.00     0.022 C 
HETATM    5  C   LIG     1      29.570  24.983  23.290  1.00  0.00    -0.016 C 
HETATM    6  C   LIG     1      30.684  24.055  23.831  1.00  0.00     0.020 C 
HETATM    7  C   LIG     1      30.227  26.286  22.811  1.00  0.00    -0.067 C 
HETATM    8  C   LIG     1      30.642  26.393  21.361  1.00  0.00     0.051 C 
HETATM    9  C   LIG     1      29.458  26.153  20.385  1.00  0.00     0.064 C 
HETATM   10  C   LIG     1      28.306  25.333  21.062  1.00  0.00     0.010 C 
HETATM   11  C   LIG     1      28.859  24.274  22.064  1.00  0.00     0.004 C 
HETATM   12  C   LIG     1      27.758  23.246  22.468  1.00  0.00     0.007 C 
HETATM   13  C   LIG     1      27.173  22.447  21.273  1.00  0.00     0.013 C 
HETATM   14  C   LIG     1      27.135  23.245  19.928  1.00  0.00    -0.008 C 
HETATM   15  C   LIG     1      28.330  22.792  19.035  1.00  0.00     0.019 C 
HETATM   16  C   LIG     1      27.132  24.764  20.205  1.00  0.00     0.002 C 
HETATM   17  C   LIG     1      26.683  25.442  18.912  1.00  0.00     0.009 C 
HETATM   18  C   LIG     1      25.804  24.387  18.212  1.00  0.00     0.040 C 
HETATM   19  C   LIG     1      25.803  23.128  19.120  1.00  0.00     0.079 C 
HETATM   20  O   LIG     1      24.671  23.216  19.981  1.00  0.00    -0.309 OA
HETATM   21  C   LIG     1      23.722  22.272  19.663  1.00  0.00     0.259 C 
HETATM   22  C   LIG     1      24.109  21.435  18.515  1.00  0.00     0.114 C 
HETATM   23  C   LIG     1      25.586  21.797  18.338  1.00  0.00     0.049 C 
HETATM   24  O   LIG     1      22.627  22.169  20.276  1.00  0.00    -0.265 OA
HETATM   25  C   LIG     1      30.412  27.333  23.633  1.00  0.00     0.053 C 
ENDROOT
BRANCH   9  26
HETATM   26  S   LIG     1      30.136  25.409  18.849  1.00  0.00    -0.087 SA
BRANCH  26  27
HETATM   27  C   LIG     1      29.664  26.768  17.771  1.00  0.00     0.182 C 
HETATM   28  C   LIG     1      29.567  26.569  16.291  1.00  0.00     0.104 C 
HETATM   29  O   LIG     1      29.403  27.858  18.255  1.00  0.00    -0.286 OA
ENDBRANCH  26  27
ENDBRANCH   9  26
TORSDOF 2
ENDMDL
MODEL 3
REMARK VINA RESULT:      -5.9      2.557      7.332
REMARK  2 active torsions:
REMARK  status: ('A' for Active; 'I' for Inactive)
REMARK    1  A    between atoms: C_9  and  S_10 
REMARK    2  A    between atoms: S_10  and  C_11 
ROOT
HETATM    1  O   LIG     1      28.058  27.365  18.464  1.00  0.00    -0.293 OA
HETATM    2  C   LIG     1      27.920  26.288  19.100  1.00  0.00     0.149 C 
HETATM    3  C   LIG     1      28.492  26.166  20.479  1.00  0.00     0.084 C 
HETATM    4  C   LIG     1      27.830  25.021  21.259  1.00  0.00     0.022 C 
HETATM    5  C   LIG     1      27.749  23.690  20.446  1.00  0.00    -0.016 C 
HETATM    6  C   LIG     1      29.177  23.146  20.198  1.00  0.00     0.020 C 
HETATM    7  C   LIG     1      27.103  23.969  19.080  1.00  0.00    -0.067 C 
HETATM    8  C   LIG     1      26.282  22.876  18.435  1.00  0.00     0.051 C 
HETATM    9  C   LIG     1      25.117  22.394  19.343  1.00  0.00     0.064 C 
HETATM   10  C   LIG     1      25.390  22.713  20.853  1.00  0.00     0.010 C 
HETATM   11  C   LIG     1      26.904  22.588  21.209  1.00  0.00     0.004 C 
HETATM   12  C   LIG     1      27.124  22.565  22.752  1.00  0.00     0.007 C 
HETATM   13  C   LIG     1      26.412  21.389  23.474  1.00  0.00     0.013 C 
HETATM   14  C   LIG     1      25.069  20.947  22.802  1.00  0.00    -0.008 C 
HETATM   15  C   LIG     1      25.322  19.658  21.963  1.00  0.00     0.019 C 
HETATM   16  C   LIG     1      24.481  22.104  21.966  1.00  0.00     0.002 C 
HETATM   17  C   LIG     1      23.019  21.750  21.701  1.00  0.00     0.009 C 
HETATM   18  C   LIG     1      22.620  20.855  22.891  1.00  0.00     0.040 C 
HETATM   19  C   LIG     1      23.879  20.708  23.785  1.00  0.00     0.079 C 
HETATM   20  O   LIG     1      23.824  21.724  24.782  1.00  0.00    -0.309 OA
HETATM   21  C   LIG     1      23.590  21.194  26.030  1.00  0.00     0.259 C 
HETATM   22  C   LIG     1      23.441  19.729  26.011  1.00  0.00     0.114 C 
HETATM   23  C   LIG     1      23.912  19.378  24.598  1.00  0.00     0.049 C 
HETATM   24  O   LIG     1      23.484  21.903  27.066  1.00  0.00    -0.265 OA
HETATM   25  C   LIG     1      27.226  25.158  18.466  1.00  0.00     0.053 C 
ENDROOT
BRANCH   9  26
HETATM   26  S   LIG     1      24.809  20.622  18.971  1.00  0.00    -0.087 SA
BRANCH  26  27
HETATM   27  C   LIG     1      23.215  20.882  18.182  1.00  0.00     0.182 C 
HETATM   28  C   LIG     1      22.493  19.744  17.531  1.00  0.00     0.104 C 
HETATM   29  O   LIG     1      22.712  21.994  18.194  1.00  0.00    -0.286 OA
ENDBRANCH  26  27
ENDBRANCH   9  26
TORSDOF 2
ENDMDL
MODEL 4
REMARK VINA RESULT:      -5.6      2.263      6.974
REMARK  2 active torsions:
REMARK  status: ('A' for Active; 'I' for Inactive)
REMARK    1  A    between atoms: C_9  and  S_10 
REMARK    2  A    between atoms: S_10  and  C_11 
ROOT
HETATM    1  O   LIG     1      30.023  26.932  14.895  1.00  0.00    -0.293 OA
HETATM    2  C   LIG     1      29.665  26.227  15.874  1.00  0.00     0.149 C 
HETATM    3  C   LIG     1      29.184  26.890  17.127  1.00  0.00     0.084 C 
HETATM    4  C   LIG     1      28.359  25.925  17.989  1.00  0.00     0.022 C 
HETATM    5  C   LIG     1      29.047  24.536  18.188  1.00  0.00    -0.016 C 
HETATM    6  C   LIG     1      30.338  24.713  19.023  1.00  0.00     0.020 C 
HETATM    7  C   LIG     1      29.441  23.966  16.817  1.00  0.00    -0.067 C 
HETATM    8  C   LIG     1      29.439  22.466  16.633  1.00  0.00     0.051 C 
HETATM    9  C   LIG     1      28.059  21.829  16.955  1.00  0.00     0.064 C 
HETATM   10  C   LIG     1      27.204  22.746  17.896  1.00  0.00     0.010 C 
HETATM   11  C   LIG     1      28.092  23.509  18.926  1.00  0.00     0.004 C 
HETATM   12  C   LIG     1      27.229  24.138  20.062  1.00  0.00     0.007 C 
HETATM   13  C   LIG     1      26.410  23.103  20.880  1.00  0.00     0.013 C 
HETATM   14  C   LIG     1      25.945  21.860  20.052  1.00  0.00    -0.008 C 
HETATM   15  C   LIG     1      26.888  20.659  20.368  1.00  0.00     0.019 C 
HETATM   16  C   LIG     1      25.893  22.205  18.548  1.00  0.00     0.002 C 
HETATM   17  C   LIG     1      25.058  21.115  17.880  1.00  0.00     0.009 C 
HETATM   18  C   LIG     1      24.112  20.621  18.992  1.00  0.00     0.040 C 
HETATM   19  C   LIG     1      24.459  21.431  20.269  1.00  0.00     0.079 C 
HETATM   20  O   LIG     1      23.598  22.566  20.311  1.00  0.00    -0.309 OA
HETATM   21  C   LIG     1      22.679  22.464  21.329  1.00  0.00     0.259 C 
HETATM   22  C   LIG     1      22.809  21.213  22.096  1.00  0.00     0.114 C 
HETATM   23  C   LIG     1      24.148  20.668  21.593  1.00  0.00     0.049 C 
HETATM   24  O   LIG     1      21.803  23.341  21.550  1.00  0.00    -0.265 OA
HETATM   25  C   LIG     1      29.755  24.762  15.780  1.00  0.00     0.053 C 
ENDROOT
BRANCH   9  26
HETATM   26  S   LIG     1      28.356  20.133  17.591  1.00  0.00    -0.087 SA
BRANCH  26  27
HETATM   27  C   LIG     1      28.005  19.298  16.037  1.00  0.00     0.182 C 
HETATM   28  C   LIG     1      27.111  19.929  15.018  1.00  0.00     0.104 C 
HETATM   29  O   LIG     1      28.518  18.214  15.807  1.00  0.00    -0.286 OA
ENDBRANCH  26  27
ENDBRANCH   9  26
TORSDOF 2
ENDMDL
MODEL 5
REMARK VINA RESULT:      -5.4      2.842      7.454
REMARK  2 active torsions:
REMARK  status: ('A' for Active; 'I' for Inactive)
REMARK    1  A    between atoms: C_9  and  S_10 
REMARK    2  A    between atoms: S_10  and  C_11 
ROOT
HETATM    1  O   LIG     1      22.847  21.868  27.335  1.00  0.00    -0.293 OA
HETATM    2  C   LIG     1      23.233  21.295  26.283  1.00  0.00     0.149 C 
HETATM    3  C   LIG     1      22.655  19.965  25.911  1.00  0.00     0.084 C 
HETATM    4  C   LIG     1      22.860  19.664  24.420  1.00  0.00     0.022 C 
HETATM    5  C   LIG     1      24.324  19.918  23.937  1.00  0.00    -0.016 C 
HETATM    6  C   LIG     1      25.277  18.906  24.618  1.00  0.00     0.020 C 
HETATM    7  C   LIG     1      24.757  21.332  24.353  1.00  0.00    -0.067 C 
HETATM    8  C   LIG     1      25.735  22.075  23.472  1.00  0.00     0.051 C 
HETATM    9  C   LIG     1      25.227  22.220  22.011  1.00  0.00     0.064 C 
HETATM   10  C   LIG     1      24.156  21.130  21.660  1.00  0.00     0.010 C 
HETATM   11  C   LIG     1      24.457  19.772  22.364  1.00  0.00     0.004 C 
HETATM   12  C   LIG     1      23.607  18.616  21.754  1.00  0.00     0.007 C 
HETATM   13  C   LIG     1      23.857  18.382  20.239  1.00  0.00     0.013 C 
HETATM   14  C   LIG     1      24.219  19.680  19.444  1.00  0.00    -0.008 C 
HETATM   15  C   LIG     1      25.759  19.718  19.210  1.00  0.00     0.019 C 
HETATM   16  C   LIG     1      23.691  20.928  20.184  1.00  0.00     0.002 C 
HETATM   17  C   LIG     1      23.710  22.073  19.174  1.00  0.00     0.009 C 
HETATM   18  C   LIG     1      23.554  21.380  17.806  1.00  0.00     0.040 C 
HETATM   19  C   LIG     1      23.477  19.855  18.081  1.00  0.00     0.079 C 
HETATM   20  O   LIG     1      22.100  19.505  18.196  1.00  0.00    -0.309 OA
HETATM   21  C   LIG     1      21.682  18.743  17.129  1.00  0.00     0.259 C 
HETATM   22  C   LIG     1      22.751  18.504  16.143  1.00  0.00     0.114 C 
HETATM   23  C   LIG     1      23.995  18.983  16.896  1.00  0.00     0.049 C 
HETATM   24  O   LIG     1      20.500  18.330  17.004  1.00  0.00    -0.265 OA
HETATM   25  C   LIG     1      24.268  21.929  25.453  1.00  0.00     0.053 C 
ENDROOT
BRANCH   9  26
HETATM   26  S   LIG     1      26.693  22.247  20.905  1.00  0.00    -0.087 SA
BRANCH  26  27
HETATM   27  C   LIG     1      26.834  24.039  20.843  1.00  0.00     0.182 C 
HETATM   28  C   LIG     1      26.090  24.826  19.810  1.00  0.00     0.104 C 
HETATM   29  O   LIG     1      27.529  24.616  21.663  1.00  0.00    -0.286 OA
ENDBRANCH  26  27
ENDBRANCH   9  26
TORSDOF 2
ENDMDL
MODEL 6
REMARK VINA RESULT:      -5.4      3.521      7.166
REMARK  2 active torsions:
REMARK  status: ('A' for Active; 'I' for Inactive)
REMARK    1  A    between atoms: C_9  and  S_10 
REMARK    2  A    between atoms: S_10  and  C_11 
ROOT
HETATM    1  O   LIG     1      28.319  27.587  18.254  1.00  0.00    -0.293 OA
HETATM    2  C   LIG     1      28.320  26.511  18.906  1.00  0.00     0.149 C 
HETATM    3  C   LIG     1      29.482  26.185  19.793  1.00  0.00     0.084 C 
HETATM    4  C   LIG     1      29.106  25.128  20.841  1.00  0.00     0.022 C 
HETATM    5  C   LIG     1      28.360  23.897  20.233  1.00  0.00    -0.016 C 
HETATM    6  C   LIG     1      29.320  23.119  19.301  1.00  0.00     0.020 C 
HETATM    7  C   LIG     1      27.174  24.389  19.390  1.00  0.00    -0.067 C 
HETATM    8  C   LIG     1      25.943  23.517  19.301  1.00  0.00     0.051 C 
HETATM    9  C   LIG     1      25.342  23.193  20.696  1.00  0.00     0.064 C 
HETATM   10  C   LIG     1      26.408  23.345  21.835  1.00  0.00     0.010 C 
HETATM   11  C   LIG     1      27.831  22.917  21.360  1.00  0.00     0.004 C 
HETATM   12  C   LIG     1      28.802  22.742  22.567  1.00  0.00     0.007 C 
HETATM   13  C   LIG     1      28.348  21.668  23.592  1.00  0.00     0.013 C 
HETATM   14  C   LIG     1      26.795  21.532  23.728  1.00  0.00    -0.008 C 
HETATM   15  C   LIG     1      26.324  20.283  22.923  1.00  0.00     0.019 C 
HETATM   16  C   LIG     1      26.100  22.835  23.278  1.00  0.00     0.002 C 
HETATM   17  C   LIG     1      24.674  22.777  23.820  1.00  0.00     0.009 C 
HETATM   18  C   LIG     1      24.776  21.887  25.074  1.00  0.00     0.040 C 
HETATM   19  C   LIG     1      26.259  21.445  25.192  1.00  0.00     0.079 C 
HETATM   20  O   LIG     1      26.923  22.379  26.039  1.00  0.00    -0.309 OA
HETATM   21  C   LIG     1      27.265  21.812  27.245  1.00  0.00     0.259 C 
HETATM   22  C   LIG     1      26.844  20.404  27.355  1.00  0.00     0.114 C 
HETATM   23  C   LIG     1      26.444  20.076  25.914  1.00  0.00     0.049 C 
HETATM   24  O   LIG     1      27.847  22.450  28.161  1.00  0.00    -0.265 OA
HETATM   25  C   LIG     1      27.194  25.577  18.762  1.00  0.00     0.053 C 
ENDROOT
BRANCH   9  26
HETATM   26  S   LIG     1      24.548  21.540  20.598  1.00  0.00    -0.087 SA
BRANCH  26  27
HETATM   27  C   LIG     1      22.905  22.157  20.203  1.00  0.00     0.182 C 
HETATM   28  C   LIG     1      22.063  22.808  21.254  1.00  0.00     0.104 C 
HETATM   29  O   LIG     1      22.483  22.058  19.062  1.00  0.00    -0.286 OA
ENDBRANCH  26  27
ENDBRANCH   9  26
TORSDOF 2
ENDMDL
MODEL 7
REMARK VINA RESULT:      -5.3      5.691      7.912
REMARK  2 active torsions:
REMARK  status: ('A' for Active; 'I' for Inactive)
REMARK    1  A    between atoms: C_9  and  S_10 
REMARK    2  A    between atoms: S_10  and  C_11 
ROOT
HETATM    1  O   LIG     1      25.857  25.413  18.691  1.00  0.00    -0.293 OA
HETATM    2  C   LIG     1      26.493  25.047  19.715  1.00  0.00     0.149 C 
HETATM    3  C   LIG     1      27.800  25.698  20.044  1.00  0.00     0.084 C 
HETATM    4  C   LIG     1      28.172  25.492  21.519  1.00  0.00     0.022 C 
HETATM    5  C   LIG     1      28.024  24.009  21.988  1.00  0.00    -0.016 C 
HETATM    6  C   LIG     1      29.062  23.128  21.254  1.00  0.00     0.020 C 
HETATM    7  C   LIG     1      26.622  23.499  21.621  1.00  0.00    -0.067 C 
HETATM    8  C   LIG     1      25.974  22.467  22.515  1.00  0.00     0.051 C 
HETATM    9  C   LIG     1      25.857  22.947  23.988  1.00  0.00     0.064 C 
HETATM   10  C   LIG     1      26.895  24.076  24.313  1.00  0.00     0.010 C 
HETATM   11  C   LIG     1      28.239  23.866  23.552  1.00  0.00     0.004 C 
HETATM   12  C   LIG     1      29.367  24.774  24.130  1.00  0.00     0.007 C 
HETATM   13  C   LIG     1      29.675  24.519  25.630  1.00  0.00     0.013 C 
HETATM   14  C   LIG     1      28.434  24.071  26.470  1.00  0.00    -0.008 C 
HETATM   15  C   LIG     1      28.495  22.528  26.682  1.00  0.00     0.019 C 
HETATM   16  C   LIG     1      27.128  24.533  25.788  1.00  0.00     0.002 C 
HETATM   17  C   LIG     1      26.027  24.433  26.841  1.00  0.00     0.009 C 
HETATM   18  C   LIG     1      26.763  24.612  28.183  1.00  0.00     0.040 C 
HETATM   19  C   LIG     1      28.269  24.783  27.850  1.00  0.00     0.079 C 
HETATM   20  O   LIG     1      28.534  26.179  27.743  1.00  0.00    -0.309 OA
HETATM   21  C   LIG     1      29.311  26.628  28.786  1.00  0.00     0.259 C 
HETATM   22  C   LIG     1      29.651  25.562  29.745  1.00  0.00     0.114 C 
HETATM   23  C   LIG     1      29.217  24.302  28.992  1.00  0.00     0.049 C 
HETATM   24  O   LIG     1      29.658  27.831  28.912  1.00  0.00    -0.265 OA
HETATM   25  C   LIG     1      25.954  23.966  20.552  1.00  0.00     0.053 C 
ENDROOT
BRANCH   9  26
HETATM   26  S   LIG     1      25.960  21.468  25.072  1.00  0.00    -0.087 SA
BRANCH  26  27
HETATM   27  C   LIG     1      24.194  21.363  25.396  1.00  0.00     0.182 C 
HETATM   28  C   LIG     1      23.652  21.659  26.759  1.00  0.00     0.104 C 
HETATM   29  O   LIG     1      23.433  21.066  24.490  1.00  0.00    -0.286 OA
ENDBRANCH  26  27
ENDBRANCH   9  26
TORSDOF 2
ENDMDL
MODEL 8
REMARK VINA RESULT:      -5.3      4.186      7.898
REMARK  2 active torsions:
REMARK  status: ('A' for Active; 'I' for Inactive)
REMARK    1  A    between atoms: C_9  and  S_10 
REMARK    2  A    between atoms: S_10  and  C_11 
ROOT
HETATM    1  O   LIG     1      19.969  20.305  28.648  1.00  0.00    -0.293 OA
HETATM    2  C   LIG     1      20.771  20.031  27.717  1.00  0.00     0.149 C 
HETATM    3  C   LIG     1      20.421  18.957  26.733  1.00  0.00     0.084 C 
HETATM    4  C   LIG     1      21.240  19.094  25.442  1.00  0.00     0.022 C 
HETATM    5  C   LIG     1      22.767  19.294  25.701  1.00  0.00    -0.016 C 
HETATM    6  C   LIG     1      23.357  18.013  26.339  1.00  0.00     0.020 C 
HETATM    7  C   LIG     1      22.965  20.453  26.691  1.00  0.00    -0.067 C 
HETATM    8  C   LIG     1      24.214  21.296  26.572  1.00  0.00     0.051 C 
HETATM    9  C   LIG     1      24.368  21.935  25.164  1.00  0.00     0.064 C 
HETATM   10  C   LIG     1      23.559  21.145  24.078  1.00  0.00     0.010 C 
HETATM   11  C   LIG     1      23.552  19.611  24.361  1.00  0.00     0.004 C 
HETATM   12  C   LIG     1      23.055  18.808  23.121  1.00  0.00     0.007 C 
HETATM   13  C   LIG     1      23.923  19.008  21.850  1.00  0.00     0.013 C 
HETATM   14  C   LIG     1      24.570  20.429  21.736  1.00  0.00    -0.008 C 
HETATM   15  C   LIG     1      26.064  20.341  22.169  1.00  0.00     0.019 C 
HETATM   16  C   LIG     1      23.762  21.454  22.562  1.00  0.00     0.002 C 
HETATM   17  C   LIG     1      24.191  22.837  22.077  1.00  0.00     0.009 C 
HETATM   18  C   LIG     1      24.635  22.611  20.619  1.00  0.00     0.040 C 
HETATM   19  C   LIG     1      24.469  21.096  20.328  1.00  0.00     0.079 C 
HETATM   20  O   LIG     1      23.178  20.903  19.758  1.00  0.00    -0.309 OA
HETATM   21  C   LIG     1      23.259  20.556  18.429  1.00  0.00     0.259 C 
HETATM   22  C   LIG     1      24.646  20.491  17.939  1.00  0.00     0.114 C 
HETATM   23  C   LIG     1      25.450  20.561  19.239  1.00  0.00     0.049 C 
HETATM   24  O   LIG     1      22.244  20.351  17.713  1.00  0.00    -0.265 OA
HETATM   25  C   LIG     1      22.051  20.749  27.629  1.00  0.00     0.053 C 
ENDROOT
BRANCH   9  26
HETATM   26  S   LIG     1      26.163  22.108  24.817  1.00  0.00    -0.087 SA
BRANCH  26  27
HETATM   27  C   LIG     1      26.284  23.817  25.363  1.00  0.00     0.182 C 
HETATM   28  C   LIG     1      27.424  24.679  24.920  1.00  0.00     0.104 C 
HETATM   29  O   LIG     1      25.418  24.279  26.089  1.00  0.00    -0.286 OA
ENDBRANCH  26  27
ENDBRANCH   9  26
TORSDOF 2
ENDMDL
MODEL 9
REMARK VINA RESULT:      -5.2      3.249      7.489
REMARK  2 active torsions:
REMARK  status: ('A' for Active; 'I' for Inactive)
REMARK    1  A    between atoms: C_9  and  S_10 
REMARK    2  A    between atoms: S_10  and  C_11 
ROOT
HETATM    1  O   LIG     1      26.199  25.078  27.077  1.00  0.00    -0.293 OA
HETATM    2  C   LIG     1      26.414  24.289  26.120  1.00  0.00     0.149 C 
HETATM    3  C   LIG     1      25.828  22.911  26.153  1.00  0.00     0.084 C 
HETATM    4  C   LIG     1      25.777  22.291  24.749  1.00  0.00     0.022 C 
HETATM    5  C   LIG     1      27.123  22.430  23.967  1.00  0.00    -0.016 C 
HETATM    6  C   LIG     1      28.217  21.588  24.666  1.00  0.00     0.020 C 
HETATM    7  C   LIG     1      27.569  23.900  23.984  1.00  0.00    -0.067 C 
HETATM    8  C   LIG     1      28.348  24.430  22.802  1.00  0.00     0.051 C 
HETATM    9  C   LIG     1      27.585  24.254  21.460  1.00  0.00     0.064 C 
HETATM   10  C   LIG     1      26.509  23.117  21.551  1.00  0.00     0.010 C 
HETATM   11  C   LIG     1      26.980  21.944  22.465  1.00  0.00     0.004 C 
HETATM   12  C   LIG     1      26.079  20.685  22.281  1.00  0.00     0.007 C 
HETATM   13  C   LIG     1      26.065  20.126  20.833  1.00  0.00     0.013 C 
HETATM   14  C   LIG     1      26.233  21.218  19.724  1.00  0.00    -0.008 C 
HETATM   15  C   LIG     1      27.705  21.200  19.214  1.00  0.00     0.019 C 
HETATM   16  C   LIG     1      25.798  22.599  20.262  1.00  0.00     0.002 C 
HETATM   17  C   LIG     1      25.596  23.496  19.043  1.00  0.00     0.009 C 
HETATM   18  C   LIG     1      25.226  22.522  17.907  1.00  0.00     0.040 C 
HETATM   19  C   LIG     1      25.255  21.094  18.513  1.00  0.00     0.079 C 
HETATM   20  O   LIG     1      23.935  20.781  18.947  1.00  0.00    -0.309 OA
HETATM   21  C   LIG     1      23.363  19.806  18.162  1.00  0.00     0.259 C 
HETATM   22  C   LIG     1      24.248  19.355  17.074  1.00  0.00     0.114 C 
HETATM   23  C   LIG     1      25.587  19.983  17.470  1.00  0.00     0.049 C 
HETATM   24  O   LIG     1      22.193  19.379  18.346  1.00  0.00    -0.265 OA
HETATM   25  C   LIG     1      27.262  24.723  25.000  1.00  0.00     0.053 C 
ENDROOT
BRANCH   9  26
HETATM   26  S   LIG     1      28.830  24.036  20.128  1.00  0.00    -0.087 SA
BRANCH  26  27
HETATM   27  C   LIG     1      28.943  25.780  19.705  1.00  0.00     0.182 C 
HETATM   28  C   LIG     1      27.782  26.491  19.086  1.00  0.00     0.104 C 
HETATM   29  O   LIG     1      29.973  26.391  19.943  1.00  0.00    -0.286 OA
ENDBRANCH  26  27
ENDBRANCH   9  26
TORSDOF 2
ENDMDL
MODEL 10
REMARK VINA RESULT:      -5.0     13.438     16.293
REMARK  2 active torsions:
REMARK  status: ('A' for Active; 'I' for Inactive)
REMARK    1  A    between atoms: C_9  and  S_10 
REMARK    2  A    between atoms: S_10  and  C_11 
ROOT
HETATM    1  O   LIG     1      24.219  21.834  38.129  1.00  0.00    -0.293 OA
HETATM    2  C   LIG     1      25.100  22.230  37.322  1.00  0.00     0.149 C 
HETATM    3  C   LIG     1      25.591  21.306  36.252  1.00  0.00     0.084 C 
HETATM    4  C   LIG     1      26.263  22.080  35.109  1.00  0.00     0.022 C 
HETATM    5  C   LIG     1      27.298  23.138  35.609  1.00  0.00    -0.016 C 
HETATM    6  C   LIG     1      28.495  22.416  36.275  1.00  0.00     0.020 C 
HETATM    7  C   LIG     1      26.636  24.035  36.665  1.00  0.00    -0.067 C 
HETATM    8  C   LIG     1      27.090  25.472  36.776  1.00  0.00     0.051 C 
HETATM    9  C   LIG     1      26.943  26.247  35.438  1.00  0.00     0.064 C 
HETATM   10  C   LIG     1      26.911  25.276  34.208  1.00  0.00     0.010 C 
HETATM   11  C   LIG     1      27.836  24.038  34.421  1.00  0.00     0.004 C 
HETATM   12  C   LIG     1      28.068  23.267  33.086  1.00  0.00     0.007 C 
HETATM   13  C   LIG     1      28.736  24.119  31.973  1.00  0.00     0.013 C 
HETATM   14  C   LIG     1      28.362  25.638  32.021  1.00  0.00    -0.008 C 
HETATM   15  C   LIG     1      29.536  26.428  32.674  1.00  0.00     0.019 C 
HETATM   16  C   LIG     1      27.019  25.837  32.755  1.00  0.00     0.002 C 
HETATM   17  C   LIG     1      26.534  27.241  32.402  1.00  0.00     0.009 C 
HETATM   18  C   LIG     1      27.157  27.526  31.021  1.00  0.00     0.040 C 
HETATM   19  C   LIG     1      28.001  26.279  30.643  1.00  0.00     0.079 C 
HETATM   20  O   LIG     1      27.172  25.412  29.874  1.00  0.00    -0.309 OA
HETATM   21  C   LIG     1      27.577  25.362  28.560  1.00  0.00     0.259 C 
HETATM   22  C   LIG     1      28.741  26.224  28.287  1.00  0.00     0.114 C 
HETATM   23  C   LIG     1      29.197  26.602  29.698  1.00  0.00     0.049 C 
HETATM   24  O   LIG     1      26.986  24.674  27.687  1.00  0.00    -0.265 OA
HETATM   25  C   LIG     1      25.653  23.585  37.464  1.00  0.00     0.053 C 
ENDROOT
BRANCH   9  26
HETATM   26  S   LIG     1      28.260  27.525  35.379  1.00  0.00    -0.087 SA
BRANCH  26  27
HETATM   27  C   LIG     1      27.188  28.904  35.807  1.00  0.00     0.182 C 
HETATM   28  C   LIG     1      26.853  29.951  34.794  1.00  0.00     0.104 C 
HETATM   29  O   LIG     1      26.717  28.972  36.931  1.00  0.00    -0.286 OA
ENDBRANCH  26  27
ENDBRANCH   9  26
TORSDOF 2
ENDMDL
MODEL 11
REMARK VINA RESULT:      -4.9      3.639      8.823
REMARK  2 active torsions:
REMARK  status: ('A' for Active; 'I' for Inactive)
REMARK    1  A    between atoms: C_9  and  S_10 
REMARK    2  A    between atoms: S_10  and  C_11 
ROOT
HETATM    1  O   LIG     1      29.537  27.735  24.261  1.00  0.00    -0.293 OA
HETATM    2  C   LIG     1      29.164  26.536  24.169  1.00  0.00     0.149 C 
HETATM    3  C   LIG     1      29.110  25.683  25.398  1.00  0.00     0.084 C 
HETATM    4  C   LIG     1      28.203  24.462  25.192  1.00  0.00     0.022 C 
HETATM    5  C   LIG     1      28.491  23.700  23.858  1.00  0.00    -0.016 C 
HETATM    6  C   LIG     1      29.901  23.064  23.920  1.00  0.00     0.020 C 
HETATM    7  C   LIG     1      28.470  24.698  22.690  1.00  0.00    -0.067 C 
HETATM    8  C   LIG     1      28.012  24.210  21.335  1.00  0.00     0.051 C 
HETATM    9  C   LIG     1      26.582  23.602  21.374  1.00  0.00     0.064 C 
HETATM   10  C   LIG     1      26.194  23.129  22.818  1.00  0.00     0.010 C 
HETATM   11  C   LIG     1      27.423  22.560  23.592  1.00  0.00     0.004 C 
HETATM   12  C   LIG     1      26.978  21.786  24.870  1.00  0.00     0.007 C 
HETATM   13  C   LIG     1      26.050  20.575  24.584  1.00  0.00     0.013 C 
HETATM   14  C   LIG     1      25.118  20.765  23.341  1.00  0.00    -0.008 C 
HETATM   15  C   LIG     1      25.721  19.987  22.132  1.00  0.00     0.019 C 
HETATM   16  C   LIG     1      24.913  22.267  23.048  1.00  0.00     0.002 C 
HETATM   17  C   LIG     1      23.703  22.369  22.123  1.00  0.00     0.009 C 
HETATM   18  C   LIG     1      22.858  21.124  22.459  1.00  0.00     0.040 C 
HETATM   19  C   LIG     1      23.631  20.338  23.551  1.00  0.00     0.079 C 
HETATM   20  O   LIG     1      23.147  20.768  24.820  1.00  0.00    -0.309 OA
HETATM   21  C   LIG     1      22.422  19.780  25.446  1.00  0.00     0.259 C 
HETATM   22  C   LIG     1      22.320  18.550  24.642  1.00  0.00     0.114 C 
HETATM   23  C   LIG     1      23.344  18.805  23.533  1.00  0.00     0.049 C 
HETATM   24  O   LIG     1      21.882  19.937  26.572  1.00  0.00    -0.265 OA
HETATM   25  C   LIG     1      28.817  25.986  22.850  1.00  0.00     0.053 C 
ENDROOT
BRANCH   9  26
HETATM   26  S   LIG     1      26.488  22.300  20.083  1.00  0.00    -0.087 SA
BRANCH  26  27
HETATM   27  C   LIG     1      26.857  23.394  18.703  1.00  0.00     0.182 C 
HETATM   28  C   LIG     1      25.930  24.513  18.350  1.00  0.00     0.104 C 
HETATM   29  O   LIG     1      27.882  23.228  18.062  1.00  0.00    -0.286 OA
ENDBRANCH  26  27
ENDBRANCH   9  26
TORSDOF 2
ENDMDL
MODEL 12
REMARK VINA RESULT:      -4.8     14.064     17.531
REMARK  2 active torsions:
REMARK  status: ('A' for Active; 'I' for Inactive)
REMARK    1  A    between atoms: C_9  and  S_10 
REMARK    2  A    between atoms: S_10  and  C_11 
ROOT
HETATM    1  O   LIG     1      25.437  31.828  35.981  1.00  0.00    -0.293 OA
HETATM    2  C   LIG     1      26.240  30.872  35.824  1.00  0.00     0.149 C 
HETATM    3  C   LIG     1      26.360  29.825  36.888  1.00  0.00     0.084 C 
HETATM    4  C   LIG     1      26.984  28.536  36.335  1.00  0.00     0.022 C 
HETATM    5  C   LIG     1      28.276  28.789  35.494  1.00  0.00    -0.016 C 
HETATM    6  C   LIG     1      29.394  29.335  36.415  1.00  0.00     0.020 C 
HETATM    7  C   LIG     1      27.982  29.849  34.422  1.00  0.00    -0.067 C 
HETATM    8  C   LIG     1      28.727  29.770  33.109  1.00  0.00     0.051 C 
HETATM    9  C   LIG     1      28.528  28.405  32.394  1.00  0.00     0.064 C 
HETATM   10  C   LIG     1      28.108  27.280  33.402  1.00  0.00     0.010 C 
HETATM   11  C   LIG     1      28.788  27.463  34.793  1.00  0.00     0.004 C 
HETATM   12  C   LIG     1      28.647  26.180  35.666  1.00  0.00     0.007 C 
HETATM   13  C   LIG     1      29.287  24.914  35.036  1.00  0.00     0.013 C 
HETATM   14  C   LIG     1      29.237  24.885  33.472  1.00  0.00    -0.008 C 
HETATM   15  C   LIG     1      30.633  25.293  32.913  1.00  0.00     0.019 C 
HETATM   16  C   LIG     1      28.094  25.785  32.955  1.00  0.00     0.002 C 
HETATM   17  C   LIG     1      27.850  25.386  31.501  1.00  0.00     0.009 C 
HETATM   18  C   LIG     1      28.291  23.910  31.429  1.00  0.00     0.040 C 
HETATM   19  C   LIG     1      28.798  23.524  32.844  1.00  0.00     0.079 C 
HETATM   20  O   LIG     1      27.702  22.958  33.558  1.00  0.00    -0.309 OA
HETATM   21  C   LIG     1      27.875  21.609  33.763  1.00  0.00     0.259 C 
HETATM   22  C   LIG     1      29.129  21.099  33.182  1.00  0.00     0.114 C 
HETATM   23  C   LIG     1      29.870  22.392  32.833  1.00  0.00     0.049 C 
HETATM   24  O   LIG     1      27.028  20.893  34.357  1.00  0.00    -0.265 OA
HETATM   25  C   LIG     1      27.069  30.816  34.610  1.00  0.00     0.053 C 
ENDROOT
BRANCH   9  26
HETATM   26  S   LIG     1      30.048  28.049  31.428  1.00  0.00    -0.087 SA
BRANCH  26  27
HETATM   27  C   LIG     1      29.444  28.745  29.884  1.00  0.00     0.182 C 
HETATM   28  C   LIG     1      28.354  28.066  29.117  1.00  0.00     0.104 C 
HETATM   29  O   LIG     1      29.917  29.792  29.470  1.00  0.00    -0.286 OA
ENDBRANCH  26  27
ENDBRANCH   9  26
TORSDOF 2
ENDMDL
MODEL 13
REMARK VINA RESULT:      -4.7     10.386     13.547
REMARK  2 active torsions:
REMARK  status: ('A' for Active; 'I' for Inactive)
REMARK    1  A    between atoms: C_9  and  S_10 
REMARK    2  A    between atoms: S_10  and  C_11 
ROOT
HETATM    1  O   LIG     1      30.150  28.626  34.559  1.00  0.00    -0.293 OA
HETATM    2  C   LIG     1      29.445  28.036  33.700  1.00  0.00     0.149 C 
HETATM    3  C   LIG     1      28.652  28.839  32.716  1.00  0.00     0.084 C 
HETATM    4  C   LIG     1      28.266  27.999  31.491  1.00  0.00     0.022 C 
HETATM    5  C   LIG     1      27.660  26.608  31.865  1.00  0.00    -0.016 C 
HETATM    6  C   LIG     1      26.300  26.810  32.574  1.00  0.00     0.020 C 
HETATM    7  C   LIG     1      28.605  25.890  32.841  1.00  0.00    -0.067 C 
HETATM    8  C   LIG     1      28.668  24.381  32.802  1.00  0.00     0.051 C 
HETATM    9  C   LIG     1      29.050  23.838  31.397  1.00  0.00     0.064 C 
HETATM   10  C   LIG     1      28.731  24.879  30.268  1.00  0.00     0.010 C 
HETATM   11  C   LIG     1      27.443  25.700  30.584  1.00  0.00     0.004 C 
HETATM   12  C   LIG     1      26.942  26.474  29.326  1.00  0.00     0.007 C 
HETATM   13  C   LIG     1      26.587  25.560  28.123  1.00  0.00     0.013 C 
HETATM   14  C   LIG     1      27.456  24.262  28.029  1.00  0.00    -0.008 C 
HETATM   15  C   LIG     1      26.632  23.059  28.579  1.00  0.00     0.019 C 
HETATM   16  C   LIG     1      28.798  24.460  28.766  1.00  0.00     0.002 C 
HETATM   17  C   LIG     1      29.727  23.347  28.286  1.00  0.00     0.009 C 
HETATM   18  C   LIG     1      29.217  23.005  26.872  1.00  0.00     0.040 C 
HETATM   19  C   LIG     1      27.993  23.921  26.603  1.00  0.00     0.079 C 
HETATM   20  O   LIG     1      28.465  25.090  25.938  1.00  0.00    -0.309 OA
HETATM   21  C   LIG     1      28.047  25.128  24.628  1.00  0.00     0.259 C 
HETATM   22  C   LIG     1      27.243  23.954  24.249  1.00  0.00     0.114 C 
HETATM   23  C   LIG     1      26.963  23.305  25.607  1.00  0.00     0.049 C 
HETATM   24  O   LIG     1      28.356  26.059  23.838  1.00  0.00    -0.265 OA
HETATM   25  C   LIG     1      29.387  26.567  33.698  1.00  0.00     0.053 C 
ENDROOT
BRANCH   9  26
HETATM   26  S   LIG     1      28.245  22.201  31.188  1.00  0.00    -0.087 SA
BRANCH  26  27
HETATM   27  C   LIG     1      29.659  21.237  31.742  1.00  0.00     0.182 C 
HETATM   28  C   LIG     1      30.684  20.757  30.765  1.00  0.00     0.104 C 
HETATM   29  O   LIG     1      29.789  20.991  32.931  1.00  0.00    -0.286 OA
ENDBRANCH  26  27
ENDBRANCH   9  26
TORSDOF 2
ENDMDL
MODEL 14
REMARK VINA RESULT:      -4.7      2.660      5.077
REMARK  2 active torsions:
REMARK  status: ('A' for Active; 'I' for Inactive)
REMARK    1  A    between atoms: C_9  and  S_10 
REMARK    2  A    between atoms: S_10  and  C_11 
ROOT
HETATM    1  O   LIG     1      21.709  22.935  21.250  1.00  0.00    -0.293 OA
HETATM    2  C   LIG     1      22.805  22.461  20.852  1.00  0.00     0.149 C 
HETATM    3  C   LIG     1      22.820  21.170  20.093  1.00  0.00     0.084 C 
HETATM    4  C   LIG     1      24.120  21.006  19.293  1.00  0.00     0.022 C 
HETATM    5  C   LIG     1      25.402  21.303  20.137  1.00  0.00    -0.016 C 
HETATM    6  C   LIG     1      25.552  20.233  21.245  1.00  0.00     0.020 C 
HETATM    7  C   LIG     1      25.255  22.674  20.815  1.00  0.00    -0.067 C 
HETATM    8  C   LIG     1      26.501  23.493  21.060  1.00  0.00     0.051 C 
HETATM    9  C   LIG     1      27.295  23.771  19.753  1.00  0.00     0.064 C 
HETATM   10  C   LIG     1      26.964  22.718  18.640  1.00  0.00     0.010 C 
HETATM   11  C   LIG     1      26.708  21.301  19.239  1.00  0.00     0.004 C 
HETATM   12  C   LIG     1      26.722  20.206  18.129  1.00  0.00     0.007 C 
HETATM   13  C   LIG     1      28.063  20.111  17.354  1.00  0.00     0.013 C 
HETATM   14  C   LIG     1      28.814  21.476  17.207  1.00  0.00    -0.008 C 
HETATM   15  C   LIG     1      29.967  21.535  18.254  1.00  0.00     0.019 C 
HETATM   16  C   LIG     1      27.822  22.651  17.337  1.00  0.00     0.002 C 
HETATM   17  C   LIG     1      28.531  23.884  16.781  1.00  0.00     0.009 C 
HETATM   18  C   LIG     1      29.536  23.319  15.758  1.00  0.00     0.040 C 
HETATM   19  C   LIG     1      29.382  21.775  15.783  1.00  0.00     0.079 C 
HETATM   20  O   LIG     1      28.446  21.415  14.771  1.00  0.00    -0.309 OA
HETATM   21  C   LIG     1      29.058  20.754  13.730  1.00  0.00     0.259 C 
HETATM   22  C   LIG     1      30.511  20.606  13.922  1.00  0.00     0.114 C 
HETATM   23  C   LIG     1      30.684  21.014  15.387  1.00  0.00     0.049 C 
HETATM   24  O   LIG     1      28.434  20.354  12.713  1.00  0.00    -0.265 OA
HETATM   25  C   LIG     1      24.056  23.167  21.166  1.00  0.00     0.053 C 
ENDROOT
BRANCH   9  26
HETATM   26  S   LIG     1      29.074  23.899  20.192  1.00  0.00    -0.087 SA
BRANCH  26  27
HETATM   27  C   LIG     1      29.155  25.692  20.078  1.00  0.00     0.182 C 
HETATM   28  C   LIG     1      28.128  26.453  19.302  1.00  0.00     0.104 C 
HETATM   29  O   LIG     1      30.048  26.291  20.655  1.00  0.00    -0.286 OA
ENDBRANCH  26  27
ENDBRANCH   9  26
TORSDOF 2
ENDMDL
MODEL 15
REMARK VINA RESULT:      -4.6      4.086      7.199
REMARK  2 active torsions:
REMARK  status: ('A' for Active; 'I' for Inactive)
REMARK    1  A    between atoms: C_9  and  S_10 
REMARK    2  A    between atoms: S_10  and  C_11 
ROOT
HETATM    1  O   LIG     1      28.075  25.473  17.394  1.00  0.00    -0.293 OA
HETATM    2  C   LIG     1      28.220  24.907  18.509  1.00  0.00     0.149 C 
HETATM    3  C   LIG     1      29.194  25.466  19.499  1.00  0.00     0.084 C 
HETATM    4  C   LIG     1      28.892  24.972  20.921  1.00  0.00     0.022 C 
HETATM    5  C   LIG     1      28.666  23.428  21.000  1.00  0.00    -0.016 C 
HETATM    6  C   LIG     1      29.986  22.693  20.663  1.00  0.00     0.020 C 
HETATM    7  C   LIG     1      27.613  23.016  19.960  1.00  0.00    -0.067 C 
HETATM    8  C   LIG     1      26.718  21.838  20.268  1.00  0.00     0.051 C 
HETATM    9  C   LIG     1      25.927  22.023  21.592  1.00  0.00     0.064 C 
HETATM   10  C   LIG     1      26.626  23.054  22.544  1.00  0.00     0.010 C 
HETATM   11  C   LIG     1      28.180  22.980  22.441  1.00  0.00     0.004 C 
HETATM   12  C   LIG     1      28.864  23.744  23.615  1.00  0.00     0.007 C 
HETATM   13  C   LIG     1      28.497  23.199  25.021  1.00  0.00     0.013 C 
HETATM   14  C   LIG     1      27.051  22.610  25.121  1.00  0.00    -0.008 C 
HETATM   15  C   LIG     1      27.131  21.055  25.057  1.00  0.00     0.019 C 
HETATM   16  C   LIG     1      26.149  23.213  24.022  1.00  0.00     0.002 C 
HETATM   17  C   LIG     1      24.708  22.923  24.434  1.00  0.00     0.009 C 
HETATM   18  C   LIG     1      24.761  22.828  25.972  1.00  0.00     0.040 C 
HETATM   19  C   LIG     1      26.241  23.043  26.385  1.00  0.00     0.079 C 
HETATM   20  O   LIG     1      26.418  24.429  26.659  1.00  0.00    -0.309 OA
HETATM   21  C   LIG     1      26.619  24.657  28.001  1.00  0.00     0.259 C 
HETATM   22  C   LIG     1      26.581  23.421  28.802  1.00  0.00     0.114 C 
HETATM   23  C   LIG     1      26.622  22.337  27.722  1.00  0.00     0.049 C 
HETATM   24  O   LIG     1      26.782  25.808  28.483  1.00  0.00    -0.265 OA
HETATM   25  C   LIG     1      27.452  23.690  18.808  1.00  0.00     0.053 C 
ENDROOT
BRANCH   9  26
HETATM   26  S   LIG     1      25.655  20.360  22.322  1.00  0.00    -0.087 SA
BRANCH  26  27
HETATM   27  C   LIG     1      23.873  20.351  22.079  1.00  0.00     0.182 C 
HETATM   28  C   LIG     1      23.203  21.447  21.313  1.00  0.00     0.104 C 
HETATM   29  O   LIG     1      23.209  19.430  22.530  1.00  0.00    -0.286 OA
ENDBRANCH  26  27
ENDBRANCH   9  26
TORSDOF 2
ENDMDL
MODEL 16
REMARK VINA RESULT:      -4.6      4.425      7.939
REMARK  2 active torsions:
REMARK  status: ('A' for Active; 'I' for Inactive)
REMARK    1  A    between atoms: C_9  and  S_10 
REMARK    2  A    between atoms: S_10  and  C_11 
ROOT
HETATM    1  O   LIG     1      29.768  21.888  27.749  1.00  0.00    -0.293 OA
HETATM    2  C   LIG     1      28.868  22.143  26.907  1.00  0.00     0.149 C 
HETATM    3  C   LIG     1      29.172  23.043  25.750  1.00  0.00     0.084 C 
HETATM    4  C   LIG     1      28.159  22.853  24.613  1.00  0.00     0.022 C 
HETATM    5  C   LIG     1      26.675  22.869  25.102  1.00  0.00    -0.016 C 
HETATM    6  C   LIG     1      26.321  24.278  25.635  1.00  0.00     0.020 C 
HETATM    7  C   LIG     1      26.512  21.868  26.256  1.00  0.00    -0.067 C 
HETATM    8  C   LIG     1      25.181  21.172  26.423  1.00  0.00     0.051 C 
HETATM    9  C   LIG     1      24.754  20.393  25.149  1.00  0.00     0.064 C 
HETATM   10  C   LIG     1      25.465  20.946  23.867  1.00  0.00     0.010 C 
HETATM   11  C   LIG     1      25.670  22.491  23.937  1.00  0.00     0.004 C 
HETATM   12  C   LIG     1      26.054  23.076  22.543  1.00  0.00     0.007 C 
HETATM   13  C   LIG     1      24.989  22.831  21.441  1.00  0.00     0.013 C 
HETATM   14  C   LIG     1      24.192  21.494  21.609  1.00  0.00    -0.008 C 
HETATM   15  C   LIG     1      22.796  21.811  22.225  1.00  0.00     0.019 C 
HETATM   16  C   LIG     1      25.006  20.486  22.448  1.00  0.00     0.002 C 
HETATM   17  C   LIG     1      24.372  19.116  22.217  1.00  0.00     0.009 C 
HETATM   18  C   LIG     1      23.738  19.218  20.816  1.00  0.00     0.040 C 
HETATM   19  C   LIG     1      24.011  20.657  20.303  1.00  0.00     0.079 C 
HETATM   20  O   LIG     1      25.215  20.625  19.542  1.00  0.00    -0.309 OA
HETATM   21  C   LIG     1      24.971  20.820  18.202  1.00  0.00     0.259 C 
HETATM   22  C   LIG     1      23.539  20.991  17.901  1.00  0.00     0.114 C 
HETATM   23  C   LIG     1      22.937  21.172  19.297  1.00  0.00     0.049 C 
HETATM   24  O   LIG     1      25.881  20.815  17.333  1.00  0.00    -0.265 OA
HETATM   25  C   LIG     1      27.523  21.578  27.093  1.00  0.00     0.053 C 
ENDROOT
BRANCH   9  26
HETATM   26  S   LIG     1      22.919  20.396  25.076  1.00  0.00    -0.087 SA
BRANCH  26  27
HETATM   27  C   LIG     1      22.679  19.517  26.626  1.00  0.00     0.182 C 
HETATM   28  C   LIG     1      21.889  20.133  27.737  1.00  0.00     0.104 C 
HETATM   29  O   LIG     1      23.152  18.400  26.764  1.00  0.00    -0.286 OA
ENDBRANCH  26  27
ENDBRANCH   9  26
TORSDOF 2
ENDMDL
MODEL 17
REMARK VINA RESULT:      -3.9      6.282     11.093
REMARK  2 active torsions:
REMARK  status: ('A' for Active; 'I' for Inactive)
REMARK    1  A    between atoms: C_9  and  S_10 
REMARK    2  A    between atoms: S_10  and  C_11 
ROOT
HETATM    1  O   LIG     1      29.209  27.317  28.029  1.00  0.00    -0.293 OA
HETATM    2  C   LIG     1      28.726  26.155  28.052  1.00  0.00     0.149 C 
HETATM    3  C   LIG     1      27.962  25.695  29.255  1.00  0.00     0.084 C 
HETATM    4  C   LIG     1      27.066  24.494  28.922  1.00  0.00     0.022 C 
HETATM    5  C   LIG     1      27.810  23.371  28.131  1.00  0.00    -0.016 C 
HETATM    6  C   LIG     1      28.898  22.738  29.031  1.00  0.00     0.020 C 
HETATM    7  C   LIG     1      28.504  23.989  26.907  1.00  0.00    -0.067 C 
HETATM    8  C   LIG     1      28.657  23.145  25.663  1.00  0.00     0.051 C 
HETATM    9  C   LIG     1      27.295  22.617  25.133  1.00  0.00     0.064 C 
HETATM   10  C   LIG     1      26.205  22.593  26.259  1.00  0.00     0.010 C 
HETATM   11  C   LIG     1      26.815  22.236  27.649  1.00  0.00     0.004 C 
HETATM   12  C   LIG     1      25.703  21.877  28.681  1.00  0.00     0.007 C 
HETATM   13  C   LIG     1      24.827  20.664  28.269  1.00  0.00     0.013 C 
HETATM   14  C   LIG     1      24.629  20.514  26.724  1.00  0.00    -0.008 C 
HETATM   15  C   LIG     1      25.585  19.403  26.196  1.00  0.00     0.019 C 
HETATM   16  C   LIG     1      24.840  21.873  26.022  1.00  0.00     0.002 C 
HETATM   17  C   LIG     1      24.238  21.740  24.625  1.00  0.00     0.009 C 
HETATM   18  C   LIG     1      23.138  20.672  24.783  1.00  0.00     0.040 C 
HETATM   19  C   LIG     1      23.168  20.211  26.264  1.00  0.00     0.079 C 
HETATM   20  O   LIG     1      22.228  21.005  26.984  1.00  0.00    -0.309 OA
HETATM   21  C   LIG     1      21.141  20.262  27.382  1.00  0.00     0.259 C 
HETATM   22  C   LIG     1      21.220  18.855  26.951  1.00  0.00     0.114 C 
HETATM   23  C   LIG     1      22.669  18.748  26.471  1.00  0.00     0.049 C 
HETATM   24  O   LIG     1      20.172  20.753  28.018  1.00  0.00    -0.265 OA
HETATM   25  C   LIG     1      28.948  25.257  26.908  1.00  0.00     0.053 C 
ENDROOT
BRANCH   9  26
HETATM   26  S   LIG     1      27.597  21.001  24.314  1.00  0.00    -0.087 SA
BRANCH  26  27
HETATM   27  C   LIG     1      27.542  21.641  22.635  1.00  0.00     0.182 C 
HETATM   28  C   LIG     1      28.741  22.302  22.032  1.00  0.00     0.104 C 
HETATM   29  O   LIG     1      26.522  21.517  21.977  1.00  0.00    -0.286 OA
ENDBRANCH  26  27
ENDBRANCH   9  26
TORSDOF 2
ENDMDL
MODEL 18
REMARK VINA RESULT:      -3.9      6.773      8.901
REMARK  2 active torsions:
REMARK  status: ('A' for Active; 'I' for Inactive)
REMARK    1  A    between atoms: C_9  and  S_10 
REMARK    2  A    between atoms: S_10  and  C_11 
ROOT
HETATM    1  O   LIG     1      26.144  24.423  19.703  1.00  0.00    -0.293 OA
HETATM    2  C   LIG     1      26.829  24.352  20.757  1.00  0.00     0.149 C 
HETATM    3  C   LIG     1      27.973  25.297  20.958  1.00  0.00     0.084 C 
HETATM    4  C   LIG     1      28.363  25.395  22.439  1.00  0.00     0.022 C 
HETATM    5  C   LIG     1      28.515  24.001  23.129  1.00  0.00    -0.016 C 
HETATM    6  C   LIG     1      29.719  23.248  22.514  1.00  0.00     0.020 C 
HETATM    7  C   LIG     1      27.250  23.168  22.871  1.00  0.00    -0.067 C 
HETATM    8  C   LIG     1      26.816  22.174  23.922  1.00  0.00     0.051 C 
HETATM    9  C   LIG     1      26.589  22.836  25.309  1.00  0.00     0.064 C 
HETATM   10  C   LIG     1      27.371  24.188  25.440  1.00  0.00     0.010 C 
HETATM   11  C   LIG     1      28.739  24.142  24.691  1.00  0.00     0.004 C 
HETATM   12  C   LIG     1      29.651  25.337  25.104  1.00  0.00     0.007 C 
HETATM   13  C   LIG     1      29.989  25.379  26.619  1.00  0.00     0.013 C 
HETATM   14  C   LIG     1      28.856  24.820  27.541  1.00  0.00    -0.008 C 
HETATM   15  C   LIG     1      29.228  23.372  27.980  1.00  0.00     0.019 C 
HETATM   16  C   LIG     1      27.491  24.900  26.824  1.00  0.00     0.002 C 
HETATM   17  C   LIG     1      26.422  24.739  27.902  1.00  0.00     0.009 C 
HETATM   18  C   LIG     1      27.092  25.264  29.187  1.00  0.00     0.040 C 
HETATM   19  C   LIG     1      28.535  25.685  28.802  1.00  0.00     0.079 C 
HETATM   20  O   LIG     1      28.511  27.073  28.481  1.00  0.00    -0.309 OA
HETATM   21  C   LIG     1      29.170  27.822  29.429  1.00  0.00     0.259 C 
HETATM   22  C   LIG     1      29.709  27.004  30.530  1.00  0.00     0.114 C 
HETATM   23  C   LIG     1      29.548  25.584  29.983  1.00  0.00     0.049 C 
HETATM   24  O   LIG     1      29.264  29.075  29.366  1.00  0.00    -0.265 OA
HETATM   25  C   LIG     1      26.513  23.323  21.758  1.00  0.00     0.053 C 
ENDROOT
BRANCH   9  26
HETATM   26  S   LIG     1      26.978  21.590  26.600  1.00  0.00    -0.087 SA
BRANCH  26  27
HETATM   27  C   LIG     1      28.072  20.603  25.568  1.00  0.00     0.182 C 
HETATM   28  C   LIG     1      27.575  19.358  24.905  1.00  0.00     0.104 C 
HETATM   29  O   LIG     1      29.225  20.965  25.395  1.00  0.00    -0.286 OA
ENDBRANCH  26  27
ENDBRANCH   9  26
TORSDOF 2
ENDMDL
MODEL 19
REMARK VINA RESULT:      -3.8      5.761      8.915
REMARK  2 active torsions:
REMARK  status: ('A' for Active; 'I' for Inactive)
REMARK    1  A    between atoms: C_9  and  S_10 
REMARK    2  A    between atoms: S_10  and  C_11 
ROOT
HETATM    1  O   LIG     1      28.562  21.405  31.063  1.00  0.00    -0.293 OA
HETATM    2  C   LIG     1      28.078  21.847  29.988  1.00  0.00     0.149 C 
HETATM    3  C   LIG     1      28.854  22.842  29.182  1.00  0.00     0.084 C 
HETATM    4  C   LIG     1      28.362  22.890  27.729  1.00  0.00     0.022 C 
HETATM    5  C   LIG     1      26.807  22.996  27.610  1.00  0.00    -0.016 C 
HETATM    6  C   LIG     1      26.337  24.360  28.169  1.00  0.00     0.020 C 
HETATM    7  C   LIG     1      26.158  21.887  28.452  1.00  0.00    -0.067 C 
HETATM    8  C   LIG     1      24.838  21.313  27.992  1.00  0.00     0.051 C 
HETATM    9  C   LIG     1      24.911  20.737  26.551  1.00  0.00     0.064 C 
HETATM   10  C   LIG     1      26.094  21.364  25.736  1.00  0.00     0.010 C 
HETATM   11  C   LIG     1      26.325  22.861  26.106  1.00  0.00     0.004 C 
HETATM   12  C   LIG     1      27.252  23.565  25.069  1.00  0.00     0.007 C 
HETATM   13  C   LIG     1      26.696  23.560  23.620  1.00  0.00     0.013 C 
HETATM   14  C   LIG     1      25.837  22.300  23.270  1.00  0.00    -0.008 C 
HETATM   15  C   LIG     1      24.327  22.679  23.345  1.00  0.00     0.019 C 
HETATM   16  C   LIG     1      26.209  21.122  24.198  1.00  0.00     0.002 C 
HETATM   17  C   LIG     1      25.654  19.860  23.542  1.00  0.00     0.009 C 
HETATM   18  C   LIG     1      25.627  20.190  22.037  1.00  0.00     0.040 C 
HETATM   19  C   LIG     1      26.146  21.645  21.886  1.00  0.00     0.079 C 
HETATM   20  O   LIG     1      27.549  21.583  21.649  1.00  0.00    -0.309 OA
HETATM   21  C   LIG     1      27.860  21.958  20.362  1.00  0.00     0.259 C 
HETATM   22  C   LIG     1      26.671  22.306  19.564  1.00  0.00     0.114 C 
HETATM   23  C   LIG     1      25.579  22.380  20.634  1.00  0.00     0.049 C 
HETATM   24  O   LIG     1      29.038  21.965  19.917  1.00  0.00    -0.265 OA
HETATM   25  C   LIG     1      26.744  21.401  29.559  1.00  0.00     0.053 C 
ENDROOT
BRANCH   9  26
HETATM   26  S   LIG     1      23.254  20.932  25.782  1.00  0.00    -0.087 SA
BRANCH  26  27
HETATM   27  C   LIG     1      22.380  19.926  26.990  1.00  0.00     0.182 C 
HETATM   28  C   LIG     1      21.280  20.513  27.816  1.00  0.00     0.104 C 
HETATM   29  O   LIG     1      22.677  18.750  27.121  1.00  0.00    -0.286 OA
ENDBRANCH  26  27
ENDBRANCH   9  26
TORSDOF 2
ENDMDL
MODEL 20
REMARK VINA RESULT:      -3.8      3.151      4.425
REMARK  2 active torsions:
REMARK  status: ('A' for Active; 'I' for Inactive)
REMARK    1  A    between atoms: C_9  and  S_10 
REMARK    2  A    between atoms: S_10  and  C_11 
ROOT
HETATM    1  O   LIG     1      22.153  19.821  23.071  1.00  0.00    -0.293 OA
HETATM    2  C   LIG     1      23.305  20.061  22.623  1.00  0.00     0.149 C 
HETATM    3  C   LIG     1      23.712  19.503  21.295  1.00  0.00     0.084 C 
HETATM    4  C   LIG     1      24.905  20.270  20.708  1.00  0.00     0.022 C 
HETATM    5  C   LIG     1      26.066  20.479  21.732  1.00  0.00    -0.016 C 
HETATM    6  C   LIG     1      26.692  19.109  22.092  1.00  0.00     0.020 C 
HETATM    7  C   LIG     1      25.500  21.096  23.020  1.00  0.00    -0.067 C 
HETATM    8  C   LIG     1      26.386  22.018  23.826  1.00  0.00     0.051 C 
HETATM    9  C   LIG     1      26.903  23.223  22.993  1.00  0.00     0.064 C 
HETATM   10  C   LIG     1      26.871  22.920  21.456  1.00  0.00     0.010 C 
HETATM   11  C   LIG     1      27.197  21.425  21.152  1.00  0.00     0.004 C 
HETATM   12  C   LIG     1      27.501  21.208  19.638  1.00  0.00     0.007 C 
HETATM   13  C   LIG     1      28.710  22.028  19.113  1.00  0.00     0.013 C 
HETATM   14  C   LIG     1      28.903  23.407  19.827  1.00  0.00    -0.008 C 
HETATM   15  C   LIG     1      30.049  23.279  20.875  1.00  0.00     0.019 C 
HETATM   16  C   LIG     1      27.571  23.883  20.446  1.00  0.00     0.002 C 
HETATM   17  C   LIG     1      27.737  25.372  20.743  1.00  0.00     0.009 C 
HETATM   18  C   LIG     1      28.778  25.854  19.714  1.00  0.00     0.040 C 
HETATM   19  C   LIG     1      29.193  24.614  18.879  1.00  0.00     0.079 C 
HETATM   20  O   LIG     1      28.359  24.571  17.724  1.00  0.00    -0.309 OA
HETATM   21  C   LIG     1      29.069  24.854  16.579  1.00  0.00     0.259 C 
HETATM   22  C   LIG     1      30.489  25.142  16.843  1.00  0.00     0.114 C 
HETATM   23  C   LIG     1      30.639  24.708  18.303  1.00  0.00     0.049 C 
HETATM   24  O   LIG     1      28.539  24.891  15.438  1.00  0.00    -0.265 OA
HETATM   25  C   LIG     1      24.241  20.861  23.427  1.00  0.00     0.053 C 
ENDROOT
BRANCH   9  26
HETATM   26  S   LIG     1      28.549  23.699  23.653  1.00  0.00    -0.087 SA
BRANCH  26  27
HETATM   27  C   LIG     1      27.970  25.151  24.543  1.00  0.00     0.182 C 
HETATM   28  C   LIG     1      27.135  25.006  25.775  1.00  0.00     0.104 C 
HETATM   29  O   LIG     1      28.277  26.263  24.144  1.00  0.00    -0.286 OA
ENDBRANCH  26  27
ENDBRANCH   9  26
TORSDOF 2
ENDMDL
