MODEL 1
REMARK VINA RESULT:      -5.2      0.000      0.000
REMARK  6 active torsions:
REMARK  status: ('A' for Active; 'I' for Inactive)
REMARK    1  A    between atoms: C_12  and  O_13 
REMARK    2  A    between atoms: C_20  and  C_22 
REMARK    3  A    between atoms: C_20  and  O_21 
REMARK    4  A    between atoms: C_22  and  C_23 
REMARK    5  A    between atoms: C_23  and  O_24 
REMARK    6  A    between atoms: O_24  and  C_25 
ROOT
HETATM    1  O   LIG     1      22.632  17.935  22.011  1.00  0.00    -0.289 OA
HETATM    2  C   LIG     1      22.993  19.086  21.654  1.00  0.00     0.171 C 
HETATM    3  C   LIG     1      23.667  19.974  22.602  1.00  0.00     0.052 C 
HETATM    4  C   LIG     1      23.984  21.224  22.252  1.00  0.00    -0.009 C 
HETATM    5  C   LIG     1      23.518  21.849  20.941  1.00  0.00     0.004 C 
HETATM    6  C   LIG     1      22.259  22.681  21.261  1.00  0.00     0.025 C 
HETATM    7  C   LIG     1      23.116  20.776  19.906  1.00  0.00    -0.064 C 
HETATM    8  C   LIG     1      23.271  21.111  18.436  1.00  0.00     0.036 C 
HETATM    9  C   LIG     1      24.747  21.450  18.102  1.00  0.00     0.010 C 
HETATM   10  C   LIG     1      25.544  21.930  19.346  1.00  0.00    -0.002 C 
HETATM   11  C   LIG     1      24.621  22.770  20.285  1.00  0.00     0.035 C 
HETATM   12  C   LIG     1      25.439  23.715  21.212  1.00  0.00     0.124 C 
HETATM   13  C   LIG     1      26.266  24.749  20.376  1.00  0.00     0.045 C 
HETATM   14  C   LIG     1      26.832  24.196  19.010  1.00  0.00     0.001 C 
HETATM   15  C   LIG     1      25.907  24.698  17.848  1.00  0.00     0.019 C 
HETATM   16  C   LIG     1      26.887  22.659  19.062  1.00  0.00     0.002 C 
HETATM   17  C   LIG     1      27.755  22.207  17.893  1.00  0.00     0.009 C 
HETATM   18  C   LIG     1      28.691  23.394  17.620  1.00  0.00     0.047 C 
HETATM   19  C   LIG     1      28.330  24.537  18.626  1.00  0.00     0.128 C 
HETATM   20  C   LIG     1      22.812  19.520  20.268  1.00  0.00     0.058 C 
ENDROOT
BRANCH  19  21
HETATM   21  C   LIG     1      29.297  24.618  19.830  1.00  0.00     0.185 C 
HETATM   22  O   LIG     1      29.783  23.576  20.246  1.00  0.00    -0.292 OA
BRANCH  21  23
HETATM   23  C   LIG     1      29.571  25.865  20.638  1.00  0.00     0.260 C 
BRANCH  23  24
HETATM   24  O   LIG     1      29.885  25.529  21.986  1.00  0.00    -0.314 OA
BRANCH  24  25
HETATM   25  C   LIG     1      28.992  25.700  23.049  1.00  0.00     0.255 C 
HETATM   26  C   LIG     1      29.070  26.933  23.887  1.00  0.00     0.126 C 
HETATM   27  O   LIG     1      28.119  24.827  23.301  1.00  0.00    -0.266 OA
ENDBRANCH  24  25
ENDBRANCH  23  24
ENDBRANCH  21  23
ENDBRANCH  19  21
BRANCH  19  28
HETATM   28  O   LIG     1      28.393  25.779  17.959  1.00  0.00    -0.381 OA
HETATM   29  H   LIG     1      28.089  26.480  18.590  1.00  0.00     0.211 HD
ENDBRANCH  19  28
BRANCH  12  30
HETATM   30  O   LIG     1      26.312  22.969  22.026  1.00  0.00    -0.395 OA
HETATM   31  H   LIG     1      25.920  22.955  22.938  1.00  0.00     0.210 HD
ENDBRANCH  12  30
TORSDOF 6
ENDMDL
MODEL 2
REMARK VINA RESULT:      -5.1      2.915      5.220
REMARK  6 active torsions:
REMARK  status: ('A' for Active; 'I' for Inactive)
REMARK    1  A    between atoms: C_12  and  O_13 
REMARK    2  A    between atoms: C_20  and  C_22 
REMARK    3  A    between atoms: C_20  and  O_21 
REMARK    4  A    between atoms: C_22  and  C_23 
REMARK    5  A    between atoms: C_23  and  O_24 
REMARK    6  A    between atoms: O_24  and  C_25 
ROOT
HETATM    1  O   LIG     1      27.096  19.296  27.525  1.00  0.00    -0.289 OA
HETATM    2  C   LIG     1      26.521  20.020  26.671  1.00  0.00     0.171 C 
HETATM    3  C   LIG     1      27.307  20.870  25.776  1.00  0.00     0.052 C 
HETATM    4  C   LIG     1      26.699  21.696  24.920  1.00  0.00    -0.009 C 
HETATM    5  C   LIG     1      25.192  21.934  24.943  1.00  0.00     0.004 C 
HETATM    6  C   LIG     1      24.952  23.229  25.745  1.00  0.00     0.025 C 
HETATM    7  C   LIG     1      24.443  20.792  25.665  1.00  0.00    -0.064 C 
HETATM    8  C   LIG     1      23.020  20.495  25.240  1.00  0.00     0.036 C 
HETATM    9  C   LIG     1      22.962  20.116  23.737  1.00  0.00     0.010 C 
HETATM   10  C   LIG     1      24.169  20.677  22.936  1.00  0.00    -0.002 C 
HETATM   11  C   LIG     1      24.581  22.077  23.493  1.00  0.00     0.035 C 
HETATM   12  C   LIG     1      25.365  22.915  22.442  1.00  0.00     0.124 C 
HETATM   13  C   LIG     1      24.488  23.193  21.174  1.00  0.00     0.045 C 
HETATM   14  C   LIG     1      23.513  22.017  20.772  1.00  0.00     0.001 C 
HETATM   15  C   LIG     1      22.071  22.375  21.275  1.00  0.00     0.019 C 
HETATM   16  C   LIG     1      24.015  20.700  21.390  1.00  0.00     0.002 C 
HETATM   17  C   LIG     1      23.264  19.571  20.691  1.00  0.00     0.009 C 
HETATM   18  C   LIG     1      22.893  20.141  19.314  1.00  0.00     0.047 C 
HETATM   19  C   LIG     1      23.413  21.615  19.244  1.00  0.00     0.128 C 
HETATM   20  C   LIG     1      25.067  19.961  26.514  1.00  0.00     0.058 C 
ENDROOT
BRANCH  19  21
HETATM   21  C   LIG     1      24.737  21.757  18.457  1.00  0.00     0.185 C 
HETATM   22  O   LIG     1      25.417  20.755  18.294  1.00  0.00    -0.292 OA
BRANCH  21  23
HETATM   23  C   LIG     1      25.340  23.067  18.007  1.00  0.00     0.260 C 
BRANCH  23  24
HETATM   24  O   LIG     1      26.699  23.161  18.419  1.00  0.00    -0.314 OA
BRANCH  24  25
HETATM   25  C   LIG     1      27.191  24.196  19.220  1.00  0.00     0.255 C 
HETATM   26  C   LIG     1      26.626  25.571  19.080  1.00  0.00     0.126 C 
HETATM   27  O   LIG     1      28.102  23.978  20.063  1.00  0.00    -0.266 OA
ENDBRANCH  24  25
ENDBRANCH  23  24
ENDBRANCH  21  23
ENDBRANCH  19  21
BRANCH  19  28
HETATM   28  O   LIG     1      22.453  22.415  18.589  1.00  0.00    -0.381 OA
HETATM   29  H   LIG     1      21.992  22.962  19.275  1.00  0.00     0.211 HD
ENDBRANCH  19  28
BRANCH  12  30
HETATM   30  O   LIG     1      26.541  22.243  22.057  1.00  0.00    -0.395 OA
HETATM   31  H   LIG     1      26.638  21.459  22.659  1.00  0.00     0.210 HD
ENDBRANCH  12  30
TORSDOF 6
ENDMDL
MODEL 3
REMARK VINA RESULT:      -5.0      2.534      6.305
REMARK  6 active torsions:
REMARK  status: ('A' for Active; 'I' for Inactive)
REMARK    1  A    between atoms: C_12  and  O_13 
REMARK    2  A    between atoms: C_20  and  C_22 
REMARK    3  A    between atoms: C_20  and  O_21 
REMARK    4  A    between atoms: C_22  and  C_23 
REMARK    5  A    between atoms: C_23  and  O_24 
REMARK    6  A    between atoms: O_24  and  C_25 
ROOT
HETATM    1  O   LIG     1      27.700  27.348  18.642  1.00  0.00    -0.289 OA
HETATM    2  C   LIG     1      27.637  26.187  19.123  1.00  0.00     0.171 C 
HETATM    3  C   LIG     1      28.272  25.886  20.407  1.00  0.00     0.052 C 
HETATM    4  C   LIG     1      28.274  24.639  20.885  1.00  0.00    -0.009 C 
HETATM    5  C   LIG     1      27.788  23.447  20.067  1.00  0.00     0.004 C 
HETATM    6  C   LIG     1      29.035  22.787  19.446  1.00  0.00     0.025 C 
HETATM    7  C   LIG     1      26.867  23.888  18.907  1.00  0.00    -0.064 C 
HETATM    8  C   LIG     1      25.807  22.915  18.431  1.00  0.00     0.036 C 
HETATM    9  C   LIG     1      24.839  22.549  19.585  1.00  0.00     0.010 C 
HETATM   10  C   LIG     1      25.479  22.754  20.986  1.00  0.00    -0.002 C 
HETATM   11  C   LIG     1      26.998  22.395  20.941  1.00  0.00     0.035 C 
HETATM   12  C   LIG     1      27.555  22.042  22.351  1.00  0.00     0.124 C 
HETATM   13  C   LIG     1      26.831  20.789  22.947  1.00  0.00     0.045 C 
HETATM   14  C   LIG     1      25.298  20.674  22.583  1.00  0.00     0.001 C 
HETATM   15  C   LIG     1      25.140  19.633  21.421  1.00  0.00     0.019 C 
HETATM   16  C   LIG     1      24.762  22.058  22.176  1.00  0.00     0.002 C 
HETATM   17  C   LIG     1      23.240  21.962  22.186  1.00  0.00     0.009 C 
HETATM   18  C   LIG     1      22.924  20.844  23.190  1.00  0.00     0.047 C 
HETATM   19  C   LIG     1      24.281  20.283  23.732  1.00  0.00     0.128 C 
HETATM   20  C   LIG     1      26.865  25.146  18.442  1.00  0.00     0.058 C 
ENDROOT
BRANCH  19  21
HETATM   21  C   LIG     1      24.653  20.832  25.130  1.00  0.00     0.185 C 
HETATM   22  O   LIG     1      25.210  20.077  25.912  1.00  0.00    -0.292 OA
BRANCH  21  23
HETATM   23  C   LIG     1      24.241  22.183  25.666  1.00  0.00     0.260 C 
BRANCH  23  24
HETATM   24  O   LIG     1      25.179  23.182  25.278  1.00  0.00    -0.314 OA
BRANCH  24  25
HETATM   25  C   LIG     1      25.960  23.899  26.190  1.00  0.00     0.255 C 
HETATM   26  C   LIG     1      25.967  23.503  27.629  1.00  0.00     0.126 C 
HETATM   27  O   LIG     1      26.664  24.872  25.806  1.00  0.00    -0.266 OA
ENDBRANCH  24  25
ENDBRANCH  23  24
ENDBRANCH  21  23
ENDBRANCH  19  21
BRANCH  19  28
HETATM   28  O   LIG     1      24.190  18.879  23.848  1.00  0.00    -0.381 OA
HETATM   29  H   LIG     1      23.392  18.671  24.397  1.00  0.00     0.211 HD
ENDBRANCH  19  28
BRANCH  12  30
HETATM   30  O   LIG     1      27.398  23.133  23.227  1.00  0.00    -0.395 OA
HETATM   31  H   LIG     1      26.731  22.862  23.911  1.00  0.00     0.210 HD
ENDBRANCH  12  30
TORSDOF 6
ENDMDL
MODEL 4
REMARK VINA RESULT:      -5.0      2.433      5.953
REMARK  6 active torsions:
REMARK  status: ('A' for Active; 'I' for Inactive)
REMARK    1  A    between atoms: C_12  and  O_13 
REMARK    2  A    between atoms: C_20  and  C_22 
REMARK    3  A    between atoms: C_20  and  O_21 
REMARK    4  A    between atoms: C_22  and  C_23 
REMARK    5  A    between atoms: C_23  and  O_24 
REMARK    6  A    between atoms: O_24  and  C_25 
ROOT
HETATM    1  O   LIG     1      27.149  25.142  27.560  1.00  0.00    -0.289 OA
HETATM    2  C   LIG     1      27.530  24.662  26.460  1.00  0.00     0.171 C 
HETATM    3  C   LIG     1      27.094  23.328  26.047  1.00  0.00     0.052 C 
HETATM    4  C   LIG     1      27.556  22.784  24.918  1.00  0.00    -0.009 C 
HETATM    5  C   LIG     1      28.674  23.422  24.100  1.00  0.00     0.004 C 
HETATM    6  C   LIG     1      29.986  22.721  24.506  1.00  0.00     0.025 C 
HETATM    7  C   LIG     1      28.830  24.926  24.419  1.00  0.00    -0.064 C 
HETATM    8  C   LIG     1      29.360  25.834  23.327  1.00  0.00     0.036 C 
HETATM    9  C   LIG     1      28.439  25.788  22.080  1.00  0.00     0.010 C 
HETATM   10  C   LIG     1      27.607  24.479  22.002  1.00  0.00    -0.002 C 
HETATM   11  C   LIG     1      28.443  23.276  22.544  1.00  0.00     0.035 C 
HETATM   12  C   LIG     1      27.925  21.914  22.000  1.00  0.00     0.124 C 
HETATM   13  C   LIG     1      28.033  21.850  20.439  1.00  0.00     0.045 C 
HETATM   14  C   LIG     1      27.767  23.220  19.700  1.00  0.00     0.001 C 
HETATM   15  C   LIG     1      29.148  23.849  19.305  1.00  0.00     0.019 C 
HETATM   16  C   LIG     1      26.965  24.155  20.624  1.00  0.00     0.002 C 
HETATM   17  C   LIG     1      26.438  25.290  19.754  1.00  0.00     0.009 C 
HETATM   18  C   LIG     1      26.342  24.690  18.343  1.00  0.00     0.047 C 
HETATM   19  C   LIG     1      26.847  23.210  18.411  1.00  0.00     0.128 C 
HETATM   20  C   LIG     1      28.352  25.463  25.551  1.00  0.00     0.058 C 
ENDROOT
BRANCH  19  21
HETATM   21  C   LIG     1      25.698  22.176  18.453  1.00  0.00     0.185 C 
HETATM   22  O   LIG     1      25.855  21.121  17.856  1.00  0.00    -0.292 OA
BRANCH  21  23
HETATM   23  C   LIG     1      24.329  22.427  19.041  1.00  0.00     0.260 C 
BRANCH  23  24
HETATM   24  O   LIG     1      24.291  22.027  20.408  1.00  0.00    -0.314 OA
BRANCH  24  25
HETATM   25  C   LIG     1      23.539  22.690  21.382  1.00  0.00     0.255 C 
HETATM   26  C   LIG     1      22.060  22.808  21.220  1.00  0.00     0.126 C 
HETATM   27  O   LIG     1      24.097  23.182  22.400  1.00  0.00    -0.266 OA
ENDBRANCH  24  25
ENDBRANCH  23  24
ENDBRANCH  21  23
ENDBRANCH  19  21
BRANCH  19  28
HETATM   28  O   LIG     1      27.617  22.930  17.262  1.00  0.00    -0.381 OA
HETATM   29  H   LIG     1      27.025  23.009  16.472  1.00  0.00     0.211 HD
ENDBRANCH  19  28
BRANCH  12  30
HETATM   30  O   LIG     1      26.585  21.711  22.383  1.00  0.00    -0.395 OA
HETATM   31  H   LIG     1      26.235  20.964  21.830  1.00  0.00     0.210 HD
ENDBRANCH  12  30
TORSDOF 6
ENDMDL
MODEL 5
REMARK VINA RESULT:      -4.9      3.077      6.018
REMARK  6 active torsions:
REMARK  status: ('A' for Active; 'I' for Inactive)
REMARK    1  A    between atoms: C_12  and  O_13 
REMARK    2  A    between atoms: C_20  and  C_22 
REMARK    3  A    between atoms: C_20  and  O_21 
REMARK    4  A    between atoms: C_22  and  C_23 
REMARK    5  A    between atoms: C_23  and  O_24 
REMARK    6  A    between atoms: O_24  and  C_25 
ROOT
HETATM    1  O   LIG     1      27.349  20.183  12.056  1.00  0.00    -0.289 OA
HETATM    2  C   LIG     1      27.245  19.993  13.295  1.00  0.00     0.171 C 
HETATM    3  C   LIG     1      28.171  20.646  14.221  1.00  0.00     0.052 C 
HETATM    4  C   LIG     1      28.114  20.388  15.531  1.00  0.00    -0.009 C 
HETATM    5  C   LIG     1      27.226  19.292  16.111  1.00  0.00     0.004 C 
HETATM    6  C   LIG     1      28.115  18.048  16.309  1.00  0.00     0.025 C 
HETATM    7  C   LIG     1      26.089  18.903  15.140  1.00  0.00    -0.064 C 
HETATM    8  C   LIG     1      24.795  18.381  15.732  1.00  0.00     0.036 C 
HETATM    9  C   LIG     1      24.161  19.432  16.680  1.00  0.00     0.010 C 
HETATM   10  C   LIG     1      25.207  20.435  17.241  1.00  0.00    -0.002 C 
HETATM   11  C   LIG     1      26.569  19.711  17.485  1.00  0.00     0.035 C 
HETATM   12  C   LIG     1      27.451  20.463  18.524  1.00  0.00     0.124 C 
HETATM   13  C   LIG     1      26.742  20.538  19.918  1.00  0.00     0.045 C 
HETATM   14  C   LIG     1      25.171  20.700  19.856  1.00  0.00     0.001 C 
HETATM   15  C   LIG     1      24.517  19.299  20.118  1.00  0.00     0.019 C 
HETATM   16  C   LIG     1      24.768  21.262  18.481  1.00  0.00     0.002 C 
HETATM   17  C   LIG     1      23.321  21.727  18.602  1.00  0.00     0.009 C 
HETATM   18  C   LIG     1      23.138  22.057  20.090  1.00  0.00     0.047 C 
HETATM   19  C   LIG     1      24.487  21.749  20.823  1.00  0.00     0.128 C 
HETATM   20  C   LIG     1      26.152  19.178  13.828  1.00  0.00     0.058 C 
ENDROOT
BRANCH  19  21
HETATM   21  C   LIG     1      25.334  23.014  21.098  1.00  0.00     0.185 C 
HETATM   22  O   LIG     1      25.762  23.182  22.230  1.00  0.00    -0.292 OA
BRANCH  21  23
HETATM   23  C   LIG     1      25.544  24.144  20.117  1.00  0.00     0.260 C 
BRANCH  23  24
HETATM   24  O   LIG     1      26.880  24.135  19.624  1.00  0.00    -0.314 OA
BRANCH  24  25
HETATM   25  C   LIG     1      27.353  25.039  18.668  1.00  0.00     0.255 C 
HETATM   26  C   LIG     1      27.684  26.437  19.073  1.00  0.00     0.126 C 
HETATM   27  O   LIG     1      27.509  24.683  17.469  1.00  0.00    -0.266 OA
ENDBRANCH  24  25
ENDBRANCH  23  24
ENDBRANCH  21  23
ENDBRANCH  19  21
BRANCH  19  28
HETATM   28  O   LIG     1      24.210  21.155  22.073  1.00  0.00    -0.381 OA
HETATM   29  H   LIG     1      24.609  21.727  22.777  1.00  0.00     0.211 HD
ENDBRANCH  19  28
BRANCH  12  30
HETATM   30  O   LIG     1      27.732  21.767  18.075  1.00  0.00    -0.395 OA
HETATM   31  H   LIG     1      28.343  22.179  18.741  1.00  0.00     0.210 HD
ENDBRANCH  12  30
TORSDOF 6
ENDMDL
MODEL 6
REMARK VINA RESULT:      -4.8      2.599      4.219
REMARK  6 active torsions:
REMARK  status: ('A' for Active; 'I' for Inactive)
REMARK    1  A    between atoms: C_12  and  O_13 
REMARK    2  A    between atoms: C_20  and  C_22 
REMARK    3  A    between atoms: C_20  and  O_21 
REMARK    4  A    between atoms: C_22  and  C_23 
REMARK    5  A    between atoms: C_23  and  O_24 
REMARK    6  A    between atoms: O_24  and  C_25 
ROOT
HETATM    1  O   LIG     1      24.126  21.612  25.885  1.00  0.00    -0.289 OA
HETATM    2  C   LIG     1      24.037  21.649  24.630  1.00  0.00     0.171 C 
HETATM    3  C   LIG     1      24.682  22.725  23.877  1.00  0.00     0.052 C 
HETATM    4  C   LIG     1      24.527  22.812  22.553  1.00  0.00    -0.009 C 
HETATM    5  C   LIG     1      23.551  21.927  21.783  1.00  0.00     0.004 C 
HETATM    6  C   LIG     1      22.258  22.745  21.588  1.00  0.00     0.025 C 
HETATM    7  C   LIG     1      23.182  20.655  22.579  1.00  0.00    -0.064 C 
HETATM    8  C   LIG     1      22.810  19.411  21.798  1.00  0.00     0.036 C 
HETATM    9  C   LIG     1      23.975  18.973  20.873  1.00  0.00     0.010 C 
HETATM   10  C   LIG     1      24.931  20.148  20.523  1.00  0.00    -0.002 C 
HETATM   11  C   LIG     1      24.121  21.476  20.381  1.00  0.00     0.035 C 
HETATM   12  C   LIG     1      24.876  22.529  19.519  1.00  0.00     0.124 C 
HETATM   13  C   LIG     1      25.110  22.004  18.062  1.00  0.00     0.045 C 
HETATM   14  C   LIG     1      25.390  20.453  17.954  1.00  0.00     0.001 C 
HETATM   15  C   LIG     1      24.070  19.739  17.501  1.00  0.00     0.019 C 
HETATM   16  C   LIG     1      25.880  19.924  19.313  1.00  0.00     0.002 C 
HETATM   17  C   LIG     1      26.466  18.538  19.063  1.00  0.00     0.009 C 
HETATM   18  C   LIG     1      26.919  18.564  17.596  1.00  0.00     0.047 C 
HETATM   19  C   LIG     1      26.560  19.967  17.003  1.00  0.00     0.128 C 
HETATM   20  C   LIG     1      23.353  20.576  23.907  1.00  0.00     0.058 C 
ENDROOT
BRANCH  19  21
HETATM   21  C   LIG     1      27.770  20.928  16.936  1.00  0.00     0.185 C 
HETATM   22  O   LIG     1      28.062  21.408  15.850  1.00  0.00    -0.292 OA
BRANCH  21  23
HETATM   23  C   LIG     1      28.723  21.201  18.077  1.00  0.00     0.260 C 
BRANCH  23  24
HETATM   24  O   LIG     1      28.423  22.451  18.690  1.00  0.00    -0.314 OA
BRANCH  24  25
HETATM   25  C   LIG     1      28.939  23.671  18.241  1.00  0.00     0.255 C 
HETATM   26  C   LIG     1      28.050  24.626  17.516  1.00  0.00     0.126 C 
HETATM   27  O   LIG     1      30.144  23.974  18.451  1.00  0.00    -0.266 OA
ENDBRANCH  24  25
ENDBRANCH  23  24
ENDBRANCH  21  23
ENDBRANCH  19  21
BRANCH  19  28
HETATM   28  O   LIG     1      26.084  19.806  15.684  1.00  0.00    -0.381 OA
HETATM   29  H   LIG     1      25.798  20.695  15.353  1.00  0.00     0.211 HD
ENDBRANCH  19  28
BRANCH  12  30
HETATM   30  O   LIG     1      26.117  22.843  20.105  1.00  0.00    -0.395 OA
HETATM   31  H   LIG     1      26.330  23.779  19.850  1.00  0.00     0.210 HD
ENDBRANCH  12  30
TORSDOF 6
ENDMDL
MODEL 7
REMARK VINA RESULT:      -4.8      1.541      2.014
REMARK  6 active torsions:
REMARK  status: ('A' for Active; 'I' for Inactive)
REMARK    1  A    between atoms: C_12  and  O_13 
REMARK    2  A    between atoms: C_20  and  C_22 
REMARK    3  A    between atoms: C_20  and  O_21 
REMARK    4  A    between atoms: C_22  and  C_23 
REMARK    5  A    between atoms: C_23  and  O_24 
REMARK    6  A    between atoms: O_24  and  C_25 
ROOT
HETATM    1  O   LIG     1      22.086  18.202  18.897  1.00  0.00    -0.289 OA
HETATM    2  C   LIG     1      22.646  19.229  19.362  1.00  0.00     0.171 C 
HETATM    3  C   LIG     1      23.193  19.220  20.720  1.00  0.00     0.052 C 
HETATM    4  C   LIG     1      23.720  20.329  21.245  1.00  0.00    -0.009 C 
HETATM    5  C   LIG     1      23.627  21.686  20.554  1.00  0.00     0.004 C 
HETATM    6  C   LIG     1      22.433  22.432  21.183  1.00  0.00     0.025 C 
HETATM    7  C   LIG     1      23.342  21.540  19.042  1.00  0.00    -0.064 C 
HETATM    8  C   LIG     1      23.852  22.624  18.114  1.00  0.00     0.036 C 
HETATM    9  C   LIG     1      25.394  22.752  18.214  1.00  0.00     0.010 C 
HETATM   10  C   LIG     1      25.949  22.224  19.566  1.00  0.00    -0.002 C 
HETATM   11  C   LIG     1      24.945  22.540  20.720  1.00  0.00     0.035 C 
HETATM   12  C   LIG     1      25.643  22.556  22.111  1.00  0.00     0.124 C 
HETATM   13  C   LIG     1      26.746  23.666  22.177  1.00  0.00     0.045 C 
HETATM   14  C   LIG     1      27.530  23.902  20.827  1.00  0.00     0.001 C 
HETATM   15  C   LIG     1      26.945  25.179  20.129  1.00  0.00     0.019 C 
HETATM   16  C   LIG     1      27.396  22.658  19.931  1.00  0.00     0.002 C 
HETATM   17  C   LIG     1      28.441  22.792  18.829  1.00  0.00     0.009 C 
HETATM   18  C   LIG     1      29.544  23.669  19.441  1.00  0.00     0.047 C 
HETATM   19  C   LIG     1      29.105  24.057  20.892  1.00  0.00     0.128 C 
HETATM   20  C   LIG     1      22.824  20.416  18.524  1.00  0.00     0.058 C 
ENDROOT
BRANCH  19  21
HETATM   21  C   LIG     1      29.788  23.202  21.985  1.00  0.00     0.185 C 
HETATM   22  O   LIG     1      30.396  22.202  21.634  1.00  0.00    -0.292 OA
BRANCH  21  23
HETATM   23  C   LIG     1      29.633  23.416  23.473  1.00  0.00     0.260 C 
BRANCH  23  24
HETATM   24  O   LIG     1      29.920  24.767  23.816  1.00  0.00    -0.314 OA
BRANCH  24  25
HETATM   25  C   LIG     1      28.999  25.615  24.439  1.00  0.00     0.255 C 
HETATM   26  C   LIG     1      28.689  25.432  25.888  1.00  0.00     0.126 C 
HETATM   27  O   LIG     1      28.435  26.537  23.791  1.00  0.00    -0.266 OA
ENDBRANCH  24  25
ENDBRANCH  23  24
ENDBRANCH  21  23
ENDBRANCH  19  21
BRANCH  19  28
HETATM   28  O   LIG     1      29.454  25.402  21.138  1.00  0.00    -0.381 OA
HETATM   29  H   LIG     1      28.730  25.812  21.676  1.00  0.00     0.211 HD
ENDBRANCH  19  28
BRANCH  12  30
HETATM   30  O   LIG     1      26.226  21.303  22.381  1.00  0.00    -0.395 OA
HETATM   31  H   LIG     1      26.596  21.347  23.301  1.00  0.00     0.210 HD
ENDBRANCH  12  30
TORSDOF 6
ENDMDL
MODEL 8
REMARK VINA RESULT:      -4.7      4.292      7.238
REMARK  6 active torsions:
REMARK  status: ('A' for Active; 'I' for Inactive)
REMARK    1  A    between atoms: C_12  and  O_13 
REMARK    2  A    between atoms: C_20  and  C_22 
REMARK    3  A    between atoms: C_20  and  O_21 
REMARK    4  A    between atoms: C_22  and  C_23 
REMARK    5  A    between atoms: C_23  and  O_24 
REMARK    6  A    between atoms: O_24  and  C_25 
ROOT
HETATM    1  O   LIG     1      26.037  25.948  18.809  1.00  0.00    -0.289 OA
HETATM    2  C   LIG     1      26.533  25.276  19.750  1.00  0.00     0.171 C 
HETATM    3  C   LIG     1      27.676  25.792  20.504  1.00  0.00     0.052 C 
HETATM    4  C   LIG     1      28.253  25.049  21.453  1.00  0.00    -0.009 C 
HETATM    5  C   LIG     1      27.886  23.587  21.683  1.00  0.00     0.004 C 
HETATM    6  C   LIG     1      28.934  22.736  20.937  1.00  0.00     0.025 C 
HETATM    7  C   LIG     1      26.500  23.245  21.093  1.00  0.00    -0.064 C 
HETATM    8  C   LIG     1      25.701  22.137  21.749  1.00  0.00     0.036 C 
HETATM    9  C   LIG     1      25.424  22.468  23.238  1.00  0.00     0.010 C 
HETATM   10  C   LIG     1      26.458  23.465  23.829  1.00  0.00    -0.002 C 
HETATM   11  C   LIG     1      27.870  23.203  23.215  1.00  0.00     0.035 C 
HETATM   12  C   LIG     1      29.010  23.747  24.124  1.00  0.00     0.124 C 
HETATM   13  C   LIG     1      29.005  23.040  25.521  1.00  0.00     0.045 C 
HETATM   14  C   LIG     1      27.571  22.680  26.077  1.00  0.00     0.001 C 
HETATM   15  C   LIG     1      27.309  21.155  25.824  1.00  0.00     0.019 C 
HETATM   16  C   LIG     1      26.516  23.557  25.379  1.00  0.00     0.002 C 
HETATM   17  C   LIG     1      25.230  23.428  26.189  1.00  0.00     0.009 C 
HETATM   18  C   LIG     1      25.696  23.082  27.611  1.00  0.00     0.047 C 
HETATM   19  C   LIG     1      27.258  22.985  27.598  1.00  0.00     0.128 C 
HETATM   20  C   LIG     1      25.925  24.005  20.149  1.00  0.00     0.058 C 
ENDROOT
BRANCH  19  21
HETATM   21  C   LIG     1      27.951  24.252  28.153  1.00  0.00     0.185 C 
HETATM   22  O   LIG     1      29.095  24.144  28.570  1.00  0.00    -0.292 OA
BRANCH  21  23
HETATM   23  C   LIG     1      27.273  25.585  28.368  1.00  0.00     0.260 C 
BRANCH  23  24
HETATM   24  O   LIG     1      27.022  25.801  29.753  1.00  0.00    -0.314 OA
BRANCH  24  25
HETATM   25  C   LIG     1      27.185  27.040  30.380  1.00  0.00     0.255 C 
HETATM   26  C   LIG     1      28.098  28.057  29.781  1.00  0.00     0.126 C 
HETATM   27  O   LIG     1      26.562  27.308  31.443  1.00  0.00    -0.266 OA
ENDBRANCH  24  25
ENDBRANCH  23  24
ENDBRANCH  21  23
ENDBRANCH  19  21
BRANCH  19  28
HETATM   28  O   LIG     1      27.662  21.903  28.408  1.00  0.00    -0.381 OA
HETATM   29  H   LIG     1      28.643  21.800  28.312  1.00  0.00     0.211 HD
ENDBRANCH  19  28
BRANCH  12  30
HETATM   30  O   LIG     1      28.873  25.136  24.304  1.00  0.00    -0.395 OA
HETATM   31  H   LIG     1      29.530  25.406  24.998  1.00  0.00     0.210 HD
ENDBRANCH  12  30
TORSDOF 6
ENDMDL
MODEL 9
REMARK VINA RESULT:      -4.7      2.975      5.831
REMARK  6 active torsions:
REMARK  status: ('A' for Active; 'I' for Inactive)
REMARK    1  A    between atoms: C_12  and  O_13 
REMARK    2  A    between atoms: C_20  and  C_22 
REMARK    3  A    between atoms: C_20  and  O_21 
REMARK    4  A    between atoms: C_22  and  C_23 
REMARK    5  A    between atoms: C_23  and  O_24 
REMARK    6  A    between atoms: O_24  and  C_25 
ROOT
HETATM    1  O   LIG     1      27.830  23.665  27.351  1.00  0.00    -0.289 OA
HETATM    2  C   LIG     1      26.996  23.071  26.619  1.00  0.00     0.171 C 
HETATM    3  C   LIG     1      25.979  23.831  25.891  1.00  0.00     0.052 C 
HETATM    4  C   LIG     1      25.046  23.200  25.174  1.00  0.00    -0.009 C 
HETATM    5  C   LIG     1      24.872  21.685  25.210  1.00  0.00     0.004 C 
HETATM    6  C   LIG     1      23.739  21.385  26.212  1.00  0.00     0.025 C 
HETATM    7  C   LIG     1      26.145  20.975  25.719  1.00  0.00    -0.064 C 
HETATM    8  C   LIG     1      26.422  19.569  25.226  1.00  0.00     0.036 C 
HETATM    9  C   LIG     1      26.547  19.543  23.681  1.00  0.00     0.010 C 
HETATM   10  C   LIG     1      25.815  20.735  23.004  1.00  0.00    -0.002 C 
HETATM   11  C   LIG     1      24.513  21.085  23.793  1.00  0.00     0.035 C 
HETATM   12  C   LIG     1      23.483  21.845  22.910  1.00  0.00     0.124 C 
HETATM   13  C   LIG     1      23.031  20.973  21.691  1.00  0.00     0.045 C 
HETATM   14  C   LIG     1      24.159  20.049  21.082  1.00  0.00     0.001 C 
HETATM   15  C   LIG     1      23.945  18.589  21.612  1.00  0.00     0.019 C 
HETATM   16  C   LIG     1      25.541  20.596  21.481  1.00  0.00     0.002 C 
HETATM   17  C   LIG     1      26.565  19.899  20.592  1.00  0.00     0.009 C 
HETATM   18  C   LIG     1      25.789  19.520  19.323  1.00  0.00     0.047 C 
HETATM   19  C   LIG     1      24.304  19.982  19.507  1.00  0.00     0.128 C 
HETATM   20  C   LIG     1      27.082  21.622  26.429  1.00  0.00     0.058 C 
ENDROOT
BRANCH  19  21
HETATM   21  C   LIG     1      23.984  21.308  18.778  1.00  0.00     0.185 C 
HETATM   22  O   LIG     1      22.890  21.419  18.244  1.00  0.00    -0.292 OA
BRANCH  21  23
HETATM   23  C   LIG     1      24.975  22.423  18.535  1.00  0.00     0.260 C 
BRANCH  23  24
HETATM   24  O   LIG     1      24.911  23.385  19.584  1.00  0.00    -0.314 OA
BRANCH  24  25
HETATM   25  C   LIG     1      25.997  24.180  19.964  1.00  0.00     0.255 C 
HETATM   26  C   LIG     1      26.391  25.346  19.120  1.00  0.00     0.126 C 
HETATM   27  O   LIG     1      26.640  23.926  21.018  1.00  0.00    -0.266 OA
ENDBRANCH  24  25
ENDBRANCH  23  24
ENDBRANCH  21  23
ENDBRANCH  19  21
BRANCH  19  28
HETATM   28  O   LIG     1      23.443  18.998  18.977  1.00  0.00    -0.381 OA
HETATM   29  H   LIG     1      22.617  18.990  19.524  1.00  0.00     0.211 HD
ENDBRANCH  19  28
BRANCH  12  30
HETATM   30  O   LIG     1      24.036  23.051  22.439  1.00  0.00    -0.395 OA
HETATM   31  H   LIG     1      23.573  23.789  22.915  1.00  0.00     0.210 HD
ENDBRANCH  12  30
TORSDOF 6
ENDMDL
MODEL 10
REMARK VINA RESULT:      -4.5      3.169      6.110
REMARK  6 active torsions:
REMARK  status: ('A' for Active; 'I' for Inactive)
REMARK    1  A    between atoms: C_12  and  O_13 
REMARK    2  A    between atoms: C_20  and  C_22 
REMARK    3  A    between atoms: C_20  and  O_21 
REMARK    4  A    between atoms: C_22  and  C_23 
REMARK    5  A    between atoms: C_23  and  O_24 
REMARK    6  A    between atoms: O_24  and  C_25 
ROOT
HETATM    1  O   LIG     1      27.807  20.467  12.620  1.00  0.00    -0.289 OA
HETATM    2  C   LIG     1      27.534  20.194  13.818  1.00  0.00     0.171 C 
HETATM    3  C   LIG     1      28.380  20.698  14.900  1.00  0.00     0.052 C 
HETATM    4  C   LIG     1      28.139  20.348  16.167  1.00  0.00    -0.009 C 
HETATM    5  C   LIG     1      27.107  19.288  16.541  1.00  0.00     0.004 C 
HETATM    6  C   LIG     1      27.872  17.964  16.739  1.00  0.00     0.025 C 
HETATM    7  C   LIG     1      26.077  19.068  15.411  1.00  0.00    -0.064 C 
HETATM    8  C   LIG     1      24.685  18.612  15.796  1.00  0.00     0.036 C 
HETATM    9  C   LIG     1      24.014  19.637  16.747  1.00  0.00     0.010 C 
HETATM   10  C   LIG     1      25.050  20.505  17.513  1.00  0.00    -0.002 C 
HETATM   11  C   LIG     1      26.314  19.655  17.857  1.00  0.00     0.035 C 
HETATM   12  C   LIG     1      27.109  20.252  19.054  1.00  0.00     0.124 C 
HETATM   13  C   LIG     1      26.237  20.280  20.354  1.00  0.00     0.045 C 
HETATM   14  C   LIG     1      24.703  20.575  20.117  1.00  0.00     0.001 C 
HETATM   15  C   LIG     1      23.921  19.217  20.179  1.00  0.00     0.019 C 
HETATM   16  C   LIG     1      24.518  21.270  18.756  1.00  0.00     0.002 C 
HETATM   17  C   LIG     1      23.105  21.842  18.741  1.00  0.00     0.009 C 
HETATM   18  C   LIG     1      22.760  22.074  20.219  1.00  0.00     0.047 C 
HETATM   19  C   LIG     1      23.979  21.602  21.080  1.00  0.00     0.128 C 
HETATM   20  C   LIG     1      26.326  19.434  14.144  1.00  0.00     0.058 C 
ENDROOT
BRANCH  19  21
HETATM   21  C   LIG     1      24.873  22.768  21.561  1.00  0.00     0.185 C 
HETATM   22  O   LIG     1      25.113  23.670  20.772  1.00  0.00    -0.292 OA
BRANCH  21  23
HETATM   23  C   LIG     1      25.607  22.808  22.882  1.00  0.00     0.260 C 
BRANCH  23  24
HETATM   24  O   LIG     1      24.708  23.103  23.945  1.00  0.00    -0.314 OA
BRANCH  24  25
HETATM   25  C   LIG     1      24.689  22.400  25.154  1.00  0.00     0.255 C 
HETATM   26  C   LIG     1      25.394  22.959  26.345  1.00  0.00     0.126 C 
HETATM   27  O   LIG     1      24.075  21.303  25.249  1.00  0.00    -0.266 OA
ENDBRANCH  24  25
ENDBRANCH  23  24
ENDBRANCH  21  23
ENDBRANCH  19  21
BRANCH  19  28
HETATM   28  O   LIG     1      23.504  20.940  22.233  1.00  0.00    -0.381 OA
HETATM   29  H   LIG     1      24.069  20.139  22.379  1.00  0.00     0.211 HD
ENDBRANCH  19  28
BRANCH  12  30
HETATM   30  O   LIG     1      27.539  21.559  18.754  1.00  0.00    -0.395 OA
HETATM   31  H   LIG     1      27.832  21.972  19.608  1.00  0.00     0.210 HD
ENDBRANCH  12  30
TORSDOF 6
ENDMDL
MODEL 11
REMARK VINA RESULT:      -4.4      3.880      7.982
REMARK  6 active torsions:
REMARK  status: ('A' for Active; 'I' for Inactive)
REMARK    1  A    between atoms: C_12  and  O_13 
REMARK    2  A    between atoms: C_20  and  C_22 
REMARK    3  A    between atoms: C_20  and  O_21 
REMARK    4  A    between atoms: C_22  and  C_23 
REMARK    5  A    between atoms: C_23  and  O_24 
REMARK    6  A    between atoms: O_24  and  C_25 
ROOT
HETATM    1  O   LIG     1      28.626  27.472  29.111  1.00  0.00    -0.289 OA
HETATM    2  C   LIG     1      28.280  26.373  28.604  1.00  0.00     0.171 C 
HETATM    3  C   LIG     1      26.889  25.927  28.689  1.00  0.00     0.052 C 
HETATM    4  C   LIG     1      26.532  24.728  28.219  1.00  0.00    -0.009 C 
HETATM    5  C   LIG     1      27.553  23.700  27.742  1.00  0.00     0.004 C 
HETATM    6  C   LIG     1      27.796  22.728  28.914  1.00  0.00     0.025 C 
HETATM    7  C   LIG     1      28.907  24.357  27.392  1.00  0.00    -0.064 C 
HETATM    8  C   LIG     1      29.767  23.695  26.335  1.00  0.00     0.036 C 
HETATM    9  C   LIG     1      29.010  23.608  24.984  1.00  0.00     0.010 C 
HETATM   10  C   LIG     1      27.467  23.650  25.163  1.00  0.00    -0.002 C 
HETATM   11  C   LIG     1      27.057  22.902  26.472  1.00  0.00     0.035 C 
HETATM   12  C   LIG     1      25.575  22.428  26.431  1.00  0.00     0.124 C 
HETATM   13  C   LIG     1      25.338  21.416  25.260  1.00  0.00     0.045 C 
HETATM   14  C   LIG     1      26.176  21.707  23.953  1.00  0.00     0.001 C 
HETATM   15  C   LIG     1      27.405  20.734  23.924  1.00  0.00     0.019 C 
HETATM   16  C   LIG     1      26.623  23.180  23.947  1.00  0.00     0.002 C 
HETATM   17  C   LIG     1      27.102  23.490  22.533  1.00  0.00     0.009 C 
HETATM   18  C   LIG     1      26.339  22.504  21.636  1.00  0.00     0.047 C 
HETATM   19  C   LIG     1      25.441  21.609  22.554  1.00  0.00     0.128 C 
HETATM   20  C   LIG     1      29.249  25.567  27.860  1.00  0.00     0.058 C 
ENDROOT
BRANCH  19  21
HETATM   21  C   LIG     1      23.960  22.053  22.576  1.00  0.00     0.185 C 
HETATM   22  O   LIG     1      23.190  21.447  23.307  1.00  0.00    -0.292 OA
BRANCH  21  23
HETATM   23  C   LIG     1      23.350  23.078  21.648  1.00  0.00     0.260 C 
BRANCH  23  24
HETATM   24  O   LIG     1      22.572  22.440  20.640  1.00  0.00    -0.314 OA
BRANCH  24  25
HETATM   25  C   LIG     1      23.110  21.558  19.697  1.00  0.00     0.255 C 
HETATM   26  C   LIG     1      23.631  22.089  18.403  1.00  0.00     0.126 C 
HETATM   27  O   LIG     1      23.164  20.321  19.932  1.00  0.00    -0.266 OA
ENDBRANCH  24  25
ENDBRANCH  23  24
ENDBRANCH  21  23
ENDBRANCH  19  21
BRANCH  19  28
HETATM   28  O   LIG     1      25.469  20.281  22.078  1.00  0.00    -0.381 OA
HETATM   29  H   LIG     1      24.538  20.009  21.877  1.00  0.00     0.211 HD
ENDBRANCH  19  28
BRANCH  12  30
HETATM   30  O   LIG     1      24.712  23.529  26.278  1.00  0.00    -0.395 OA
HETATM   31  H   LIG     1      24.623  23.955  27.171  1.00  0.00     0.210 HD
ENDBRANCH  12  30
TORSDOF 6
ENDMDL
MODEL 12
REMARK VINA RESULT:      -4.4      3.958      6.506
REMARK  6 active torsions:
REMARK  status: ('A' for Active; 'I' for Inactive)
REMARK    1  A    between atoms: C_12  and  O_13 
REMARK    2  A    between atoms: C_20  and  C_22 
REMARK    3  A    between atoms: C_20  and  O_21 
REMARK    4  A    between atoms: C_22  and  C_23 
REMARK    5  A    between atoms: C_23  and  O_24 
REMARK    6  A    between atoms: O_24  and  C_25 
ROOT
HETATM    1  O   LIG     1      23.854  20.298  17.493  1.00  0.00    -0.289 OA
HETATM    2  C   LIG     1      23.840  20.745  18.669  1.00  0.00     0.171 C 
HETATM    3  C   LIG     1      23.187  19.988  19.738  1.00  0.00     0.052 C 
HETATM    4  C   LIG     1      23.103  20.494  20.972  1.00  0.00    -0.009 C 
HETATM    5  C   LIG     1      23.509  21.927  21.298  1.00  0.00     0.004 C 
HETATM    6  C   LIG     1      22.220  22.774  21.293  1.00  0.00     0.025 C 
HETATM    7  C   LIG     1      24.456  22.512  20.227  1.00  0.00    -0.064 C 
HETATM    8  C   LIG     1      25.449  23.573  20.657  1.00  0.00     0.036 C 
HETATM    9  C   LIG     1      26.391  23.028  21.761  1.00  0.00     0.010 C 
HETATM   10  C   LIG     1      25.767  21.839  22.543  1.00  0.00    -0.002 C 
HETATM   11  C   LIG     1      24.227  22.048  22.700  1.00  0.00     0.035 C 
HETATM   12  C   LIG     1      23.649  21.238  23.896  1.00  0.00     0.124 C 
HETATM   13  C   LIG     1      24.290  21.695  25.250  1.00  0.00     0.045 C 
HETATM   14  C   LIG     1      25.811  22.110  25.157  1.00  0.00     0.001 C 
HETATM   15  C   LIG     1      25.899  23.675  25.123  1.00  0.00     0.019 C 
HETATM   16  C   LIG     1      26.437  21.482  23.899  1.00  0.00     0.002 C 
HETATM   17  C   LIG     1      27.950  21.610  24.047  1.00  0.00     0.009 C 
HETATM   18  C   LIG     1      28.191  21.660  25.563  1.00  0.00     0.047 C 
HETATM   19  C   LIG     1      26.800  21.588  26.278  1.00  0.00     0.128 C 
HETATM   20  C   LIG     1      24.540  21.989  18.994  1.00  0.00     0.058 C 
ENDROOT
BRANCH  19  21
HETATM   21  C   LIG     1      26.467  20.178  26.820  1.00  0.00     0.185 C 
HETATM   22  O   LIG     1      26.499  19.240  26.038  1.00  0.00    -0.292 OA
BRANCH  21  23
HETATM   23  C   LIG     1      25.949  19.887  28.210  1.00  0.00     0.260 C 
BRANCH  23  24
HETATM   24  O   LIG     1      24.705  20.544  28.428  1.00  0.00    -0.314 OA
BRANCH  24  25
HETATM   25  C   LIG     1      23.515  19.865  28.709  1.00  0.00     0.255 C 
HETATM   26  C   LIG     1      22.299  20.132  27.886  1.00  0.00     0.126 C 
HETATM   27  O   LIG     1      23.462  19.024  29.647  1.00  0.00    -0.266 OA
ENDBRANCH  24  25
ENDBRANCH  23  24
ENDBRANCH  21  23
ENDBRANCH  19  21
BRANCH  19  28
HETATM   28  O   LIG     1      26.799  22.468  27.381  1.00  0.00    -0.381 OA
HETATM   29  H   LIG     1      27.437  22.116  28.052  1.00  0.00     0.211 HD
ENDBRANCH  19  28
BRANCH  12  30
HETATM   30  O   LIG     1      23.879  19.861  23.714  1.00  0.00    -0.395 OA
HETATM   31  H   LIG     1      23.937  19.454  24.617  1.00  0.00     0.210 HD
ENDBRANCH  12  30
TORSDOF 6
ENDMDL
MODEL 13
REMARK VINA RESULT:      -4.3      3.745      5.385
REMARK  6 active torsions:
REMARK  status: ('A' for Active; 'I' for Inactive)
REMARK    1  A    between atoms: C_12  and  O_13 
REMARK    2  A    between atoms: C_20  and  C_22 
REMARK    3  A    between atoms: C_20  and  O_21 
REMARK    4  A    between atoms: C_22  and  C_23 
REMARK    5  A    between atoms: C_23  and  O_24 
REMARK    6  A    between atoms: O_24  and  C_25 
ROOT
HETATM    1  O   LIG     1      23.291  20.410  17.966  1.00  0.00    -0.289 OA
HETATM    2  C   LIG     1      23.589  21.011  19.031  1.00  0.00     0.171 C 
HETATM    3  C   LIG     1      23.188  20.459  20.326  1.00  0.00     0.052 C 
HETATM    4  C   LIG     1      23.435  21.131  21.453  1.00  0.00    -0.009 C 
HETATM    5  C   LIG     1      23.972  22.559  21.455  1.00  0.00     0.004 C 
HETATM    6  C   LIG     1      22.761  23.497  21.630  1.00  0.00     0.025 C 
HETATM    7  C   LIG     1      24.649  22.916  20.113  1.00  0.00    -0.064 C 
HETATM    8  C   LIG     1      25.764  23.943  20.129  1.00  0.00     0.036 C 
HETATM    9  C   LIG     1      26.926  23.478  21.046  1.00  0.00     0.010 C 
HETATM   10  C   LIG     1      26.462  22.459  22.123  1.00  0.00    -0.002 C 
HETATM   11  C   LIG     1      25.020  22.809  22.610  1.00  0.00     0.035 C 
HETATM   12  C   LIG     1      24.721  22.216  24.017  1.00  0.00     0.124 C 
HETATM   13  C   LIG     1      25.696  22.799  25.095  1.00  0.00     0.045 C 
HETATM   14  C   LIG     1      27.164  23.074  24.580  1.00  0.00     0.001 C 
HETATM   15  C   LIG     1      27.310  24.608  24.292  1.00  0.00     0.019 C 
HETATM   16  C   LIG     1      27.431  22.235  23.318  1.00  0.00     0.002 C 
HETATM   17  C   LIG     1      28.937  22.261  23.080  1.00  0.00     0.009 C 
HETATM   18  C   LIG     1      29.548  22.495  24.469  1.00  0.00     0.047 C 
HETATM   19  C   LIG     1      28.376  22.630  25.498  1.00  0.00     0.128 C 
HETATM   20  C   LIG     1      24.403  22.227  18.989  1.00  0.00     0.058 C 
ENDROOT
BRANCH  19  21
HETATM   21  C   LIG     1      28.125  21.338  26.309  1.00  0.00     0.185 C 
HETATM   22  O   LIG     1      27.389  20.491  25.825  1.00  0.00    -0.292 OA
BRANCH  21  23
HETATM   23  C   LIG     1      28.591  21.103  27.728  1.00  0.00     0.260 C 
BRANCH  23  24
HETATM   24  O   LIG     1      28.025  22.070  28.606  1.00  0.00    -0.314 OA
BRANCH  24  25
HETATM   25  C   LIG     1      26.653  22.328  28.686  1.00  0.00     0.255 C 
HETATM   26  C   LIG     1      25.722  21.248  29.127  1.00  0.00     0.126 C 
HETATM   27  O   LIG     1      26.196  23.466  28.394  1.00  0.00    -0.266 OA
ENDBRANCH  24  25
ENDBRANCH  23  24
ENDBRANCH  21  23
ENDBRANCH  19  21
BRANCH  19  28
HETATM   28  O   LIG     1      28.687  23.649  26.424  1.00  0.00    -0.381 OA
HETATM   29  H   LIG     1      28.900  24.470  25.913  1.00  0.00     0.211 HD
ENDBRANCH  19  28
BRANCH  12  30
HETATM   30  O   LIG     1      24.837  20.814  23.994  1.00  0.00    -0.395 OA
HETATM   31  H   LIG     1      24.137  20.474  23.377  1.00  0.00     0.210 HD
ENDBRANCH  12  30
TORSDOF 6
ENDMDL
MODEL 14
REMARK VINA RESULT:      -4.3      3.321      5.702
REMARK  6 active torsions:
REMARK  status: ('A' for Active; 'I' for Inactive)
REMARK    1  A    between atoms: C_12  and  O_13 
REMARK    2  A    between atoms: C_20  and  C_22 
REMARK    3  A    between atoms: C_20  and  O_21 
REMARK    4  A    between atoms: C_22  and  C_23 
REMARK    5  A    between atoms: C_23  and  O_24 
REMARK    6  A    between atoms: O_24  and  C_25 
ROOT
HETATM    1  O   LIG     1      24.248  21.611  25.861  1.00  0.00    -0.289 OA
HETATM    2  C   LIG     1      24.107  21.630  24.610  1.00  0.00     0.171 C 
HETATM    3  C   LIG     1      24.737  22.684  23.813  1.00  0.00     0.052 C 
HETATM    4  C   LIG     1      24.528  22.753  22.496  1.00  0.00    -0.009 C 
HETATM    5  C   LIG     1      23.506  21.873  21.782  1.00  0.00     0.004 C 
HETATM    6  C   LIG     1      22.220  22.709  21.628  1.00  0.00     0.025 C 
HETATM    7  C   LIG     1      23.151  20.619  22.612  1.00  0.00    -0.064 C 
HETATM    8  C   LIG     1      22.727  19.370  21.868  1.00  0.00     0.036 C 
HETATM    9  C   LIG     1      23.845  18.899  20.902  1.00  0.00     0.010 C 
HETATM   10  C   LIG     1      24.803  20.051  20.494  1.00  0.00    -0.002 C 
HETATM   11  C   LIG     1      24.010  21.391  20.365  1.00  0.00     0.035 C 
HETATM   12  C   LIG     1      24.745  22.417  19.455  1.00  0.00     0.124 C 
HETATM   13  C   LIG     1      24.908  21.866  17.998  1.00  0.00     0.045 C 
HETATM   14  C   LIG     1      25.159  20.310  17.903  1.00  0.00     0.001 C 
HETATM   15  C   LIG     1      23.809  19.611  17.518  1.00  0.00     0.019 C 
HETATM   16  C   LIG     1      25.697  19.793  19.249  1.00  0.00     0.002 C 
HETATM   17  C   LIG     1      26.249  18.395  18.997  1.00  0.00     0.009 C 
HETATM   18  C   LIG     1      26.641  18.390  17.512  1.00  0.00     0.047 C 
HETATM   19  C   LIG     1      26.280  19.790  16.912  1.00  0.00     0.128 C 
HETATM   20  C   LIG     1      23.376  20.557  23.933  1.00  0.00     0.058 C 
ENDROOT
BRANCH  19  21
HETATM   21  C   LIG     1      27.502  20.729  16.779  1.00  0.00     0.185 C 
HETATM   22  O   LIG     1      27.515  21.752  17.448  1.00  0.00    -0.292 OA
BRANCH  21  23
HETATM   23  C   LIG     1      28.613  20.564  15.769  1.00  0.00     0.260 C 
BRANCH  23  24
HETATM   24  O   LIG     1      28.241  21.134  14.518  1.00  0.00    -0.314 OA
BRANCH  24  25
HETATM   25  C   LIG     1      28.391  20.471  13.295  1.00  0.00     0.255 C 
HETATM   26  C   LIG     1      27.183  20.110  12.497  1.00  0.00     0.126 C 
HETATM   27  O   LIG     1      29.538  20.183  12.859  1.00  0.00    -0.266 OA
ENDBRANCH  24  25
ENDBRANCH  23  24
ENDBRANCH  21  23
ENDBRANCH  19  21
BRANCH  19  28
HETATM   28  O   LIG     1      25.746  19.617  15.617  1.00  0.00    -0.381 OA
HETATM   29  H   LIG     1      26.449  19.863  14.963  1.00  0.00     0.211 HD
ENDBRANCH  19  28
BRANCH  12  30
HETATM   30  O   LIG     1      26.014  22.720  19.984  1.00  0.00    -0.395 OA
HETATM   31  H   LIG     1      26.427  21.861  20.259  1.00  0.00     0.210 HD
ENDBRANCH  12  30
TORSDOF 6
ENDMDL
MODEL 15
REMARK VINA RESULT:      -4.3      6.623      8.875
REMARK  6 active torsions:
REMARK  status: ('A' for Active; 'I' for Inactive)
REMARK    1  A    between atoms: C_12  and  O_13 
REMARK    2  A    between atoms: C_20  and  C_22 
REMARK    3  A    between atoms: C_20  and  O_21 
REMARK    4  A    between atoms: C_22  and  C_23 
REMARK    5  A    between atoms: C_23  and  O_24 
REMARK    6  A    between atoms: O_24  and  C_25 
ROOT
HETATM    1  O   LIG     1      21.288  19.930  28.378  1.00  0.00    -0.289 OA
HETATM    2  C   LIG     1      22.419  20.363  28.036  1.00  0.00     0.171 C 
HETATM    3  C   LIG     1      22.530  21.593  27.250  1.00  0.00     0.052 C 
HETATM    4  C   LIG     1      23.722  22.016  26.820  1.00  0.00    -0.009 C 
HETATM    5  C   LIG     1      24.988  21.176  26.959  1.00  0.00     0.004 C 
HETATM    6  C   LIG     1      25.201  20.455  25.613  1.00  0.00     0.025 C 
HETATM    7  C   LIG     1      24.838  20.092  28.050  1.00  0.00    -0.064 C 
HETATM    8  C   LIG     1      26.087  19.638  28.777  1.00  0.00     0.036 C 
HETATM    9  C   LIG     1      26.769  20.830  29.497  1.00  0.00     0.010 C 
HETATM   10  C   LIG     1      26.402  22.199  28.860  1.00  0.00    -0.002 C 
HETATM   11  C   LIG     1      26.256  22.049  27.312  1.00  0.00     0.035 C 
HETATM   12  C   LIG     1      26.444  23.407  26.575  1.00  0.00     0.124 C 
HETATM   13  C   LIG     1      27.876  23.990  26.822  1.00  0.00     0.045 C 
HETATM   14  C   LIG     1      28.467  23.711  28.260  1.00  0.00     0.001 C 
HETATM   15  C   LIG     1      29.477  22.516  28.160  1.00  0.00     0.019 C 
HETATM   16  C   LIG     1      27.317  23.398  29.234  1.00  0.00     0.002 C 
HETATM   17  C   LIG     1      27.894  23.492  30.643  1.00  0.00     0.009 C 
HETATM   18  C   LIG     1      29.076  24.464  30.517  1.00  0.00     0.047 C 
HETATM   19  C   LIG     1      29.187  24.900  29.018  1.00  0.00     0.128 C 
HETATM   20  C   LIG     1      23.636  19.684  28.483  1.00  0.00     0.058 C 
ENDROOT
BRANCH  19  21
HETATM   21  C   LIG     1      28.580  26.296  28.743  1.00  0.00     0.185 C 
HETATM   22  O   LIG     1      29.267  27.112  28.147  1.00  0.00    -0.292 OA
BRANCH  21  23
HETATM   23  C   LIG     1      27.261  26.788  29.291  1.00  0.00     0.260 C 
BRANCH  23  24
HETATM   24  O   LIG     1      27.474  27.737  30.331  1.00  0.00    -0.314 OA
BRANCH  24  25
HETATM   25  C   LIG     1      27.250  27.459  31.683  1.00  0.00     0.255 C 
HETATM   26  C   LIG     1      28.381  27.553  32.653  1.00  0.00     0.126 C 
HETATM   27  O   LIG     1      26.102  27.138  32.091  1.00  0.00    -0.266 OA
ENDBRANCH  24  25
ENDBRANCH  23  24
ENDBRANCH  21  23
ENDBRANCH  19  21
BRANCH  19  28
HETATM   28  O   LIG     1      30.549  24.960  28.652  1.00  0.00    -0.381 OA
HETATM   29  H   LIG     1      31.065  24.427  29.309  1.00  0.00     0.211 HD
ENDBRANCH  19  28
BRANCH  12  30
HETATM   30  O   LIG     1      25.481  24.337  27.009  1.00  0.00    -0.395 OA
HETATM   31  H   LIG     1      24.677  23.820  27.276  1.00  0.00     0.210 HD
ENDBRANCH  12  30
TORSDOF 6
ENDMDL
MODEL 16
REMARK VINA RESULT:      -4.2      6.643      8.472
REMARK  6 active torsions:
REMARK  status: ('A' for Active; 'I' for Inactive)
REMARK    1  A    between atoms: C_12  and  O_13 
REMARK    2  A    between atoms: C_20  and  C_22 
REMARK    3  A    between atoms: C_20  and  O_21 
REMARK    4  A    between atoms: C_22  and  C_23 
REMARK    5  A    between atoms: C_23  and  O_24 
REMARK    6  A    between atoms: O_24  and  C_25 
ROOT
HETATM    1  O   LIG     1      19.627  19.831  29.421  1.00  0.00    -0.289 OA
HETATM    2  C   LIG     1      20.720  19.999  28.820  1.00  0.00     0.171 C 
HETATM    3  C   LIG     1      20.914  21.163  27.955  1.00  0.00     0.052 C 
HETATM    4  C   LIG     1      22.044  21.305  27.255  1.00  0.00    -0.009 C 
HETATM    5  C   LIG     1      23.100  20.208  27.174  1.00  0.00     0.004 C 
HETATM    6  C   LIG     1      22.852  19.440  25.860  1.00  0.00     0.025 C 
HETATM    7  C   LIG     1      22.968  19.199  28.336  1.00  0.00    -0.064 C 
HETATM    8  C   LIG     1      24.221  18.489  28.808  1.00  0.00     0.036 C 
HETATM    9  C   LIG     1      25.283  19.511  29.291  1.00  0.00     0.010 C 
HETATM   10  C   LIG     1      25.085  20.918  28.663  1.00  0.00    -0.002 C 
HETATM   11  C   LIG     1      24.571  20.783  27.194  1.00  0.00     0.035 C 
HETATM   12  C   LIG     1      24.876  22.055  26.351  1.00  0.00     0.124 C 
HETATM   13  C   LIG     1      26.418  22.310  26.251  1.00  0.00     0.045 C 
HETATM   14  C   LIG     1      27.239  21.928  27.546  1.00  0.00     0.001 C 
HETATM   15  C   LIG     1      27.923  20.538  27.307  1.00  0.00     0.019 C 
HETATM   16  C   LIG     1      26.293  21.889  28.760  1.00  0.00     0.002 C 
HETATM   17  C   LIG     1      27.173  21.873  30.005  1.00  0.00     0.009 C 
HETATM   18  C   LIG     1      28.478  22.557  29.570  1.00  0.00     0.047 C 
HETATM   19  C   LIG     1      28.345  22.938  28.058  1.00  0.00     0.128 C 
HETATM   20  C   LIG     1      21.833  19.073  29.039  1.00  0.00     0.058 C 
ENDROOT
BRANCH  19  21
HETATM   21  C   LIG     1      28.004  24.429  27.833  1.00  0.00     0.185 C 
HETATM   22  O   LIG     1      28.734  25.080  27.100  1.00  0.00    -0.292 OA
BRANCH  21  23
HETATM   23  C   LIG     1      26.928  25.192  28.571  1.00  0.00     0.260 C 
BRANCH  23  24
HETATM   24  O   LIG     1      27.416  25.656  29.826  1.00  0.00    -0.314 OA
BRANCH  24  25
HETATM   25  C   LIG     1      27.308  26.985  30.249  1.00  0.00     0.255 C 
HETATM   26  C   LIG     1      28.031  28.058  29.505  1.00  0.00     0.126 C 
HETATM   27  O   LIG     1      26.601  27.285  31.248  1.00  0.00    -0.266 OA
ENDBRANCH  24  25
ENDBRANCH  23  24
ENDBRANCH  21  23
ENDBRANCH  19  21
BRANCH  19  28
HETATM   28  O   LIG     1      29.573  22.690  27.407  1.00  0.00    -0.381 OA
HETATM   29  H   LIG     1      29.666  23.348  26.673  1.00  0.00     0.211 HD
ENDBRANCH  19  28
BRANCH  12  30
HETATM   30  O   LIG     1      24.254  23.182  26.921  1.00  0.00    -0.395 OA
HETATM   31  H   LIG     1      23.662  22.851  27.647  1.00  0.00     0.210 HD
ENDBRANCH  12  30
TORSDOF 6
ENDMDL
MODEL 17
REMARK VINA RESULT:      -4.2      3.795      6.098
REMARK  6 active torsions:
REMARK  status: ('A' for Active; 'I' for Inactive)
REMARK    1  A    between atoms: C_12  and  O_13 
REMARK    2  A    between atoms: C_20  and  C_22 
REMARK    3  A    between atoms: C_20  and  O_21 
REMARK    4  A    between atoms: C_22  and  C_23 
REMARK    5  A    between atoms: C_23  and  O_24 
REMARK    6  A    between atoms: O_24  and  C_25 
ROOT
HETATM    1  O   LIG     1      24.059  19.930  18.534  1.00  0.00    -0.289 OA
HETATM    2  C   LIG     1      24.166  20.643  19.565  1.00  0.00     0.171 C 
HETATM    3  C   LIG     1      23.463  20.273  20.794  1.00  0.00     0.052 C 
HETATM    4  C   LIG     1      23.511  21.066  21.868  1.00  0.00    -0.009 C 
HETATM    5  C   LIG     1      24.135  22.458  21.829  1.00  0.00     0.004 C 
HETATM    6  C   LIG     1      22.983  23.463  21.631  1.00  0.00     0.025 C 
HETATM    7  C   LIG     1      25.104  22.618  20.637  1.00  0.00    -0.064 C 
HETATM    8  C   LIG     1      26.259  23.587  20.784  1.00  0.00     0.036 C 
HETATM    9  C   LIG     1      27.165  23.187  21.977  1.00  0.00     0.010 C 
HETATM   10  C   LIG     1      26.414  22.329  23.033  1.00  0.00    -0.002 C 
HETATM   11  C   LIG     1      24.929  22.800  23.151  1.00  0.00     0.035 C 
HETATM   12  C   LIG     1      24.297  22.399  24.515  1.00  0.00     0.124 C 
HETATM   13  C   LIG     1      25.061  23.065  25.709  1.00  0.00     0.045 C 
HETATM   14  C   LIG     1      26.620  23.209  25.501  1.00  0.00     0.001 C 
HETATM   15  C   LIG     1      26.931  24.688  25.085  1.00  0.00     0.019 C 
HETATM   16  C   LIG     1      27.089  22.211  24.428  1.00  0.00     0.002 C 
HETATM   17  C   LIG     1      28.609  22.140  24.524  1.00  0.00     0.009 C 
HETATM   18  C   LIG     1      28.927  22.514  25.979  1.00  0.00     0.047 C 
HETATM   19  C   LIG     1      27.576  22.828  26.704  1.00  0.00     0.128 C 
HETATM   20  C   LIG     1      25.054  21.807  19.569  1.00  0.00     0.058 C 
ENDROOT
BRANCH  19  21
HETATM   21  C   LIG     1      27.068  21.657  27.579  1.00  0.00     0.185 C 
HETATM   22  O   LIG     1      26.423  21.928  28.581  1.00  0.00    -0.292 OA
BRANCH  21  23
HETATM   23  C   LIG     1      27.439  20.205  27.381  1.00  0.00     0.260 C 
BRANCH  23  24
HETATM   24  O   LIG     1      26.662  19.629  26.335  1.00  0.00    -0.314 OA
BRANCH  24  25
HETATM   25  C   LIG     1      27.160  18.675  25.443  1.00  0.00     0.255 C 
HETATM   26  C   LIG     1      26.534  18.525  24.096  1.00  0.00     0.126 C 
HETATM   27  O   LIG     1      28.137  17.946  25.763  1.00  0.00    -0.266 OA
ENDBRANCH  24  25
ENDBRANCH  23  24
ENDBRANCH  21  23
ENDBRANCH  19  21
BRANCH  19  28
HETATM   28  O   LIG     1      27.754  23.937  27.559  1.00  0.00    -0.381 OA
HETATM   29  H   LIG     1      28.325  23.649  28.316  1.00  0.00     0.211 HD
ENDBRANCH  19  28
BRANCH  12  30
HETATM   30  O   LIG     1      24.317  21.000  24.672  1.00  0.00    -0.395 OA
HETATM   31  H   LIG     1      24.949  20.799  25.411  1.00  0.00     0.210 HD
ENDBRANCH  12  30
TORSDOF 6
ENDMDL
MODEL 18
REMARK VINA RESULT:      -4.1      3.704      6.580
REMARK  6 active torsions:
REMARK  status: ('A' for Active; 'I' for Inactive)
REMARK    1  A    between atoms: C_12  and  O_13 
REMARK    2  A    between atoms: C_20  and  C_22 
REMARK    3  A    between atoms: C_20  and  O_21 
REMARK    4  A    between atoms: C_22  and  C_23 
REMARK    5  A    between atoms: C_23  and  O_24 
REMARK    6  A    between atoms: O_24  and  C_25 
ROOT
HETATM    1  O   LIG     1      27.256  20.376  28.580  1.00  0.00    -0.289 OA
HETATM    2  C   LIG     1      26.736  20.918  27.571  1.00  0.00     0.171 C 
HETATM    3  C   LIG     1      27.582  21.469  26.511  1.00  0.00     0.052 C 
HETATM    4  C   LIG     1      27.037  22.113  25.476  1.00  0.00    -0.009 C 
HETATM    5  C   LIG     1      25.554  22.465  25.419  1.00  0.00     0.004 C 
HETATM    6  C   LIG     1      25.419  23.928  25.889  1.00  0.00     0.025 C 
HETATM    7  C   LIG     1      24.720  21.588  26.380  1.00  0.00    -0.064 C 
HETATM    8  C   LIG     1      23.276  21.308  26.016  1.00  0.00     0.036 C 
HETATM    9  C   LIG     1      23.184  20.589  24.646  1.00  0.00     0.010 C 
HETATM   10  C   LIG     1      24.427  20.850  23.752  1.00  0.00    -0.002 C 
HETATM   11  C   LIG     1      24.950  22.306  23.968  1.00  0.00     0.035 C 
HETATM   12  C   LIG     1      25.793  22.808  22.760  1.00  0.00     0.124 C 
HETATM   13  C   LIG     1      24.936  22.844  21.450  1.00  0.00     0.045 C 
HETATM   14  C   LIG     1      23.870  21.685  21.323  1.00  0.00     0.001 C 
HETATM   15  C   LIG     1      22.462  22.261  21.705  1.00  0.00     0.019 C 
HETATM   16  C   LIG     1      24.269  20.517  22.242  1.00  0.00     0.002 C 
HETATM   17  C   LIG     1      23.430  19.316  21.820  1.00  0.00     0.009 C 
HETATM   18  C   LIG     1      23.099  19.569  20.342  1.00  0.00     0.047 C 
HETATM   19  C   LIG     1      23.733  20.941  19.932  1.00  0.00     0.128 C 
HETATM   20  C   LIG     1      25.281  20.936  27.410  1.00  0.00     0.058 C 
ENDROOT
BRANCH  19  21
HETATM   21  C   LIG     1      25.061  20.789  19.154  1.00  0.00     0.185 C 
HETATM   22  O   LIG     1      26.057  20.454  19.778  1.00  0.00    -0.292 OA
BRANCH  21  23
HETATM   23  C   LIG     1      25.265  21.175  17.707  1.00  0.00     0.260 C 
BRANCH  23  24
HETATM   24  O   LIG     1      25.035  20.058  16.854  1.00  0.00    -0.314 OA
BRANCH  24  25
HETATM   25  C   LIG     1      26.033  19.470  16.071  1.00  0.00     0.255 C 
HETATM   26  C   LIG     1      26.921  18.429  16.666  1.00  0.00     0.126 C 
HETATM   27  O   LIG     1      26.183  19.806  14.866  1.00  0.00    -0.266 OA
ENDBRANCH  24  25
ENDBRANCH  23  24
ENDBRANCH  21  23
ENDBRANCH  19  21
BRANCH  19  28
HETATM   28  O   LIG     1      22.836  21.634  19.092  1.00  0.00    -0.381 OA
HETATM   29  H   LIG     1      23.370  22.179  18.460  1.00  0.00     0.211 HD
ENDBRANCH  19  28
BRANCH  12  30
HETATM   30  O   LIG     1      26.911  21.976  22.563  1.00  0.00    -0.395 OA
HETATM   31  H   LIG     1      27.536  22.146  23.315  1.00  0.00     0.210 HD
ENDBRANCH  12  30
TORSDOF 6
ENDMDL
MODEL 19
REMARK VINA RESULT:      -3.9      6.073      8.614
REMARK  6 active torsions:
REMARK  status: ('A' for Active; 'I' for Inactive)
REMARK    1  A    between atoms: C_12  and  O_13 
REMARK    2  A    between atoms: C_20  and  C_22 
REMARK    3  A    between atoms: C_20  and  O_21 
REMARK    4  A    between atoms: C_22  and  C_23 
REMARK    5  A    between atoms: C_23  and  O_24 
REMARK    6  A    between atoms: O_24  and  C_25 
ROOT
HETATM    1  O   LIG     1      18.690  20.535  29.804  1.00  0.00    -0.289 OA
HETATM    2  C   LIG     1      19.794  20.457  29.205  1.00  0.00     0.171 C 
HETATM    3  C   LIG     1      20.253  21.560  28.359  1.00  0.00     0.052 C 
HETATM    4  C   LIG     1      21.387  21.451  27.662  1.00  0.00    -0.009 C 
HETATM    5  C   LIG     1      22.164  20.142  27.561  1.00  0.00     0.004 C 
HETATM    6  C   LIG     1      21.750  19.473  26.235  1.00  0.00     0.025 C 
HETATM    7  C   LIG     1      21.800  19.171  28.707  1.00  0.00    -0.064 C 
HETATM    8  C   LIG     1      22.854  18.184  29.166  1.00  0.00     0.036 C 
HETATM    9  C   LIG     1      24.121  18.927  29.665  1.00  0.00     0.010 C 
HETATM   10  C   LIG     1      24.253  20.351  29.061  1.00  0.00    -0.002 C 
HETATM   11  C   LIG     1      23.728  20.363  27.590  1.00  0.00     0.035 C 
HETATM   12  C   LIG     1      24.320  21.545  26.769  1.00  0.00     0.124 C 
HETATM   13  C   LIG     1      25.879  21.440  26.672  1.00  0.00     0.045 C 
HETATM   14  C   LIG     1      26.586  20.858  27.960  1.00  0.00     0.001 C 
HETATM   15  C   LIG     1      26.934  19.352  27.697  1.00  0.00     0.019 C 
HETATM   16  C   LIG     1      25.653  21.018  29.173  1.00  0.00     0.002 C 
HETATM   17  C   LIG     1      26.501  20.779  30.418  1.00  0.00     0.009 C 
HETATM   18  C   LIG     1      27.930  21.152  29.994  1.00  0.00     0.047 C 
HETATM   19  C   LIG     1      27.893  21.578  28.488  1.00  0.00     0.128 C 
HETATM   20  C   LIG     1      20.663  19.297  29.408  1.00  0.00     0.058 C 
ENDROOT
BRANCH  19  21
HETATM   21  C   LIG     1      27.904  23.112  28.289  1.00  0.00     0.185 C 
HETATM   22  O   LIG     1      27.024  23.767  28.827  1.00  0.00    -0.292 OA
BRANCH  21  23
HETATM   23  C   LIG     1      28.826  23.855  27.350  1.00  0.00     0.260 C 
BRANCH  23  24
HETATM   24  O   LIG     1      28.413  23.678  25.999  1.00  0.00    -0.314 OA
BRANCH  24  25
HETATM   25  C   LIG     1      27.614  24.598  25.313  1.00  0.00     0.255 C 
HETATM   26  C   LIG     1      28.190  25.373  24.175  1.00  0.00     0.126 C 
HETATM   27  O   LIG     1      26.409  24.772  25.642  1.00  0.00    -0.266 OA
ENDBRANCH  24  25
ENDBRANCH  23  24
ENDBRANCH  21  23
ENDBRANCH  19  21
BRANCH  19  28
HETATM   28  O   LIG     1      29.033  21.066  27.833  1.00  0.00    -0.381 OA
HETATM   29  H   LIG     1      29.627  21.828  27.615  1.00  0.00     0.211 HD
ENDBRANCH  19  28
BRANCH  12  30
HETATM   30  O   LIG     1      23.971  22.775  27.358  1.00  0.00    -0.395 OA
HETATM   31  H   LIG     1      24.327  22.764  28.285  1.00  0.00     0.210 HD
ENDBRANCH  12  30
TORSDOF 6
ENDMDL
MODEL 20
REMARK VINA RESULT:      -3.7      4.226      8.668
REMARK  6 active torsions:
REMARK  status: ('A' for Active; 'I' for Inactive)
REMARK    1  A    between atoms: C_12  and  O_13 
REMARK    2  A    between atoms: C_20  and  C_22 
REMARK    3  A    between atoms: C_20  and  O_21 
REMARK    4  A    between atoms: C_22  and  C_23 
REMARK    5  A    between atoms: C_23  and  O_24 
REMARK    6  A    between atoms: O_24  and  C_25 
ROOT
HETATM    1  O   LIG     1      28.432  28.516  29.797  1.00  0.00    -0.289 OA
HETATM    2  C   LIG     1      28.307  27.364  29.305  1.00  0.00     0.171 C 
HETATM    3  C   LIG     1      27.033  26.652  29.409  1.00  0.00     0.052 C 
HETATM    4  C   LIG     1      26.919  25.400  28.957  1.00  0.00    -0.009 C 
HETATM    5  C   LIG     1      28.120  24.589  28.480  1.00  0.00     0.004 C 
HETATM    6  C   LIG     1      28.560  23.700  29.660  1.00  0.00     0.025 C 
HETATM    7  C   LIG     1      29.313  25.497  28.109  1.00  0.00    -0.064 C 
HETATM    8  C   LIG     1      30.280  25.006  27.051  1.00  0.00     0.036 C 
HETATM    9  C   LIG     1      29.544  24.753  25.709  1.00  0.00     0.010 C 
HETATM   10  C   LIG     1      28.026  24.489  25.903  1.00  0.00    -0.002 C 
HETATM   11  C   LIG     1      27.782  23.692  27.224  1.00  0.00     0.035 C 
HETATM   12  C   LIG     1      26.425  22.932  27.205  1.00  0.00     0.124 C 
HETATM   13  C   LIG     1      26.383  21.878  26.047  1.00  0.00     0.045 C 
HETATM   14  C   LIG     1      27.137  22.313  24.728  1.00  0.00     0.001 C 
HETATM   15  C   LIG     1      28.535  21.603  24.698  1.00  0.00     0.019 C 
HETATM   16  C   LIG     1      27.282  23.845  24.701  1.00  0.00     0.002 C 
HETATM   17  C   LIG     1      27.679  24.226  23.279  1.00  0.00     0.009 C 
HETATM   18  C   LIG     1      27.120  23.097  22.401  1.00  0.00     0.047 C 
HETATM   19  C   LIG     1      26.425  22.053  23.338  1.00  0.00     0.128 C 
HETATM   20  C   LIG     1      29.411  26.757  28.560  1.00  0.00     0.058 C 
ENDROOT
BRANCH  19  21
HETATM   21  C   LIG     1      24.885  22.194  23.371  1.00  0.00     0.185 C 
HETATM   22  O   LIG     1      24.410  23.152  23.962  1.00  0.00    -0.292 OA
BRANCH  21  23
HETATM   23  C   LIG     1      23.911  21.156  22.864  1.00  0.00     0.260 C 
BRANCH  23  24
HETATM   24  O   LIG     1      23.184  20.583  23.946  1.00  0.00    -0.314 OA
BRANCH  24  25
HETATM   25  C   LIG     1      23.703  19.587  24.780  1.00  0.00     0.255 C 
HETATM   26  C   LIG     1      23.028  19.283  26.076  1.00  0.00     0.126 C 
HETATM   27  O   LIG     1      24.731  18.941  24.444  1.00  0.00    -0.266 OA
ENDBRANCH  24  25
ENDBRANCH  23  24
ENDBRANCH  21  23
ENDBRANCH  19  21
BRANCH  19  28
HETATM   28  O   LIG     1      26.713  20.751  22.876  1.00  0.00    -0.381 OA
HETATM   29  H   LIG     1      27.591  20.482  23.250  1.00  0.00     0.211 HD
ENDBRANCH  19  28
BRANCH  12  30
HETATM   30  O   LIG     1      25.358  23.838  27.048  1.00  0.00    -0.395 OA
HETATM   31  H   LIG     1      25.200  23.936  26.073  1.00  0.00     0.210 HD
ENDBRANCH  12  30
TORSDOF 6
ENDMDL
