REMARK  6 active torsions:
REMARK  status: ('A' for Active; 'I' for Inactive)
REMARK    1  A    between atoms: C_12  and  O_13 
REMARK    2  A    between atoms: C_20  and  C_22 
REMARK    3  A    between atoms: C_20  and  O_21 
REMARK    4  A    between atoms: C_22  and  C_23 
REMARK    5  A    between atoms: C_23  and  O_24 
REMARK    6  A    between atoms: O_24  and  C_25 
ROOT
HETATM    1  O   LIG     1      -4.358  -0.075   4.374  1.00  0.00    -0.289 OA
HETATM    2  C   LIG     1      -3.800   0.183   3.276  1.00  0.00     0.171 C 
HETATM    3  C   LIG     1      -2.964   1.376   3.136  1.00  0.00     0.052 C 
HETATM    4  C   LIG     1      -2.432   1.695   1.953  1.00  0.00    -0.009 C 
HETATM    5  C   LIG     1      -2.796   0.960   0.667  1.00  0.00     0.004 C 
HETATM    6  C   LIG     1      -3.879   1.799  -0.041  1.00  0.00     0.025 C 
HETATM    7  C   LIG     1      -3.399  -0.433   0.955  1.00  0.00    -0.064 C 
HETATM    8  C   LIG     1      -3.207  -1.520  -0.083  1.00  0.00     0.036 C 
HETATM    9  C   LIG     1      -1.699  -1.786  -0.328  1.00  0.00     0.010 C 
HETATM   10  C   LIG     1      -0.811  -0.568   0.048  1.00  0.00    -0.002 C 
HETATM   11  C   LIG     1      -1.554   0.764  -0.289  1.00  0.00     0.035 C 
HETATM   12  C   LIG     1      -0.566   1.953  -0.467  1.00  0.00     0.124 C 
HETATM   13  C   LIG     1       0.422   1.694  -1.654  1.00  0.00     0.045 C 
HETATM   14  C   LIG     1       0.860   0.187  -1.835  1.00  0.00     0.001 C 
HETATM   15  C   LIG     1       0.024  -0.436  -3.006  1.00  0.00     0.019 C 
HETATM   16  C   LIG     1       0.637  -0.574  -0.516  1.00  0.00     0.002 C 
HETATM   17  C   LIG     1       1.393  -1.893  -0.634  1.00  0.00     0.009 C 
HETATM   18  C   LIG     1       2.524  -1.608  -1.633  1.00  0.00     0.047 C 
HETATM   19  C   LIG     1       2.389  -0.122  -2.106  1.00  0.00     0.128 C 
HETATM   20  C   LIG     1      -3.920  -0.746   2.151  1.00  0.00     0.058 C 
ENDROOT
BRANCH  19  21
HETATM   21  C   LIG     1       3.372   0.836  -1.393  1.00  0.00     0.185 C 
HETATM   22  O   LIG     1       3.546   1.944  -1.878  1.00  0.00    -0.292 OA
BRANCH  21  23
HETATM   23  C   LIG     1       4.258   0.457  -0.229  1.00  0.00     0.260 C 
BRANCH  23  24
HETATM   24  O   LIG     1       3.471   0.085   0.898  1.00  0.00    -0.314 OA
BRANCH  24  25
HETATM   25  C   LIG     1       4.019  -0.341   2.112  1.00  0.00     0.255 C 
HETATM   26  C   LIG     1       3.118  -0.654   3.260  1.00  0.00     0.126 C 
HETATM   27  O   LIG     1       5.266  -0.470   2.243  1.00  0.00    -0.266 OA
ENDBRANCH  24  25
ENDBRANCH  23  24
ENDBRANCH  21  23
ENDBRANCH  19  21
BRANCH  19  28
HETATM   28  O   LIG     1       2.666  -0.048  -3.488  1.00  0.00    -0.381 OA
HETATM   29  H   LIG     1       3.576  -0.411  -3.636  1.00  0.00     0.211 HD
ENDBRANCH  19  28
BRANCH  12  30
HETATM   30  O   LIG     1       0.170   2.160   0.715  1.00  0.00    -0.395 OA
HETATM   31  H   LIG     1       0.529   3.085   0.676  1.00  0.00     0.210 HD
ENDBRANCH  12  30
TORSDOF 6
