MODEL 1
REMARK VINA RESULT:      -8.9      0.000      0.000
REMARK  2 active torsions:
REMARK  status: ('A' for Active; 'I' for Inactive)
REMARK    1  A    between atoms: C_6  and  C_13 
REMARK    2  A    between atoms: C_6  and  C_7 
ROOT
HETATM    1  O   LIG     1      19.655  39.090  20.294  1.00  0.00    -0.247 OA
HETATM    2  C   LIG     1      18.685  38.491  20.829  1.00  0.00     0.329 C 
HETATM    3  N   LIG     1      18.479  37.103  20.582  1.00  0.00    -0.278 N 
HETATM    4  N   LIG     1      17.773  39.204  21.658  1.00  0.00    -0.278 N 
HETATM    5  C   LIG     1      16.679  38.534  22.290  1.00  0.00     0.248 C 
HETATM    6  C   LIG     1      16.633  37.009  22.388  1.00  0.00     0.145 C 
HETATM    7  C   LIG     1      17.428  36.386  21.236  1.00  0.00     0.248 C 
HETATM    8  O   LIG     1      17.217  35.187  20.903  1.00  0.00    -0.271 OA
HETATM    9  O   LIG     1      15.779  39.229  22.836  1.00  0.00    -0.271 OA
HETATM   10  H   LIG     1      19.093  36.606  19.897  1.00  0.00     0.173 HD
HETATM   11  H   LIG     1      17.869  40.240  21.756  1.00  0.00     0.173 HD
ENDROOT
BRANCH   6  12
HETATM   12  C   LIG     1      15.153  36.504  22.307  1.00  0.00     0.029 C 
HETATM   13  C   LIG     1      14.804  35.797  20.989  1.00  0.00     0.007 C 
ENDBRANCH   6  12
BRANCH   6  14
HETATM   14  C   LIG     1      17.248  36.600  23.748  1.00  0.00    -0.057 C 
HETATM   15  C   LIG     1      17.849  37.659  24.676  1.00  0.00     0.036 C 
HETATM   16  C   LIG     1      18.618  37.086  25.873  1.00  0.00     0.005 C 
HETATM   17  C   LIG     1      17.833  35.951  26.517  1.00  0.00     0.004 C 
HETATM   18  C   LIG     1      17.649  34.823  25.505  1.00  0.00     0.027 C 
HETATM   19  C   LIG     1      17.099  35.323  24.193  1.00  0.00    -0.022 C 
ENDBRANCH   6  14
TORSDOF 2
ENDMDL
MODEL 2
REMARK VINA RESULT:      -8.8      2.149      4.601
REMARK  2 active torsions:
REMARK  status: ('A' for Active; 'I' for Inactive)
REMARK    1  A    between atoms: C_6  and  C_13 
REMARK    2  A    between atoms: C_6  and  C_7 
ROOT
HETATM    1  O   LIG     1      17.606  37.422  26.191  1.00  0.00    -0.247 OA
HETATM    2  C   LIG     1      17.194  37.195  25.023  1.00  0.00     0.329 C 
HETATM    3  N   LIG     1      16.361  38.145  24.363  1.00  0.00    -0.278 N 
HETATM    4  N   LIG     1      17.530  35.976  24.370  1.00  0.00    -0.278 N 
HETATM    5  C   LIG     1      17.087  35.712  23.036  1.00  0.00     0.248 C 
HETATM    6  C   LIG     1      16.543  36.829  22.145  1.00  0.00     0.145 C 
HETATM    7  C   LIG     1      15.941  37.942  23.010  1.00  0.00     0.248 C 
HETATM    8  O   LIG     1      15.118  38.754  22.505  1.00  0.00    -0.271 OA
HETATM    9  O   LIG     1      17.222  34.546  22.574  1.00  0.00    -0.271 OA
HETATM   10  H   LIG     1      16.038  38.993  24.881  1.00  0.00     0.173 HD
HETATM   11  H   LIG     1      18.056  35.240  24.894  1.00  0.00     0.173 HD
ENDROOT
BRANCH   6  12
HETATM   12  C   LIG     1      15.428  36.274  21.197  1.00  0.00     0.029 C 
HETATM   13  C   LIG     1      14.891  34.893  21.602  1.00  0.00     0.007 C 
ENDBRANCH   6  12
BRANCH   6  14
HETATM   14  C   LIG     1      17.717  37.381  21.301  1.00  0.00    -0.057 C 
HETATM   15  C   LIG     1      18.223  36.607  20.080  1.00  0.00     0.036 C 
HETATM   16  C   LIG     1      19.525  37.154  19.482  1.00  0.00     0.005 C 
HETATM   17  C   LIG     1      19.468  38.672  19.378  1.00  0.00     0.004 C 
HETATM   18  C   LIG     1      19.314  39.271  20.773  1.00  0.00     0.027 C 
HETATM   19  C   LIG     1      18.184  38.635  21.542  1.00  0.00    -0.022 C 
ENDBRANCH   6  14
TORSDOF 2
ENDMDL
MODEL 3
REMARK VINA RESULT:      -8.3      1.651      3.596
REMARK  2 active torsions:
REMARK  status: ('A' for Active; 'I' for Inactive)
REMARK    1  A    between atoms: C_6  and  C_13 
REMARK    2  A    between atoms: C_6  and  C_7 
ROOT
HETATM    1  O   LIG     1      14.447  34.281  20.871  1.00  0.00    -0.247 OA
HETATM    2  C   LIG     1      15.206  35.191  21.299  1.00  0.00     0.329 C 
HETATM    3  N   LIG     1      14.656  36.333  21.947  1.00  0.00    -0.278 N 
HETATM    4  N   LIG     1      16.613  35.096  21.107  1.00  0.00    -0.278 N 
HETATM    5  C   LIG     1      17.491  36.110  21.603  1.00  0.00     0.248 C 
HETATM    6  C   LIG     1      17.015  37.135  22.633  1.00  0.00     0.145 C 
HETATM    7  C   LIG     1      15.503  37.343  22.505  1.00  0.00     0.248 C 
HETATM    8  O   LIG     1      14.970  38.387  22.972  1.00  0.00    -0.271 OA
HETATM    9  O   LIG     1      18.697  36.101  21.232  1.00  0.00    -0.271 OA
HETATM   10  H   LIG     1      13.618  36.444  22.000  1.00  0.00     0.173 HD
HETATM   11  H   LIG     1      17.004  34.307  20.542  1.00  0.00     0.173 HD
ENDROOT
BRANCH   6  12
HETATM   12  C   LIG     1      17.731  38.508  22.402  1.00  0.00     0.029 C 
HETATM   13  C   LIG     1      18.003  38.834  20.927  1.00  0.00     0.007 C 
ENDBRANCH   6  12
BRANCH   6  14
HETATM   14  C   LIG     1      17.366  36.596  24.041  1.00  0.00    -0.057 C 
HETATM   15  C   LIG     1      17.179  35.112  24.370  1.00  0.00     0.036 C 
HETATM   16  C   LIG     1      17.350  34.770  25.855  1.00  0.00     0.005 C 
HETATM   17  C   LIG     1      18.577  35.468  26.427  1.00  0.00     0.004 C 
HETATM   18  C   LIG     1      18.396  36.980  26.320  1.00  0.00     0.027 C 
HETATM   19  C   LIG     1      18.001  37.407  24.929  1.00  0.00    -0.022 C 
ENDBRANCH   6  14
TORSDOF 2
ENDMDL
MODEL 4
REMARK VINA RESULT:      -7.4      2.279      4.622
REMARK  2 active torsions:
REMARK  status: ('A' for Active; 'I' for Inactive)
REMARK    1  A    between atoms: C_6  and  C_13 
REMARK    2  A    between atoms: C_6  and  C_7 
ROOT
HETATM    1  O   LIG     1      14.163  34.501  21.444  1.00  0.00    -0.247 OA
HETATM    2  C   LIG     1      14.972  35.319  21.958  1.00  0.00     0.329 C 
HETATM    3  N   LIG     1      16.142  34.847  22.618  1.00  0.00    -0.278 N 
HETATM    4  N   LIG     1      14.703  36.716  21.909  1.00  0.00    -0.278 N 
HETATM    5  C   LIG     1      15.620  37.659  22.470  1.00  0.00     0.248 C 
HETATM    6  C   LIG     1      17.051  37.257  22.827  1.00  0.00     0.145 C 
HETATM    7  C   LIG     1      17.110  35.759  23.145  1.00  0.00     0.248 C 
HETATM    8  O   LIG     1      18.074  35.297  23.815  1.00  0.00    -0.271 OA
HETATM    9  O   LIG     1      15.251  38.859  22.597  1.00  0.00    -0.271 OA
HETATM   10  H   LIG     1      16.286  33.818  22.735  1.00  0.00     0.173 HD
HETATM   11  H   LIG     1      13.795  37.052  21.514  1.00  0.00     0.173 HD
ENDROOT
BRANCH   6  12
HETATM   12  C   LIG     1      17.542  38.055  24.082  1.00  0.00     0.029 C 
HETATM   13  C   LIG     1      17.051  37.483  25.420  1.00  0.00     0.007 C 
ENDBRANCH   6  12
BRANCH   6  14
HETATM   14  C   LIG     1      17.956  37.585  21.615  1.00  0.00    -0.057 C 
HETATM   15  C   LIG     1      18.077  36.600  20.450  1.00  0.00     0.036 C 
HETATM   16  C   LIG     1      19.173  36.952  19.437  1.00  0.00     0.005 C 
HETATM   17  C   LIG     1      19.133  38.437  19.101  1.00  0.00     0.004 C 
HETATM   18  C   LIG     1      19.394  39.251  20.366  1.00  0.00     0.027 C 
HETATM   19  C   LIG     1      18.508  38.824  21.508  1.00  0.00    -0.022 C 
ENDBRANCH   6  14
TORSDOF 2
ENDMDL
MODEL 5
REMARK VINA RESULT:      -6.8      2.380      4.543
REMARK  2 active torsions:
REMARK  status: ('A' for Active; 'I' for Inactive)
REMARK    1  A    between atoms: C_6  and  C_13 
REMARK    2  A    between atoms: C_6  and  C_7 
ROOT
HETATM    1  O   LIG     1      18.666  34.770  25.837  1.00  0.00    -0.247 OA
HETATM    2  C   LIG     1      17.948  35.471  25.074  1.00  0.00     0.329 C 
HETATM    3  N   LIG     1      17.812  36.869  25.307  1.00  0.00    -0.278 N 
HETATM    4  N   LIG     1      17.245  34.862  23.997  1.00  0.00    -0.278 N 
HETATM    5  C   LIG     1      16.442  35.645  23.110  1.00  0.00     0.248 C 
HETATM    6  C   LIG     1      16.570  37.168  23.061  1.00  0.00     0.145 C 
HETATM    7  C   LIG     1      17.062  37.696  24.413  1.00  0.00     0.248 C 
HETATM    8  O   LIG     1      16.880  38.907  24.718  1.00  0.00    -0.271 OA
HETATM    9  O   LIG     1      15.672  35.050  22.307  1.00  0.00    -0.271 OA
HETATM   10  H   LIG     1      18.252  37.294  26.155  1.00  0.00     0.173 HD
HETATM   11  H   LIG     1      17.266  33.822  23.891  1.00  0.00     0.173 HD
ENDROOT
BRANCH   6  12
HETATM   12  C   LIG     1      15.183  37.820  22.743  1.00  0.00     0.029 C 
HETATM   13  C   LIG     1      15.269  39.275  22.262  1.00  0.00     0.007 C 
ENDBRANCH   6  12
BRANCH   6  14
HETATM   14  C   LIG     1      17.580  37.526  21.944  1.00  0.00    -0.057 C 
HETATM   15  C   LIG     1      18.496  38.745  22.091  1.00  0.00     0.036 C 
HETATM   16  C   LIG     1      19.276  39.104  20.820  1.00  0.00     0.005 C 
HETATM   17  C   LIG     1      19.867  37.853  20.184  1.00  0.00     0.004 C 
HETATM   18  C   LIG     1      18.738  36.908  19.781  1.00  0.00     0.027 C 
HETATM   19  C   LIG     1      17.773  36.661  20.912  1.00  0.00    -0.022 C 
ENDBRANCH   6  14
TORSDOF 2
ENDMDL
