REMARK  2 active torsions:
REMARK  status: ('A' for Active; 'I' for Inactive)
REMARK    1  A    between atoms: C_6  and  C_13 
REMARK    2  A    between atoms: C_6  and  C_7 
ROOT
HETATM    1  O   LIG     1      -1.890   3.932  -0.116  1.00  0.00    -0.247 OA
HETATM    2  C   LIG     1      -1.731   2.683  -0.083  1.00  0.00     0.329 C 
HETATM    3  N   LIG     1      -1.698   1.935  -1.295  1.00  0.00    -0.278 N 
HETATM    4  N   LIG     1      -1.616   2.010   1.166  1.00  0.00    -0.278 N 
HETATM    5  C   LIG     1      -1.415   0.595   1.221  1.00  0.00     0.248 C 
HETATM    6  C   LIG     1      -0.979  -0.192  -0.015  1.00  0.00     0.145 C 
HETATM    7  C   LIG     1      -1.446   0.527  -1.285  1.00  0.00     0.248 C 
HETATM    8  O   LIG     1      -1.534  -0.110  -2.371  1.00  0.00    -0.271 OA
HETATM    9  O   LIG     1      -1.531   0.011   2.333  1.00  0.00    -0.271 OA
HETATM   10  H   LIG     1      -1.879   2.420  -2.203  1.00  0.00     0.173 HD
HETATM   11  H   LIG     1      -1.742   2.548   2.054  1.00  0.00     0.173 HD
ENDROOT
BRANCH   6  12
HETATM   12  C   LIG     1      -1.604  -1.627   0.007  1.00  0.00     0.029 C 
HETATM   13  C   LIG     1      -3.139  -1.643  -0.025  1.00  0.00     0.007 C 
ENDBRANCH   6  12
BRANCH   6  14
HETATM   14  C   LIG     1       0.565  -0.297   0.006  1.00  0.00    -0.057 C 
HETATM   15  C   LIG     1       1.405   0.437  -1.043  1.00  0.00     0.036 C 
HETATM   16  C   LIG     1       2.892   0.061  -1.036  1.00  0.00     0.005 C 
HETATM   17  C   LIG     1       3.426   0.020   0.390  1.00  0.00     0.004 C 
HETATM   18  C   LIG     1       2.676  -1.048   1.182  1.00  0.00     0.027 C 
HETATM   19  C   LIG     1       1.181  -0.901   1.058  1.00  0.00    -0.022 C 
ENDBRANCH   6  14
TORSDOF 2
