REMARK  4 active torsions:
REMARK  status: ('A' for Active; 'I' for Inactive)
REMARK    1  A    between atoms: C_12  and  C_13 
REMARK    2  A    between atoms: C_13  and  C_15 
REMARK    3  A    between atoms: C_15  and  O_16 
REMARK    4  A    between atoms: C_18  and  O_19 
ROOT
HETATM    1  C   LIG     1      -4.019  -0.792   2.150  1.00  0.00     0.084 C 
HETATM    2  C   LIG     1      -4.942  -0.900   0.969  1.00  0.00     0.149 C 
HETATM    3  O   LIG     1      -6.122  -1.303   1.144  1.00  0.00    -0.293 OA
HETATM    4  C   LIG     1      -4.496  -0.543  -0.387  1.00  0.00     0.053 C 
HETATM    5  C   LIG     1      -3.311   0.049  -0.604  1.00  0.00    -0.068 C 
HETATM    6  C   LIG     1      -2.828   0.273  -2.034  1.00  0.00     0.035 C 
HETATM    7  C   LIG     1      -1.395  -0.279  -2.287  1.00  0.00     0.010 C 
HETATM    8  C   LIG     1      -0.649  -0.566  -0.970  1.00  0.00    -0.002 C 
HETATM    9  C   LIG     1       0.853  -0.986  -1.085  1.00  0.00     0.004 C 
HETATM   10  C   LIG     1       1.617  -0.985  -2.404  1.00  0.00     0.007 C 
HETATM   11  C   LIG     1       3.096  -1.119  -1.967  1.00  0.00     0.013 C 
HETATM   12  C   LIG     1       3.109  -1.077  -0.414  1.00  0.00     0.071 C 
HETATM   13  C   LIG     1       1.807  -0.301  -0.087  1.00  0.00     0.026 C 
HETATM   14  C   LIG     1       1.865   1.256  -0.274  1.00  0.00     0.267 C 
HETATM   15  C   LIG     1       1.151  -0.411   1.269  1.00  0.00     0.048 C 
HETATM   16  C   LIG     1       0.195   0.777   1.141  1.00  0.00     0.131 C 
HETATM   17  O   LIG     1       1.006   1.832   0.689  1.00  0.00    -0.355 OA
HETATM   18  C   LIG     1      -0.937   0.573   0.060  1.00  0.00     0.032 C 
HETATM   19  C   LIG     1      -2.418   0.479   0.575  1.00  0.00    -0.014 C 
HETATM   20  C   LIG     1      -2.883   1.874   1.059  1.00  0.00     0.020 C 
HETATM   21  C   LIG     1      -2.557  -0.558   1.731  1.00  0.00     0.022 C 
ENDROOT
BRANCH  12  22
HETATM   22  C   LIG     1       4.406  -0.580   0.202  1.00  0.00     0.155 C 
HETATM   23  O   LIG     1       5.262  -0.056  -0.496  1.00  0.00    -0.295 OA
BRANCH  22  24
HETATM   24  C   LIG     1       4.679  -0.764   1.670  1.00  0.00     0.242 C 
BRANCH  24  25
HETATM   25  O   LIG     1       5.892  -1.441   1.856  1.00  0.00    -0.394 OA
HETATM   26  H   LIG     1       6.614  -0.765   1.769  1.00  0.00     0.209 HD
ENDBRANCH  24  25
ENDBRANCH  22  24
ENDBRANCH  12  22
BRANCH  14  27
HETATM   27  O   LIG     1       3.151   1.778  -0.084  1.00  0.00    -0.370 OA
HETATM   28  H   LIG     1       3.100   2.744  -0.308  1.00  0.00     0.212 HD
ENDBRANCH  14  27
TORSDOF 4
