REMARK  4 active torsions:
REMARK  status: ('A' for Active; 'I' for Inactive)
REMARK    1  A    between atoms: C_6  and  C_7 
REMARK    2  A    between atoms: C_6  and  C_10 
REMARK    3  A    between atoms: C_7  and  C_8 
REMARK    4  A    between atoms: C_10  and  C_11 
ROOT
HETATM    1  O   LIG     1      -0.332   4.380  -0.306  1.00  0.00    -0.247 OA
HETATM    2  C   LIG     1      -0.211   3.127  -0.264  1.00  0.00     0.329 C 
HETATM    3  N   LIG     1      -0.321   2.442   0.979  1.00  0.00    -0.278 N 
HETATM    4  N   LIG     1       0.059   2.397  -1.456  1.00  0.00    -0.278 N 
HETATM    5  C   LIG     1       0.171   0.971  -1.442  1.00  0.00     0.244 C 
HETATM    6  C   LIG     1      -0.184   0.148  -0.205  1.00  0.00     0.128 C 
HETATM    7  C   LIG     1      -0.220   1.018   1.052  1.00  0.00     0.244 C 
HETATM    8  O   LIG     1      -0.191   0.474   2.190  1.00  0.00    -0.272 OA
HETATM    9  O   LIG     1       0.503   0.381  -2.507  1.00  0.00    -0.272 OA
HETATM   10  H   LIG     1      -0.447   2.994   1.858  1.00  0.00     0.173 HD
HETATM   11  H   LIG     1       0.205   2.915  -2.352  1.00  0.00     0.173 HD
ENDROOT
BRANCH   6  12
HETATM   12  C   LIG     1      -1.593  -0.458  -0.458  1.00  0.00     0.056 C 
BRANCH  12  13
HETATM   13  C   LIG     1      -2.090  -1.344   0.661  1.00  0.00    -0.035 C 
HETATM   14  C   LIG     1      -2.260  -2.659   0.499  1.00  0.00     0.007 C 
ENDBRANCH  12  13
ENDBRANCH   6  12
BRANCH   6  15
HETATM   15  C   LIG     1       0.868  -0.991  -0.031  1.00  0.00     0.056 C 
BRANCH  15  16
HETATM   16  C   LIG     1       2.276  -0.477   0.152  1.00  0.00    -0.035 C 
HETATM   17  C   LIG     1       3.298  -1.322   0.305  1.00  0.00     0.007 C 
ENDBRANCH  15  16
ENDBRANCH   6  15
TORSDOF 4
