REMARK  5 active torsions:
REMARK  status: ('A' for Active; 'I' for Inactive)
REMARK    1  A    between atoms: N_1  and  CA_2 
REMARK    2  A    between atoms: CA_2  and  C_3 
REMARK    3  A    between atoms: CA_2  and  C_6 
REMARK    4  A    between atoms: C_3  and  O_4 
REMARK    5  A    between atoms: C_6  and  S_8 
ROOT
HETATM    1  CA  LIG     1       0.882  -0.056  -0.271  1.00  0.00     0.331 C 
ENDROOT
BRANCH   1   2
HETATM    2  N   LIG     1       1.556   1.228  -0.498  1.00  0.00     0.094 N 
HETATM    3  H1  LIG     1       1.388   1.877   0.304  1.00  0.00     0.314 HD
HETATM    4  H2  LIG     1       1.186   1.673  -1.368  1.00  0.00     0.314 HD
ENDBRANCH   1   2
BRANCH   1   5
HETATM    5  C   LIG     1       1.767  -0.899   0.623  1.00  0.00     0.175 C 
HETATM    6  OXT LIG     1       1.429  -1.194   1.800  1.00  0.00    -0.648 OA
BRANCH   5   7
HETATM    7  O   LIG     1       2.998  -1.343   0.150  1.00  0.00    -0.775 OA
HETATM    8  H   LIG     1       3.311  -1.120  -0.787  1.00  0.00     0.167 HD
ENDBRANCH   5   7
ENDBRANCH   1   5
BRANCH   1   9
HETATM    9  C   LIG     1      -0.608   0.113   0.210  1.00  0.00     0.039 C 
HETATM   10  C   LIG     1      -1.302  -1.265   0.285  1.00  0.00     0.029 C 
HETATM   11  C   LIG     1      -1.395   0.988  -0.788  1.00  0.00     0.029 C 
BRANCH   9  12
HETATM   12  S   LIG     1      -0.695   0.915   1.863  1.00  0.00    -0.170 SA
HETATM   13  H   LIG     1      -2.101   0.886   1.935  1.00  0.00     0.102 HD
ENDBRANCH   9  12
ENDBRANCH   1   9
TORSDOF 5
