REMARK  7 active torsions:
REMARK  status: ('A' for Active; 'I' for Inactive)
REMARK    1  A    between atoms: C_2  and  C_3 
REMARK    2  A    between atoms: C_2  and  C_20 
REMARK    3  A    between atoms: C_3  and  C_4 
REMARK    4  A    between atoms: C_4  and  C_5 
REMARK    5  A    between atoms: C_5  and  N_6 
REMARK    6  A    between atoms: C_9  and  C_10 
REMARK    7  A    between atoms: C_9  and  O_17 
ROOT
HETATM    1  N   LIG     1       0.113  -0.052   0.056  1.00  0.00     0.088 N 
HETATM    2  C   LIG     1      -0.627   1.127   0.575  1.00  0.00     0.276 C 
HETATM    3  C   LIG     1      -2.099   0.830   0.934  1.00  0.00     0.073 C 
HETATM    4  C   LIG     1      -2.726  -0.219  -0.019  1.00  0.00     0.088 C 
HETATM    5  C   LIG     1      -1.911  -1.540   0.085  1.00  0.00     0.073 C 
HETATM    6  C   LIG     1      -0.441  -1.339   0.517  1.00  0.00     0.276 C 
ENDROOT
BRANCH   1   7
HETATM    7  C   LIG     1       0.387  -0.019  -1.402  1.00  0.00     0.272 C 
BRANCH   7   8
HETATM    8  C   LIG     1       1.894   0.089  -1.645  1.00  0.00     0.038 C 
BRANCH   8   9
HETATM    9  C   LIG     1       2.451   1.444  -1.187  1.00  0.00     0.085 C 
BRANCH   9  10
HETATM   10  C   LIG     1       3.942   1.502  -1.391  1.00  0.00     0.159 C 
HETATM   11  O   LIG     1       4.372   2.009  -2.463  1.00  0.00    -0.292 OA
BRANCH  10  12
HETATM   12  C   LIG     1       4.911   0.959  -0.397  1.00  0.00     0.010 A 
HETATM   13  C   LIG     1       4.485   0.254   0.748  1.00  0.00     0.018 A 
HETATM   14  C   LIG     1       5.417  -0.246   1.663  1.00  0.00     0.043 A 
HETATM   15  C   LIG     1       6.783  -0.053   1.451  1.00  0.00     0.116 A 
HETATM   16  C   LIG     1       7.221   0.640   0.321  1.00  0.00     0.043 A 
HETATM   17  F   LIG     1       7.683  -0.539   2.340  1.00  0.00    -0.206 F 
HETATM   18  C   LIG     1       6.294   1.143  -0.597  1.00  0.00     0.018 A 
ENDBRANCH  10  12
ENDBRANCH   9  10
ENDBRANCH   8   9
ENDBRANCH   7   8
ENDBRANCH   1   7
BRANCH   4  19
HETATM   19  C   LIG     1      -4.203  -0.523   0.280  1.00  0.00    -0.024 A 
HETATM   20  C   LIG     1      -4.907  -1.374  -0.597  1.00  0.00     0.012 A 
HETATM   21  C   LIG     1      -6.250  -1.685  -0.372  1.00  0.00     0.024 A 
HETATM   22  C   LIG     1      -6.917  -1.152   0.733  1.00  0.00     0.034 A 
HETATM   23  C   LIG     1      -6.239  -0.307   1.613  1.00  0.00     0.024 A 
HETATM   24 CL   LIG     1      -8.604  -1.544   1.014  1.00  0.00    -0.084 Cl
HETATM   25  C   LIG     1      -4.895   0.008   1.393  1.00  0.00     0.012 A 
ENDBRANCH   4  19
BRANCH   4  26
HETATM   26  O   LIG     1      -2.633   0.259  -1.342  1.00  0.00    -0.385 OA
HETATM   27  H   LIG     1      -3.163   1.098  -1.400  1.00  0.00     0.211 HD
ENDBRANCH   4  26
TORSDOF 7
