MODEL 1
REMARK VINA RESULT:      -7.9      0.000      0.000
REMARK  7 active torsions:
REMARK  status: ('A' for Active; 'I' for Inactive)
REMARK    1  A    between atoms: C_2  and  C_3 
REMARK    2  A    between atoms: C_2  and  C_20 
REMARK    3  A    between atoms: C_3  and  C_4 
REMARK    4  A    between atoms: C_4  and  C_5 
REMARK    5  A    between atoms: C_5  and  N_6 
REMARK    6  A    between atoms: C_9  and  C_10 
REMARK    7  A    between atoms: C_9  and  O_17 
ROOT
HETATM    1  N   LIG     1      17.709  36.502  21.287  1.00  0.00     0.088 N 
HETATM    2  C   LIG     1      17.306  35.265  22.005  1.00  0.00     0.276 C 
HETATM    3  C   LIG     1      16.722  34.172  21.084  1.00  0.00     0.073 C 
HETATM    4  C   LIG     1      15.913  34.778  19.909  1.00  0.00     0.088 C 
HETATM    5  C   LIG     1      16.856  35.687  19.069  1.00  0.00     0.073 C 
HETATM    6  C   LIG     1      18.042  36.272  19.868  1.00  0.00     0.276 C 
ENDROOT
BRANCH   1   7
HETATM    7  C   LIG     1      16.808  37.662  21.498  1.00  0.00     0.272 C 
BRANCH   7   8
HETATM    8  C   LIG     1      17.614  38.859  22.008  1.00  0.00     0.038 C 
BRANCH   8   9
HETATM    9  C   LIG     1      17.277  39.196  23.467  1.00  0.00     0.085 C 
BRANCH   9  10
HETATM   10  C   LIG     1      16.561  38.046  24.126  1.00  0.00     0.159 C 
HETATM   11  O   LIG     1      15.313  37.957  23.965  1.00  0.00    -0.292 OA
BRANCH  10  12
HETATM   12  C   LIG     1      17.263  37.043  24.975  1.00  0.00     0.010 A 
HETATM   13  C   LIG     1      18.249  37.421  25.911  1.00  0.00     0.018 A 
HETATM   14  C   LIG     1      18.890  36.458  26.696  1.00  0.00     0.043 A 
HETATM   15  C   LIG     1      18.560  35.108  26.563  1.00  0.00     0.116 A 
HETATM   16  C   LIG     1      17.584  34.718  25.643  1.00  0.00     0.043 A 
HETATM   17  F   LIG     1      19.184  34.178  27.326  1.00  0.00    -0.206 F 
HETATM   18  C   LIG     1      16.940  35.676  24.855  1.00  0.00     0.018 A 
ENDBRANCH  10  12
ENDBRANCH   9  10
ENDBRANCH   8   9
ENDBRANCH   7   8
ENDBRANCH   1   7
BRANCH   4  19
HETATM   19  C   LIG     1      15.284  33.725  18.982  1.00  0.00    -0.024 A 
HETATM   20  C   LIG     1      15.024  34.077  17.641  1.00  0.00     0.012 A 
HETATM   21  C   LIG     1      14.455  33.159  16.756  1.00  0.00     0.024 A 
HETATM   22  C   LIG     1      14.134  31.872  17.191  1.00  0.00     0.034 A 
HETATM   23  C   LIG     1      14.382  31.503  18.515  1.00  0.00     0.024 A 
HETATM   24 CL   LIG     1      13.420  30.720  16.077  1.00  0.00    -0.084 Cl
HETATM   25  C   LIG     1      14.951  32.418  19.406  1.00  0.00     0.012 A 
ENDBRANCH   4  19
BRANCH   4  26
HETATM   26  O   LIG     1      14.878  35.577  20.437  1.00  0.00    -0.385 OA
HETATM   27  H   LIG     1      15.211  36.512  20.487  1.00  0.00     0.211 HD
ENDBRANCH   4  26
TORSDOF 7
ENDMDL
MODEL 2
REMARK VINA RESULT:      -7.8      2.552      4.090
REMARK  7 active torsions:
REMARK  status: ('A' for Active; 'I' for Inactive)
REMARK    1  A    between atoms: C_2  and  C_3 
REMARK    2  A    between atoms: C_2  and  C_20 
REMARK    3  A    between atoms: C_3  and  C_4 
REMARK    4  A    between atoms: C_4  and  C_5 
REMARK    5  A    between atoms: C_5  and  N_6 
REMARK    6  A    between atoms: C_9  and  C_10 
REMARK    7  A    between atoms: C_9  and  O_17 
ROOT
HETATM    1  N   LIG     1      15.336  34.653  17.521  1.00  0.00     0.088 N 
HETATM    2  C   LIG     1      16.366  34.193  16.554  1.00  0.00     0.276 C 
HETATM    3  C   LIG     1      15.899  33.027  15.655  1.00  0.00     0.073 C 
HETATM    4  C   LIG     1      14.944  32.065  16.406  1.00  0.00     0.088 C 
HETATM    5  C   LIG     1      13.694  32.865  16.874  1.00  0.00     0.073 C 
HETATM    6  C   LIG     1      13.956  34.374  17.083  1.00  0.00     0.276 C 
ENDROOT
BRANCH   1   7
HETATM    7  C   LIG     1      15.594  34.267  18.931  1.00  0.00     0.272 C 
BRANCH   7   8
HETATM    8  C   LIG     1      16.069  35.486  19.725  1.00  0.00     0.038 C 
BRANCH   8   9
HETATM    9  C   LIG     1      16.657  35.088  21.086  1.00  0.00     0.085 C 
BRANCH   9  10
HETATM   10  C   LIG     1      16.176  36.020  22.166  1.00  0.00     0.159 C 
HETATM   11  O   LIG     1      15.178  36.750  21.914  1.00  0.00    -0.292 OA
BRANCH  10  12
HETATM   12  C   LIG     1      16.849  36.131  23.491  1.00  0.00     0.010 A 
HETATM   13  C   LIG     1      17.226  37.379  24.031  1.00  0.00     0.018 A 
HETATM   14  C   LIG     1      17.855  37.453  25.278  1.00  0.00     0.043 A 
HETATM   15  C   LIG     1      18.116  36.289  26.003  1.00  0.00     0.116 A 
HETATM   16  C   LIG     1      17.746  35.047  25.484  1.00  0.00     0.043 A 
HETATM   17  F   LIG     1      18.726  36.365  27.211  1.00  0.00    -0.206 F 
HETATM   18  C   LIG     1      17.118  34.967  24.238  1.00  0.00     0.018 A 
ENDBRANCH  10  12
ENDBRANCH   9  10
ENDBRANCH   8   9
ENDBRANCH   7   8
ENDBRANCH   1   7
BRANCH   4  19
HETATM   19  C   LIG     1      14.478  30.869  15.560  1.00  0.00    -0.024 A 
HETATM   20  C   LIG     1      13.119  30.496  15.609  1.00  0.00     0.012 A 
HETATM   21  C   LIG     1      12.642  29.419  14.860  1.00  0.00     0.024 A 
HETATM   22  C   LIG     1      13.513  28.691  14.046  1.00  0.00     0.034 A 
HETATM   23  C   LIG     1      14.862  29.043  13.983  1.00  0.00     0.024 A 
HETATM   24 CL   LIG     1      12.912  27.338  13.105  1.00  0.00    -0.084 Cl
HETATM   25  C   LIG     1      15.346  30.120  14.731  1.00  0.00     0.012 A 
ENDBRANCH   4  19
BRANCH   4  26
HETATM   26  O   LIG     1      15.607  31.568  17.546  1.00  0.00    -0.385 OA
HETATM   27  H   LIG     1      16.548  31.374  17.290  1.00  0.00     0.211 HD
ENDBRANCH   4  26
TORSDOF 7
ENDMDL
MODEL 3
REMARK VINA RESULT:      -7.7      3.485      5.379
REMARK  7 active torsions:
REMARK  status: ('A' for Active; 'I' for Inactive)
REMARK    1  A    between atoms: C_2  and  C_3 
REMARK    2  A    between atoms: C_2  and  C_20 
REMARK    3  A    between atoms: C_3  and  C_4 
REMARK    4  A    between atoms: C_4  and  C_5 
REMARK    5  A    between atoms: C_5  and  N_6 
REMARK    6  A    between atoms: C_9  and  C_10 
REMARK    7  A    between atoms: C_9  and  O_17 
ROOT
HETATM    1  N   LIG     1      15.292  34.532  17.432  1.00  0.00     0.088 N 
HETATM    2  C   LIG     1      16.274  34.133  16.390  1.00  0.00     0.276 C 
HETATM    3  C   LIG     1      15.798  32.965  15.500  1.00  0.00     0.073 C 
HETATM    4  C   LIG     1      14.935  31.950  16.292  1.00  0.00     0.088 C 
HETATM    5  C   LIG     1      13.687  32.687  16.856  1.00  0.00     0.073 C 
HETATM    6  C   LIG     1      13.899  34.201  17.078  1.00  0.00     0.276 C 
ENDROOT
BRANCH   1   7
HETATM    7  C   LIG     1      15.658  34.132  18.813  1.00  0.00     0.272 C 
BRANCH   7   8
HETATM    8  C   LIG     1      15.341  35.271  19.784  1.00  0.00     0.038 C 
BRANCH   8   9
HETATM    9  C   LIG     1      16.126  35.139  21.097  1.00  0.00     0.085 C 
BRANCH   9  10
HETATM   10  C   LIG     1      16.556  36.492  21.598  1.00  0.00     0.159 C 
HETATM   11  O   LIG     1      15.911  37.000  22.556  1.00  0.00    -0.292 OA
BRANCH  10  12
HETATM   12  C   LIG     1      17.682  37.255  20.987  1.00  0.00     0.010 A 
HETATM   13  C   LIG     1      17.985  38.576  21.380  1.00  0.00     0.018 A 
HETATM   14  C   LIG     1      19.048  39.267  20.791  1.00  0.00     0.043 A 
HETATM   15  C   LIG     1      19.825  38.654  19.806  1.00  0.00     0.116 A 
HETATM   16  C   LIG     1      19.541  37.346  19.409  1.00  0.00     0.043 A 
HETATM   17  F   LIG     1      20.855  39.327  19.238  1.00  0.00    -0.206 F 
HETATM   18  C   LIG     1      18.478  36.650  19.993  1.00  0.00     0.018 A 
ENDBRANCH  10  12
ENDBRANCH   9  10
ENDBRANCH   8   9
ENDBRANCH   7   8
ENDBRANCH   1   7
BRANCH   4  19
HETATM   19  C   LIG     1      14.465  30.750  15.454  1.00  0.00    -0.024 A 
HETATM   20  C   LIG     1      13.097  30.408  15.473  1.00  0.00     0.012 A 
HETATM   21  C   LIG     1      12.616  29.328  14.729  1.00  0.00     0.024 A 
HETATM   22  C   LIG     1      13.491  28.568  13.951  1.00  0.00     0.034 A 
HETATM   23  C   LIG     1      14.849  28.889  13.918  1.00  0.00     0.024 A 
HETATM   24 CL   LIG     1      12.884  27.212  13.017  1.00  0.00    -0.084 Cl
HETATM   25  C   LIG     1      15.337  29.968  14.661  1.00  0.00     0.012 A 
ENDBRANCH   4  19
BRANCH   4  26
HETATM   26  O   LIG     1      15.692  31.461  17.376  1.00  0.00    -0.385 OA
HETATM   27  H   LIG     1      15.641  30.468  17.360  1.00  0.00     0.211 HD
ENDBRANCH   4  26
TORSDOF 7
ENDMDL
MODEL 4
REMARK VINA RESULT:      -7.6      5.229      7.241
REMARK  7 active torsions:
REMARK  status: ('A' for Active; 'I' for Inactive)
REMARK    1  A    between atoms: C_2  and  C_3 
REMARK    2  A    between atoms: C_2  and  C_20 
REMARK    3  A    between atoms: C_3  and  C_4 
REMARK    4  A    between atoms: C_4  and  C_5 
REMARK    5  A    between atoms: C_5  and  N_6 
REMARK    6  A    between atoms: C_9  and  C_10 
REMARK    7  A    between atoms: C_9  and  O_17 
ROOT
HETATM    1  N   LIG     1      15.909  31.888  15.406  1.00  0.00     0.088 N 
HETATM    2  C   LIG     1      15.596  31.698  13.967  1.00  0.00     0.276 C 
HETATM    3  C   LIG     1      16.715  32.177  13.017  1.00  0.00     0.073 C 
HETATM    4  C   LIG     1      17.450  33.423  13.572  1.00  0.00     0.088 C 
HETATM    5  C   LIG     1      18.083  33.059  14.946  1.00  0.00     0.073 C 
HETATM    6  C   LIG     1      17.356  31.917  15.691  1.00  0.00     0.276 C 
ENDROOT
BRANCH   1   7
HETATM    7  C   LIG     1      15.159  32.988  16.063  1.00  0.00     0.272 C 
BRANCH   7   8
HETATM    8  C   LIG     1      15.306  32.882  17.582  1.00  0.00     0.038 C 
BRANCH   8   9
HETATM    9  C   LIG     1      15.391  34.263  18.246  1.00  0.00     0.085 C 
BRANCH   9  10
HETATM   10  C   LIG     1      15.598  34.127  19.731  1.00  0.00     0.159 C 
HETATM   11  O   LIG     1      15.467  32.982  20.244  1.00  0.00    -0.292 OA
BRANCH  10  12
HETATM   12  C   LIG     1      15.918  35.290  20.608  1.00  0.00     0.010 A 
HETATM   13  C   LIG     1      17.208  35.858  20.649  1.00  0.00     0.018 A 
HETATM   14  C   LIG     1      17.479  36.950  21.480  1.00  0.00     0.043 A 
HETATM   15  C   LIG     1      16.470  37.491  22.279  1.00  0.00     0.116 A 
HETATM   16  C   LIG     1      15.187  36.943  22.247  1.00  0.00     0.043 A 
HETATM   17  F   LIG     1      16.736  38.549  23.083  1.00  0.00    -0.206 F 
HETATM   18  C   LIG     1      14.911  35.851  21.419  1.00  0.00     0.018 A 
ENDBRANCH  10  12
ENDBRANCH   9  10
ENDBRANCH   8   9
ENDBRANCH   7   8
ENDBRANCH   1   7
BRANCH   4  19
HETATM   19  C   LIG     1      18.553  33.956  12.644  1.00  0.00    -0.024 A 
HETATM   20  C   LIG     1      19.898  33.818  13.046  1.00  0.00     0.012 A 
HETATM   21  C   LIG     1      20.940  34.283  12.240  1.00  0.00     0.024 A 
HETATM   22  C   LIG     1      20.659  34.896  11.017  1.00  0.00     0.034 A 
HETATM   23  C   LIG     1      19.335  35.044  10.601  1.00  0.00     0.024 A 
HETATM   24 CL   LIG     1      21.970  35.480  10.006  1.00  0.00    -0.084 Cl
HETATM   25  C   LIG     1      18.289  34.580  11.403  1.00  0.00     0.012 A 
ENDBRANCH   4  19
BRANCH   4  26
HETATM   26  O   LIG     1      16.508  34.452  13.774  1.00  0.00    -0.385 OA
HETATM   27  H   LIG     1      16.281  34.835  12.885  1.00  0.00     0.211 HD
ENDBRANCH   4  26
TORSDOF 7
ENDMDL
MODEL 5
REMARK VINA RESULT:      -7.5      4.711      9.325
REMARK  7 active torsions:
REMARK  status: ('A' for Active; 'I' for Inactive)
REMARK    1  A    between atoms: C_2  and  C_3 
REMARK    2  A    between atoms: C_2  and  C_20 
REMARK    3  A    between atoms: C_3  and  C_4 
REMARK    4  A    between atoms: C_4  and  C_5 
REMARK    5  A    between atoms: C_5  and  N_6 
REMARK    6  A    between atoms: C_9  and  C_10 
REMARK    7  A    between atoms: C_9  and  O_17 
ROOT
HETATM    1  N   LIG     1      15.518  35.194  19.474  1.00  0.00     0.088 N 
HETATM    2  C   LIG     1      14.518  35.703  20.448  1.00  0.00     0.276 C 
HETATM    3  C   LIG     1      15.135  36.195  21.775  1.00  0.00     0.073 C 
HETATM    4  C   LIG     1      16.373  35.357  22.183  1.00  0.00     0.088 C 
HETATM    5  C   LIG     1      17.446  35.470  21.061  1.00  0.00     0.073 C 
HETATM    6  C   LIG     1      16.863  35.771  19.662  1.00  0.00     0.276 C 
ENDROOT
BRANCH   1   7
HETATM    7  C   LIG     1      15.529  33.719  19.311  1.00  0.00     0.272 C 
BRANCH   7   8
HETATM    8  C   LIG     1      14.668  33.324  18.109  1.00  0.00     0.038 C 
BRANCH   8   9
HETATM    9  C   LIG     1      15.244  33.861  16.792  1.00  0.00     0.085 C 
BRANCH   9  10
HETATM   10  C   LIG     1      15.873  32.749  15.994  1.00  0.00     0.159 C 
HETATM   11  O   LIG     1      17.112  32.812  15.766  1.00  0.00    -0.292 OA
BRANCH  10  12
HETATM   12  C   LIG     1      15.085  31.609  15.445  1.00  0.00     0.010 A 
HETATM   13  C   LIG     1      15.573  30.805  14.393  1.00  0.00     0.018 A 
HETATM   14  C   LIG     1      14.812  29.741  13.900  1.00  0.00     0.043 A 
HETATM   15  C   LIG     1      13.558  29.461  14.445  1.00  0.00     0.116 A 
HETATM   16  C   LIG     1      13.062  30.244  15.488  1.00  0.00     0.043 A 
HETATM   17  F   LIG     1      12.824  28.428  13.963  1.00  0.00    -0.206 F 
HETATM   18  C   LIG     1      13.818  31.311  15.986  1.00  0.00     0.018 A 
ENDBRANCH  10  12
ENDBRANCH   9  10
ENDBRANCH   8   9
ENDBRANCH   7   8
ENDBRANCH   1   7
BRANCH   4  19
HETATM   19  C   LIG     1      17.003  35.790  23.516  1.00  0.00    -0.024 A 
HETATM   20  C   LIG     1      17.236  34.809  24.502  1.00  0.00     0.012 A 
HETATM   21  C   LIG     1      17.807  35.147  25.731  1.00  0.00     0.024 A 
HETATM   22  C   LIG     1      18.157  36.472  26.000  1.00  0.00     0.034 A 
HETATM   23  C   LIG     1      17.934  37.459  25.039  1.00  0.00     0.024 A 
HETATM   24 CL   LIG     1      18.874  36.895  27.545  1.00  0.00    -0.084 Cl
HETATM   25  C   LIG     1      17.362  37.127  23.807  1.00  0.00     0.012 A 
ENDBRANCH   4  19
BRANCH   4  26
HETATM   26  O   LIG     1      15.988  34.006  22.295  1.00  0.00    -0.385 OA
HETATM   27  H   LIG     1      15.829  33.814  23.258  1.00  0.00     0.211 HD
ENDBRANCH   4  26
TORSDOF 7
ENDMDL
MODEL 6
REMARK VINA RESULT:      -7.1      3.142      4.485
REMARK  7 active torsions:
REMARK  status: ('A' for Active; 'I' for Inactive)
REMARK    1  A    between atoms: C_2  and  C_3 
REMARK    2  A    between atoms: C_2  and  C_20 
REMARK    3  A    between atoms: C_3  and  C_4 
REMARK    4  A    between atoms: C_4  and  C_5 
REMARK    5  A    between atoms: C_5  and  N_6 
REMARK    6  A    between atoms: C_9  and  C_10 
REMARK    7  A    between atoms: C_9  and  O_17 
ROOT
HETATM    1  N   LIG     1      15.782  34.276  20.206  1.00  0.00     0.088 N 
HETATM    2  C   LIG     1      16.215  32.864  20.366  1.00  0.00     0.276 C 
HETATM    3  C   LIG     1      16.058  32.015  19.087  1.00  0.00     0.073 C 
HETATM    4  C   LIG     1      14.816  32.437  18.262  1.00  0.00     0.088 C 
HETATM    5  C   LIG     1      14.971  33.930  17.854  1.00  0.00     0.073 C 
HETATM    6  C   LIG     1      15.857  34.755  18.813  1.00  0.00     0.276 C 
ENDROOT
BRANCH   1   7
HETATM    7  C   LIG     1      14.500  34.610  20.874  1.00  0.00     0.272 C 
BRANCH   7   8
HETATM    8  C   LIG     1      14.673  35.863  21.735  1.00  0.00     0.038 C 
BRANCH   8   9
HETATM    9  C   LIG     1      16.090  35.964  22.317  1.00  0.00     0.085 C 
BRANCH   9  10
HETATM   10  C   LIG     1      16.598  37.380  22.236  1.00  0.00     0.159 C 
HETATM   11  O   LIG     1      16.018  38.256  22.934  1.00  0.00    -0.292 OA
BRANCH  10  12
HETATM   12  C   LIG     1      17.726  37.780  21.347  1.00  0.00     0.010 A 
HETATM   13  C   LIG     1      18.301  36.880  20.425  1.00  0.00     0.018 A 
HETATM   14  C   LIG     1      19.357  37.283  19.602  1.00  0.00     0.043 A 
HETATM   15  C   LIG     1      19.853  38.585  19.683  1.00  0.00     0.116 A 
HETATM   16  C   LIG     1      19.293  39.489  20.588  1.00  0.00     0.043 A 
HETATM   17  F   LIG     1      20.877  38.972  18.884  1.00  0.00    -0.206 F 
HETATM   18  C   LIG     1      18.237  39.091  21.414  1.00  0.00     0.018 A 
ENDBRANCH  10  12
ENDBRANCH   9  10
ENDBRANCH   8   9
ENDBRANCH   7   8
ENDBRANCH   1   7
BRANCH   4  19
HETATM   19  C   LIG     1      14.600  31.596  16.993  1.00  0.00    -0.024 A 
HETATM   20  C   LIG     1      15.607  31.595  16.005  1.00  0.00     0.012 A 
HETATM   21  C   LIG     1      15.463  30.848  14.834  1.00  0.00     0.024 A 
HETATM   22  C   LIG     1      14.310  30.087  14.625  1.00  0.00     0.034 A 
HETATM   23  C   LIG     1      13.301  30.076  15.590  1.00  0.00     0.024 A 
HETATM   24 CL   LIG     1      14.131  29.149  13.153  1.00  0.00    -0.084 Cl
HETATM   25  C   LIG     1      13.439  30.822  16.764  1.00  0.00     0.012 A 
ENDBRANCH   4  19
BRANCH   4  26
HETATM   26  O   LIG     1      13.670  32.314  19.074  1.00  0.00    -0.385 OA
HETATM   27  H   LIG     1      13.683  31.407  19.481  1.00  0.00     0.211 HD
ENDBRANCH   4  26
TORSDOF 7
ENDMDL
MODEL 7
REMARK VINA RESULT:      -7.0      1.744      2.784
REMARK  7 active torsions:
REMARK  status: ('A' for Active; 'I' for Inactive)
REMARK    1  A    between atoms: C_2  and  C_3 
REMARK    2  A    between atoms: C_2  and  C_20 
REMARK    3  A    between atoms: C_3  and  C_4 
REMARK    4  A    between atoms: C_4  and  C_5 
REMARK    5  A    between atoms: C_5  and  N_6 
REMARK    6  A    between atoms: C_9  and  C_10 
REMARK    7  A    between atoms: C_9  and  O_17 
ROOT
HETATM    1  N   LIG     1      15.829  34.451  20.405  1.00  0.00     0.088 N 
HETATM    2  C   LIG     1      16.213  33.026  20.575  1.00  0.00     0.276 C 
HETATM    3  C   LIG     1      16.084  32.188  19.284  1.00  0.00     0.073 C 
HETATM    4  C   LIG     1      14.891  32.653  18.410  1.00  0.00     0.088 C 
HETATM    5  C   LIG     1      15.108  34.142  18.018  1.00  0.00     0.073 C 
HETATM    6  C   LIG     1      15.978  34.935  19.020  1.00  0.00     0.276 C 
ENDROOT
BRANCH   1   7
HETATM    7  C   LIG     1      14.531  34.821  21.020  1.00  0.00     0.272 C 
BRANCH   7   8
HETATM    8  C   LIG     1      14.659  36.168  21.735  1.00  0.00     0.038 C 
BRANCH   8   9
HETATM    9  C   LIG     1      16.117  36.645  21.797  1.00  0.00     0.085 C 
BRANCH   9  10
HETATM   10  C   LIG     1      16.372  37.410  23.069  1.00  0.00     0.159 C 
HETATM   11  O   LIG     1      15.992  38.611  23.122  1.00  0.00    -0.292 OA
BRANCH  10  12
HETATM   12  C   LIG     1      17.078  36.812  24.238  1.00  0.00     0.010 A 
HETATM   13  C   LIG     1      17.047  35.426  24.496  1.00  0.00     0.018 A 
HETATM   14  C   LIG     1      17.720  34.893  25.600  1.00  0.00     0.043 A 
HETATM   15  C   LIG     1      18.433  35.730  26.460  1.00  0.00     0.116 A 
HETATM   16  C   LIG     1      18.475  37.104  26.217  1.00  0.00     0.043 A 
HETATM   17  F   LIG     1      19.083  35.209  27.529  1.00  0.00    -0.206 F 
HETATM   18  C   LIG     1      17.804  37.643  25.115  1.00  0.00     0.018 A 
ENDBRANCH  10  12
ENDBRANCH   9  10
ENDBRANCH   8   9
ENDBRANCH   7   8
ENDBRANCH   1   7
BRANCH   4  19
HETATM   19  C   LIG     1      14.703  31.825  17.128  1.00  0.00    -0.024 A 
HETATM   20  C   LIG     1      13.601  30.949  17.047  1.00  0.00     0.012 A 
HETATM   21  C   LIG     1      13.381  30.175  15.905  1.00  0.00     0.024 A 
HETATM   22  C   LIG     1      14.258  30.260  14.822  1.00  0.00     0.034 A 
HETATM   23  C   LIG     1      15.356  31.120  14.882  1.00  0.00     0.024 A 
HETATM   24 CL   LIG     1      13.981  29.287  13.389  1.00  0.00    -0.084 Cl
HETATM   25  C   LIG     1      15.581  31.897  16.022  1.00  0.00     0.012 A 
ENDBRANCH   4  19
BRANCH   4  26
HETATM   26  O   LIG     1      13.709  32.560  19.173  1.00  0.00    -0.385 OA
HETATM   27  H   LIG     1      13.962  32.608  20.133  1.00  0.00     0.211 HD
ENDBRANCH   4  26
TORSDOF 7
ENDMDL
MODEL 8
REMARK VINA RESULT:      -6.8     15.190     16.924
REMARK  7 active torsions:
REMARK  status: ('A' for Active; 'I' for Inactive)
REMARK    1  A    between atoms: C_2  and  C_3 
REMARK    2  A    between atoms: C_2  and  C_20 
REMARK    3  A    between atoms: C_3  and  C_4 
REMARK    4  A    between atoms: C_4  and  C_5 
REMARK    5  A    between atoms: C_5  and  N_6 
REMARK    6  A    between atoms: C_9  and  C_10 
REMARK    7  A    between atoms: C_9  and  O_17 
ROOT
HETATM    1  N   LIG     1      22.804  20.824  21.364  1.00  0.00     0.088 N 
HETATM    2  C   LIG     1      22.812  19.970  22.580  1.00  0.00     0.276 C 
HETATM    3  C   LIG     1      23.323  20.692  23.845  1.00  0.00     0.073 C 
HETATM    4  C   LIG     1      24.438  21.716  23.515  1.00  0.00     0.088 C 
HETATM    5  C   LIG     1      23.868  22.778  22.532  1.00  0.00     0.073 C 
HETATM    6  C   LIG     1      22.697  22.265  21.663  1.00  0.00     0.276 C 
ENDROOT
BRANCH   1   7
HETATM    7  C   LIG     1      23.865  20.506  20.377  1.00  0.00     0.272 C 
BRANCH   7   8
HETATM    8  C   LIG     1      23.294  20.580  18.959  1.00  0.00     0.038 C 
BRANCH   8   9
HETATM    9  C   LIG     1      23.673  21.892  18.258  1.00  0.00     0.085 C 
BRANCH   9  10
HETATM   10  C   LIG     1      25.169  22.067  18.232  1.00  0.00     0.159 C 
HETATM   11  O   LIG     1      25.856  21.195  17.633  1.00  0.00    -0.292 OA
BRANCH  10  12
HETATM   12  C   LIG     1      25.857  23.204  18.909  1.00  0.00     0.010 A 
HETATM   13  C   LIG     1      25.869  24.501  18.355  1.00  0.00     0.018 A 
HETATM   14  C   LIG     1      26.521  25.549  19.013  1.00  0.00     0.043 A 
HETATM   15  C   LIG     1      27.167  25.321  20.229  1.00  0.00     0.116 A 
HETATM   16  C   LIG     1      27.160  24.044  20.792  1.00  0.00     0.043 A 
HETATM   17  F   LIG     1      27.797  26.339  20.864  1.00  0.00    -0.206 F 
HETATM   18  C   LIG     1      26.511  22.992  20.139  1.00  0.00     0.018 A 
ENDBRANCH  10  12
ENDBRANCH   9  10
ENDBRANCH   8   9
ENDBRANCH   7   8
ENDBRANCH   1   7
BRANCH   4  19
HETATM   19  C   LIG     1      25.003  22.437  24.750  1.00  0.00    -0.024 A 
HETATM   20  C   LIG     1      24.536  22.056  26.025  1.00  0.00     0.012 A 
HETATM   21  C   LIG     1      25.015  22.676  27.181  1.00  0.00     0.024 A 
HETATM   22  C   LIG     1      25.970  23.690  27.087  1.00  0.00     0.034 A 
HETATM   23  C   LIG     1      26.445  24.084  25.834  1.00  0.00     0.024 A 
HETATM   24 CL   LIG     1      26.572  24.469  28.540  1.00  0.00    -0.084 Cl
HETATM   25  C   LIG     1      25.969  23.466  24.674  1.00  0.00     0.012 A 
ENDBRANCH   4  19
BRANCH   4  26
HETATM   26  O   LIG     1      25.498  21.041  22.876  1.00  0.00    -0.385 OA
HETATM   27  H   LIG     1      25.429  20.077  23.108  1.00  0.00     0.211 HD
ENDBRANCH   4  26
TORSDOF 7
ENDMDL
MODEL 9
REMARK VINA RESULT:      -6.7      2.024      3.240
REMARK  7 active torsions:
REMARK  status: ('A' for Active; 'I' for Inactive)
REMARK    1  A    between atoms: C_2  and  C_3 
REMARK    2  A    between atoms: C_2  and  C_20 
REMARK    3  A    between atoms: C_3  and  C_4 
REMARK    4  A    between atoms: C_4  and  C_5 
REMARK    5  A    between atoms: C_5  and  N_6 
REMARK    6  A    between atoms: C_9  and  C_10 
REMARK    7  A    between atoms: C_9  and  O_17 
ROOT
HETATM    1  N   LIG     1      15.316  34.738  19.382  1.00  0.00     0.088 N 
HETATM    2  C   LIG     1      14.443  35.164  18.258  1.00  0.00     0.276 C 
HETATM    3  C   LIG     1      14.048  34.015  17.305  1.00  0.00     0.073 C 
HETATM    4  C   LIG     1      15.185  32.972  17.155  1.00  0.00     0.088 C 
HETATM    5  C   LIG     1      15.502  32.373  18.555  1.00  0.00     0.073 C 
HETATM    6  C   LIG     1      15.163  33.314  19.733  1.00  0.00     0.276 C 
ENDROOT
BRANCH   1   7
HETATM    7  C   LIG     1      16.732  35.164  19.263  1.00  0.00     0.272 C 
BRANCH   7   8
HETATM    8  C   LIG     1      17.142  35.957  20.506  1.00  0.00     0.038 C 
BRANCH   8   9
HETATM    9  C   LIG     1      16.001  36.048  21.528  1.00  0.00     0.085 C 
BRANCH   9  10
HETATM   10  C   LIG     1      16.311  37.079  22.581  1.00  0.00     0.159 C 
HETATM   11  O   LIG     1      16.010  38.280  22.339  1.00  0.00    -0.292 OA
BRANCH  10  12
HETATM   12  C   LIG     1      16.982  36.736  23.868  1.00  0.00     0.010 A 
HETATM   13  C   LIG     1      17.506  37.730  24.720  1.00  0.00     0.018 A 
HETATM   14  C   LIG     1      18.128  37.380  25.923  1.00  0.00     0.043 A 
HETATM   15  C   LIG     1      18.236  36.038  26.293  1.00  0.00     0.116 A 
HETATM   16  C   LIG     1      17.719  35.043  25.462  1.00  0.00     0.043 A 
HETATM   17  F   LIG     1      18.840  35.703  27.459  1.00  0.00    -0.206 F 
HETATM   18  C   LIG     1      17.097  35.387  24.258  1.00  0.00     0.018 A 
ENDBRANCH  10  12
ENDBRANCH   9  10
ENDBRANCH   8   9
ENDBRANCH   7   8
ENDBRANCH   1   7
BRANCH   4  19
HETATM   19  C   LIG     1      14.849  31.825  16.189  1.00  0.00    -0.024 A 
HETATM   20  C   LIG     1      13.675  31.076  16.415  1.00  0.00     0.012 A 
HETATM   21  C   LIG     1      13.321  30.023  15.567  1.00  0.00     0.024 A 
HETATM   22  C   LIG     1      14.132  29.697  14.478  1.00  0.00     0.034 A 
HETATM   23  C   LIG     1      15.298  30.425  14.238  1.00  0.00     0.024 A 
HETATM   24 CL   LIG     1      13.685  28.375  13.415  1.00  0.00    -0.084 Cl
HETATM   25  C   LIG     1      15.658  31.479  15.082  1.00  0.00     0.012 A 
ENDBRANCH   4  19
BRANCH   4  26
HETATM   26  O   LIG     1      16.339  33.627  16.678  1.00  0.00    -0.385 OA
HETATM   27  H   LIG     1      17.116  33.029  16.842  1.00  0.00     0.211 HD
ENDBRANCH   4  26
TORSDOF 7
ENDMDL
MODEL 10
REMARK VINA RESULT:      -6.6      2.943      4.486
REMARK  7 active torsions:
REMARK  status: ('A' for Active; 'I' for Inactive)
REMARK    1  A    between atoms: C_2  and  C_3 
REMARK    2  A    between atoms: C_2  and  C_20 
REMARK    3  A    between atoms: C_3  and  C_4 
REMARK    4  A    between atoms: C_4  and  C_5 
REMARK    5  A    between atoms: C_5  and  N_6 
REMARK    6  A    between atoms: C_9  and  C_10 
REMARK    7  A    between atoms: C_9  and  O_17 
ROOT
HETATM    1  N   LIG     1      15.319  34.762  21.425  1.00  0.00     0.088 N 
HETATM    2  C   LIG     1      15.405  35.487  20.132  1.00  0.00     0.276 C 
HETATM    3  C   LIG     1      14.937  34.655  18.918  1.00  0.00     0.073 C 
HETATM    4  C   LIG     1      15.284  33.154  19.079  1.00  0.00     0.088 C 
HETATM    5  C   LIG     1      14.582  32.611  20.356  1.00  0.00     0.073 C 
HETATM    6  C   LIG     1      14.306  33.690  21.428  1.00  0.00     0.276 C 
ENDROOT
BRANCH   1   7
HETATM    7  C   LIG     1      16.626  34.336  21.985  1.00  0.00     0.272 C 
BRANCH   7   8
HETATM    8  C   LIG     1      16.997  35.225  23.174  1.00  0.00     0.038 C 
BRANCH   8   9
HETATM    9  C   LIG     1      16.456  36.652  23.011  1.00  0.00     0.085 C 
BRANCH   9  10
HETATM   10  C   LIG     1      17.587  37.634  22.853  1.00  0.00     0.159 C 
HETATM   11  O   LIG     1      18.046  38.178  23.895  1.00  0.00    -0.292 OA
BRANCH  10  12
HETATM   12  C   LIG     1      18.152  38.003  21.524  1.00  0.00     0.010 A 
HETATM   13  C   LIG     1      18.334  37.047  20.503  1.00  0.00     0.018 A 
HETATM   14  C   LIG     1      18.865  37.423  19.264  1.00  0.00     0.043 A 
HETATM   15  C   LIG     1      19.219  38.751  19.025  1.00  0.00     0.116 A 
HETATM   16  C   LIG     1      19.042  39.710  20.025  1.00  0.00     0.043 A 
HETATM   17  F   LIG     1      19.733  39.111  17.824  1.00  0.00    -0.206 F 
HETATM   18  C   LIG     1      18.513  39.340  21.265  1.00  0.00     0.018 A 
ENDBRANCH  10  12
ENDBRANCH   9  10
ENDBRANCH   8   9
ENDBRANCH   7   8
ENDBRANCH   1   7
BRANCH   4  19
HETATM   19  C   LIG     1      14.865  32.290  17.878  1.00  0.00    -0.024 A 
HETATM   20  C   LIG     1      15.546  32.460  16.655  1.00  0.00     0.012 A 
HETATM   21  C   LIG     1      15.208  31.700  15.533  1.00  0.00     0.024 A 
HETATM   22  C   LIG     1      14.182  30.755  15.610  1.00  0.00     0.034 A 
HETATM   23  C   LIG     1      13.495  30.571  16.811  1.00  0.00     0.024 A 
HETATM   24 CL   LIG     1      13.759  29.802  14.199  1.00  0.00    -0.084 Cl
HETATM   25  C   LIG     1      13.829  31.329  17.937  1.00  0.00     0.012 A 
ENDBRANCH   4  19
BRANCH   4  26
HETATM   26  O   LIG     1      16.678  33.027  19.248  1.00  0.00    -0.385 OA
HETATM   27  H   LIG     1      17.005  32.362  18.587  1.00  0.00     0.211 HD
ENDBRANCH   4  26
TORSDOF 7
ENDMDL
MODEL 11
REMARK VINA RESULT:      -6.6     14.896     16.394
REMARK  7 active torsions:
REMARK  status: ('A' for Active; 'I' for Inactive)
REMARK    1  A    between atoms: C_2  and  C_3 
REMARK    2  A    between atoms: C_2  and  C_20 
REMARK    3  A    between atoms: C_3  and  C_4 
REMARK    4  A    between atoms: C_4  and  C_5 
REMARK    5  A    between atoms: C_5  and  N_6 
REMARK    6  A    between atoms: C_9  and  C_10 
REMARK    7  A    between atoms: C_9  and  O_17 
ROOT
HETATM    1  N   LIG     1      24.164  20.211  18.228  1.00  0.00     0.088 N 
HETATM    2  C   LIG     1      23.384  21.471  18.325  1.00  0.00     0.276 C 
HETATM    3  C   LIG     1      24.230  22.745  18.114  1.00  0.00     0.073 C 
HETATM    4  C   LIG     1      25.666  22.585  18.675  1.00  0.00     0.088 C 
HETATM    5  C   LIG     1      26.359  21.399  17.945  1.00  0.00     0.073 C 
HETATM    6  C   LIG     1      25.378  20.337  17.400  1.00  0.00     0.276 C 
ENDROOT
BRANCH   1   7
HETATM    7  C   LIG     1      24.406  19.530  19.524  1.00  0.00     0.272 C 
BRANCH   7   8
HETATM    8  C   LIG     1      23.191  19.706  20.437  1.00  0.00     0.038 C 
BRANCH   8   9
HETATM    9  C   LIG     1      23.594  19.774  21.917  1.00  0.00     0.085 C 
BRANCH   9  10
HETATM   10  C   LIG     1      23.431  21.174  22.448  1.00  0.00     0.159 C 
HETATM   11  O   LIG     1      22.955  22.048  21.672  1.00  0.00    -0.292 OA
BRANCH  10  12
HETATM   12  C   LIG     1      23.838  21.563  23.828  1.00  0.00     0.010 A 
HETATM   13  C   LIG     1      24.672  22.674  24.072  1.00  0.00     0.018 A 
HETATM   14  C   LIG     1      25.036  23.017  25.378  1.00  0.00     0.043 A 
HETATM   15  C   LIG     1      24.576  22.261  26.457  1.00  0.00     0.116 A 
HETATM   16  C   LIG     1      23.747  21.160  26.233  1.00  0.00     0.043 A 
HETATM   17  F   LIG     1      24.931  22.596  27.721  1.00  0.00    -0.206 F 
HETATM   18  C   LIG     1      23.380  20.812  24.929  1.00  0.00     0.018 A 
ENDBRANCH  10  12
ENDBRANCH   9  10
ENDBRANCH   8   9
ENDBRANCH   7   8
ENDBRANCH   1   7
BRANCH   4  19
HETATM   19  C   LIG     1      26.537  23.842  18.517  1.00  0.00    -0.024 A 
HETATM   20  C   LIG     1      26.231  24.976  19.297  1.00  0.00     0.012 A 
HETATM   21  C   LIG     1      26.991  26.144  19.195  1.00  0.00     0.024 A 
HETATM   22  C   LIG     1      28.070  26.203  18.311  1.00  0.00     0.034 A 
HETATM   23  C   LIG     1      28.389  25.092  17.529  1.00  0.00     0.024 A 
HETATM   24 CL   LIG     1      29.023  27.671  18.183  1.00  0.00    -0.084 Cl
HETATM   25  C   LIG     1      27.633  23.920  17.627  1.00  0.00     0.012 A 
ENDBRANCH   4  19
BRANCH   4  26
HETATM   26  O   LIG     1      25.583  22.276  20.048  1.00  0.00    -0.385 OA
HETATM   27  H   LIG     1      24.628  22.331  20.315  1.00  0.00     0.211 HD
ENDBRANCH   4  26
TORSDOF 7
ENDMDL
MODEL 12
REMARK VINA RESULT:      -6.5     15.209     16.590
REMARK  7 active torsions:
REMARK  status: ('A' for Active; 'I' for Inactive)
REMARK    1  A    between atoms: C_2  and  C_3 
REMARK    2  A    between atoms: C_2  and  C_20 
REMARK    3  A    between atoms: C_3  and  C_4 
REMARK    4  A    between atoms: C_4  and  C_5 
REMARK    5  A    between atoms: C_5  and  N_6 
REMARK    6  A    between atoms: C_9  and  C_10 
REMARK    7  A    between atoms: C_9  and  O_17 
ROOT
HETATM    1  N   LIG     1      27.097  25.016  20.498  1.00  0.00     0.088 N 
HETATM    2  C   LIG     1      27.980  26.196  20.310  1.00  0.00     0.276 C 
HETATM    3  C   LIG     1      28.354  26.466  18.837  1.00  0.00     0.073 C 
HETATM    4  C   LIG     1      28.503  25.153  18.028  1.00  0.00     0.088 C 
HETATM    5  C   LIG     1      27.150  24.385  18.066  1.00  0.00     0.073 C 
HETATM    6  C   LIG     1      26.285  24.698  19.308  1.00  0.00     0.276 C 
ENDROOT
BRANCH   1   7
HETATM    7  C   LIG     1      27.766  23.829  21.086  1.00  0.00     0.272 C 
BRANCH   7   8
HETATM    8  C   LIG     1      27.379  23.691  22.560  1.00  0.00     0.038 C 
BRANCH   8   9
HETATM    9  C   LIG     1      26.681  22.354  22.845  1.00  0.00     0.085 C 
BRANCH   9  10
HETATM   10  C   LIG     1      25.189  22.488  22.684  1.00  0.00     0.159 C 
HETATM   11  O   LIG     1      24.518  22.855  23.687  1.00  0.00    -0.292 OA
BRANCH  10  12
HETATM   12  C   LIG     1      24.487  22.176  21.407  1.00  0.00     0.010 A 
HETATM   13  C   LIG     1      25.103  21.423  20.385  1.00  0.00     0.018 A 
HETATM   14  C   LIG     1      24.419  21.143  19.198  1.00  0.00     0.043 A 
HETATM   15  C   LIG     1      23.116  21.606  19.011  1.00  0.00     0.116 A 
HETATM   16  C   LIG     1      22.492  22.350  20.014  1.00  0.00     0.043 A 
HETATM   17  F   LIG     1      22.457  21.333  17.859  1.00  0.00    -0.206 F 
HETATM   18  C   LIG     1      23.170  22.634  21.203  1.00  0.00     0.018 A 
ENDBRANCH  10  12
ENDBRANCH   9  10
ENDBRANCH   8   9
ENDBRANCH   7   8
ENDBRANCH   1   7
BRANCH   4  19
HETATM   19  C   LIG     1      28.908  25.371  16.561  1.00  0.00    -0.024 A 
HETATM   20  C   LIG     1      29.409  26.633  16.181  1.00  0.00     0.012 A 
HETATM   21  C   LIG     1      29.794  26.886  14.862  1.00  0.00     0.024 A 
HETATM   22  C   LIG     1      29.685  25.883  13.897  1.00  0.00     0.034 A 
HETATM   23  C   LIG     1      29.191  24.627  14.252  1.00  0.00     0.024 A 
HETATM   24 CL   LIG     1      30.168  26.202  12.240  1.00  0.00    -0.084 Cl
HETATM   25  C   LIG     1      28.804  24.368  15.570  1.00  0.00     0.012 A 
ENDBRANCH   4  19
BRANCH   4  26
HETATM   26  O   LIG     1      29.487  24.352  18.643  1.00  0.00    -0.385 OA
HETATM   27  H   LIG     1      29.510  23.480  18.167  1.00  0.00     0.211 HD
ENDBRANCH   4  26
TORSDOF 7
ENDMDL
MODEL 13
REMARK VINA RESULT:      -6.4     15.809     16.943
REMARK  7 active torsions:
REMARK  status: ('A' for Active; 'I' for Inactive)
REMARK    1  A    between atoms: C_2  and  C_3 
REMARK    2  A    between atoms: C_2  and  C_20 
REMARK    3  A    between atoms: C_3  and  C_4 
REMARK    4  A    between atoms: C_4  and  C_5 
REMARK    5  A    between atoms: C_5  and  N_6 
REMARK    6  A    between atoms: C_9  and  C_10 
REMARK    7  A    between atoms: C_9  and  O_17 
ROOT
HETATM    1  N   LIG     1      29.130  27.410  30.657  1.00  0.00     0.088 N 
HETATM    2  C   LIG     1      29.971  26.363  30.022  1.00  0.00     0.276 C 
HETATM    3  C   LIG     1      29.272  25.624  28.859  1.00  0.00     0.073 C 
HETATM    4  C   LIG     1      27.751  25.463  29.108  1.00  0.00     0.088 C 
HETATM    5  C   LIG     1      27.116  26.875  29.255  1.00  0.00     0.073 C 
HETATM    6  C   LIG     1      28.098  27.957  29.757  1.00  0.00     0.276 C 
ENDROOT
BRANCH   1   7
HETATM    7  C   LIG     1      28.610  27.056  32.001  1.00  0.00     0.272 C 
BRANCH   7   8
HETATM    8  C   LIG     1      27.968  28.284  32.650  1.00  0.00     0.038 C 
BRANCH   8   9
HETATM    9  C   LIG     1      26.668  27.929  33.385  1.00  0.00     0.085 C 
BRANCH   9  10
HETATM   10  C   LIG     1      26.894  27.886  34.873  1.00  0.00     0.159 C 
HETATM   11  O   LIG     1      27.210  26.780  35.391  1.00  0.00    -0.292 OA
BRANCH  10  12
HETATM   12  C   LIG     1      26.727  29.083  35.746  1.00  0.00     0.010 A 
HETATM   13  C   LIG     1      27.175  29.095  37.084  1.00  0.00     0.018 A 
HETATM   14  C   LIG     1      27.007  30.233  37.879  1.00  0.00     0.043 A 
HETATM   15  C   LIG     1      26.394  31.372  37.355  1.00  0.00     0.116 A 
HETATM   16  C   LIG     1      25.948  31.377  36.032  1.00  0.00     0.043 A 
HETATM   17  F   LIG     1      26.233  32.473  38.129  1.00  0.00    -0.206 F 
HETATM   18  C   LIG     1      26.112  30.242  35.232  1.00  0.00     0.018 A 
ENDBRANCH  10  12
ENDBRANCH   9  10
ENDBRANCH   8   9
ENDBRANCH   7   8
ENDBRANCH   1   7
BRANCH   4  19
HETATM   19  C   LIG     1      27.018  24.703  27.991  1.00  0.00    -0.024 A 
HETATM   20  C   LIG     1      26.196  23.613  28.344  1.00  0.00     0.012 A 
HETATM   21  C   LIG     1      25.506  22.889  27.369  1.00  0.00     0.024 A 
HETATM   22  C   LIG     1      25.623  23.238  26.023  1.00  0.00     0.034 A 
HETATM   23  C   LIG     1      26.432  24.313  25.651  1.00  0.00     0.024 A 
HETATM   24 CL   LIG     1      24.755  22.327  24.800  1.00  0.00    -0.084 Cl
HETATM   25  C   LIG     1      27.125  25.042  26.622  1.00  0.00     0.012 A 
ENDBRANCH   4  19
BRANCH   4  26
HETATM   26  O   LIG     1      27.563  24.761  30.316  1.00  0.00    -0.385 OA
HETATM   27  H   LIG     1      27.106  25.371  30.954  1.00  0.00     0.211 HD
ENDBRANCH   4  26
TORSDOF 7
ENDMDL
MODEL 14
REMARK VINA RESULT:      -6.4     15.230     16.351
REMARK  7 active torsions:
REMARK  status: ('A' for Active; 'I' for Inactive)
REMARK    1  A    between atoms: C_2  and  C_3 
REMARK    2  A    between atoms: C_2  and  C_20 
REMARK    3  A    between atoms: C_3  and  C_4 
REMARK    4  A    between atoms: C_4  and  C_5 
REMARK    5  A    between atoms: C_5  and  N_6 
REMARK    6  A    between atoms: C_9  and  C_10 
REMARK    7  A    between atoms: C_9  and  O_17 
ROOT
HETATM    1  N   LIG     1      27.998  24.644  19.767  1.00  0.00     0.088 N 
HETATM    2  C   LIG     1      28.333  23.945  18.499  1.00  0.00     0.276 C 
HETATM    3  C   LIG     1      27.179  23.088  17.936  1.00  0.00     0.073 C 
HETATM    4  C   LIG     1      26.330  22.450  19.064  1.00  0.00     0.088 C 
HETATM    5  C   LIG     1      25.726  23.584  19.940  1.00  0.00     0.073 C 
HETATM    6  C   LIG     1      26.553  24.890  19.933  1.00  0.00     0.276 C 
ENDROOT
BRANCH   1   7
HETATM    7  C   LIG     1      28.640  24.076  20.977  1.00  0.00     0.272 C 
BRANCH   7   8
HETATM    8  C   LIG     1      27.833  24.455  22.221  1.00  0.00     0.038 C 
BRANCH   8   9
HETATM    9  C   LIG     1      27.814  23.323  23.257  1.00  0.00     0.085 C 
BRANCH   9  10
HETATM   10  C   LIG     1      26.421  23.111  23.788  1.00  0.00     0.159 C 
HETATM   11  O   LIG     1      26.097  23.709  24.851  1.00  0.00    -0.292 OA
BRANCH  10  12
HETATM   12  C   LIG     1      25.438  22.207  23.127  1.00  0.00     0.010 A 
HETATM   13  C   LIG     1      24.115  22.617  22.858  1.00  0.00     0.018 A 
HETATM   14  C   LIG     1      23.214  21.748  22.235  1.00  0.00     0.043 A 
HETATM   15  C   LIG     1      23.616  20.462  21.870  1.00  0.00     0.116 A 
HETATM   16  C   LIG     1      24.923  20.042  22.126  1.00  0.00     0.043 A 
HETATM   17  F   LIG     1      22.740  19.623  21.266  1.00  0.00    -0.206 F 
HETATM   18  C   LIG     1      25.828  20.906  22.750  1.00  0.00     0.018 A 
ENDBRANCH  10  12
ENDBRANCH   9  10
ENDBRANCH   8   9
ENDBRANCH   7   8
ENDBRANCH   1   7
BRANCH   4  19
HETATM   19  C   LIG     1      25.186  21.560  18.550  1.00  0.00    -0.024 A 
HETATM   20  C   LIG     1      23.864  22.043  18.638  1.00  0.00     0.012 A 
HETATM   21  C   LIG     1      22.788  21.276  18.185  1.00  0.00     0.024 A 
HETATM   22  C   LIG     1      23.010  20.012  17.635  1.00  0.00     0.034 A 
HETATM   23  C   LIG     1      24.311  19.515  17.539  1.00  0.00     0.024 A 
HETATM   24 CL   LIG     1      21.657  19.051  17.066  1.00  0.00    -0.084 Cl
HETATM   25  C   LIG     1      25.392  20.277  17.991  1.00  0.00     0.012 A 
ENDBRANCH   4  19
BRANCH   4  26
HETATM   26  O   LIG     1      27.172  21.661  19.874  1.00  0.00    -0.385 OA
HETATM   27  H   LIG     1      26.726  21.546  20.755  1.00  0.00     0.211 HD
ENDBRANCH   4  26
TORSDOF 7
ENDMDL
MODEL 15
REMARK VINA RESULT:      -6.2     17.972     20.099
REMARK  7 active torsions:
REMARK  status: ('A' for Active; 'I' for Inactive)
REMARK    1  A    between atoms: C_2  and  C_3 
REMARK    2  A    between atoms: C_2  and  C_20 
REMARK    3  A    between atoms: C_3  and  C_4 
REMARK    4  A    between atoms: C_4  and  C_5 
REMARK    5  A    between atoms: C_5  and  N_6 
REMARK    6  A    between atoms: C_9  and  C_10 
REMARK    7  A    between atoms: C_9  and  O_17 
ROOT
HETATM    1  N   LIG     1      27.172  22.700  36.742  1.00  0.00     0.088 N 
HETATM    2  C   LIG     1      26.371  21.492  37.070  1.00  0.00     0.276 C 
HETATM    3  C   LIG     1      24.929  21.533  36.519  1.00  0.00     0.073 C 
HETATM    4  C   LIG     1      24.348  22.969  36.525  1.00  0.00     0.088 C 
HETATM    5  C   LIG     1      25.247  23.876  35.636  1.00  0.00     0.073 C 
HETATM    6  C   LIG     1      26.711  23.394  35.524  1.00  0.00     0.276 C 
ENDROOT
BRANCH   1   7
HETATM    7  C   LIG     1      27.410  23.615  37.885  1.00  0.00     0.272 C 
BRANCH   7   8
HETATM    8  C   LIG     1      28.306  24.775  37.444  1.00  0.00     0.038 C 
BRANCH   8   9
HETATM    9  C   LIG     1      27.605  26.131  37.604  1.00  0.00     0.085 C 
BRANCH   9  10
HETATM   10  C   LIG     1      27.797  26.977  36.373  1.00  0.00     0.159 C 
HETATM   11  O   LIG     1      28.568  26.544  35.474  1.00  0.00    -0.292 OA
BRANCH  10  12
HETATM   12  C   LIG     1      27.140  28.304  36.199  1.00  0.00     0.010 A 
HETATM   13  C   LIG     1      26.995  28.901  34.930  1.00  0.00     0.018 A 
HETATM   14  C   LIG     1      26.373  30.146  34.796  1.00  0.00     0.043 A 
HETATM   15  C   LIG     1      25.885  30.812  35.922  1.00  0.00     0.116 A 
HETATM   16  C   LIG     1      26.017  30.233  37.185  1.00  0.00     0.043 A 
HETATM   17  F   LIG     1      25.282  32.018  35.788  1.00  0.00    -0.206 F 
HETATM   18  C   LIG     1      26.639  28.988  37.325  1.00  0.00     0.018 A 
ENDBRANCH  10  12
ENDBRANCH   9  10
ENDBRANCH   8   9
ENDBRANCH   7   8
ENDBRANCH   1   7
BRANCH   4  19
HETATM   19  C   LIG     1      22.900  23.054  36.014  1.00  0.00    -0.024 A 
HETATM   20  C   LIG     1      22.601  22.521  34.743  1.00  0.00     0.012 A 
HETATM   21  C   LIG     1      21.303  22.570  34.232  1.00  0.00     0.024 A 
HETATM   22  C   LIG     1      20.277  23.152  34.979  1.00  0.00     0.034 A 
HETATM   23  C   LIG     1      20.551  23.687  36.238  1.00  0.00     0.024 A 
HETATM   24 CL   LIG     1      18.646  23.212  34.334  1.00  0.00    -0.084 Cl
HETATM   25  C   LIG     1      21.849  23.641  36.756  1.00  0.00     0.012 A 
ENDBRANCH   4  19
BRANCH   4  26
HETATM   26  O   LIG     1      24.381  23.466  37.844  1.00  0.00    -0.385 OA
HETATM   27  H   LIG     1      23.513  23.242  38.274  1.00  0.00     0.211 HD
ENDBRANCH   4  26
TORSDOF 7
ENDMDL
MODEL 16
REMARK VINA RESULT:      -6.1     14.996     17.567
REMARK  7 active torsions:
REMARK  status: ('A' for Active; 'I' for Inactive)
REMARK    1  A    between atoms: C_2  and  C_3 
REMARK    2  A    between atoms: C_2  and  C_20 
REMARK    3  A    between atoms: C_3  and  C_4 
REMARK    4  A    between atoms: C_4  and  C_5 
REMARK    5  A    between atoms: C_5  and  N_6 
REMARK    6  A    between atoms: C_9  and  C_10 
REMARK    7  A    between atoms: C_9  and  O_17 
ROOT
HETATM    1  N   LIG     1      26.968  23.167  25.078  1.00  0.00     0.088 N 
HETATM    2  C   LIG     1      27.655  24.485  25.070  1.00  0.00     0.276 C 
HETATM    3  C   LIG     1      28.008  25.011  26.478  1.00  0.00     0.073 C 
HETATM    4  C   LIG     1      26.942  24.611  27.529  1.00  0.00     0.088 C 
HETATM    5  C   LIG     1      26.853  23.059  27.585  1.00  0.00     0.073 C 
HETATM    6  C   LIG     1      27.271  22.357  26.273  1.00  0.00     0.276 C 
ENDROOT
BRANCH   1   7
HETATM    7  C   LIG     1      25.521  23.220  24.756  1.00  0.00     0.272 C 
BRANCH   7   8
HETATM    8  C   LIG     1      25.152  22.060  23.829  1.00  0.00     0.038 C 
BRANCH   8   9
HETATM    9  C   LIG     1      24.832  22.544  22.407  1.00  0.00     0.085 C 
BRANCH   9  10
HETATM   10  C   LIG     1      26.079  22.576  21.564  1.00  0.00     0.159 C 
HETATM   11  O   LIG     1      26.771  21.523  21.493  1.00  0.00    -0.292 OA
BRANCH  10  12
HETATM   12  C   LIG     1      26.533  23.800  20.846  1.00  0.00     0.010 A 
HETATM   13  C   LIG     1      27.605  24.586  21.320  1.00  0.00     0.018 A 
HETATM   14  C   LIG     1      28.011  25.729  20.624  1.00  0.00     0.043 A 
HETATM   15  C   LIG     1      27.358  26.106  19.449  1.00  0.00     0.116 A 
HETATM   16  C   LIG     1      26.298  25.337  18.965  1.00  0.00     0.043 A 
HETATM   17  F   LIG     1      27.754  27.214  18.778  1.00  0.00    -0.206 F 
HETATM   18  C   LIG     1      25.887  24.193  19.656  1.00  0.00     0.018 A 
ENDBRANCH  10  12
ENDBRANCH   9  10
ENDBRANCH   8   9
ENDBRANCH   7   8
ENDBRANCH   1   7
BRANCH   4  19
HETATM   19  C   LIG     1      27.235  25.141  28.942  1.00  0.00    -0.024 A 
HETATM   20  C   LIG     1      27.045  26.515  29.199  1.00  0.00     0.012 A 
HETATM   21  C   LIG     1      27.294  27.050  30.464  1.00  0.00     0.024 A 
HETATM   22  C   LIG     1      27.739  26.225  31.499  1.00  0.00     0.034 A 
HETATM   23  C   LIG     1      27.934  24.862  31.266  1.00  0.00     0.024 A 
HETATM   24 CL   LIG     1      28.051  26.899  33.089  1.00  0.00    -0.084 Cl
HETATM   25  C   LIG     1      27.686  24.321  30.001  1.00  0.00     0.012 A 
ENDBRANCH   4  19
BRANCH   4  26
HETATM   26  O   LIG     1      25.691  25.114  27.119  1.00  0.00    -0.385 OA
HETATM   27  H   LIG     1      25.737  26.107  27.151  1.00  0.00     0.211 HD
ENDBRANCH   4  26
TORSDOF 7
ENDMDL
MODEL 17
REMARK VINA RESULT:      -6.1     15.038     15.730
REMARK  7 active torsions:
REMARK  status: ('A' for Active; 'I' for Inactive)
REMARK    1  A    between atoms: C_2  and  C_3 
REMARK    2  A    between atoms: C_2  and  C_20 
REMARK    3  A    between atoms: C_3  and  C_4 
REMARK    4  A    between atoms: C_4  and  C_5 
REMARK    5  A    between atoms: C_5  and  N_6 
REMARK    6  A    between atoms: C_9  and  C_10 
REMARK    7  A    between atoms: C_9  and  O_17 
ROOT
HETATM    1  N   LIG     1      28.349  24.892  19.136  1.00  0.00     0.088 N 
HETATM    2  C   LIG     1      28.771  23.478  19.305  1.00  0.00     0.276 C 
HETATM    3  C   LIG     1      27.735  22.453  18.795  1.00  0.00     0.073 C 
HETATM    4  C   LIG     1      26.281  22.941  19.017  1.00  0.00     0.088 C 
HETATM    5  C   LIG     1      26.080  24.279  18.249  1.00  0.00     0.073 C 
HETATM    6  C   LIG     1      27.381  25.086  18.039  1.00  0.00     0.276 C 
ENDROOT
BRANCH   1   7
HETATM    7  C   LIG     1      27.957  25.577  20.393  1.00  0.00     0.272 C 
BRANCH   7   8
HETATM    8  C   LIG     1      28.822  25.071  21.550  1.00  0.00     0.038 C 
BRANCH   8   9
HETATM    9  C   LIG     1      28.563  25.859  22.842  1.00  0.00     0.085 C 
BRANCH   9  10
HETATM   10  C   LIG     1      28.637  24.951  24.041  1.00  0.00     0.159 C 
HETATM   11  O   LIG     1      29.778  24.666  24.497  1.00  0.00    -0.292 OA
BRANCH  10  12
HETATM   12  C   LIG     1      27.425  24.361  24.678  1.00  0.00     0.010 A 
HETATM   13  C   LIG     1      27.028  24.709  25.986  1.00  0.00     0.018 A 
HETATM   14  C   LIG     1      25.885  24.141  26.558  1.00  0.00     0.043 A 
HETATM   15  C   LIG     1      25.122  23.222  25.837  1.00  0.00     0.116 A 
HETATM   16  C   LIG     1      25.499  22.869  24.540  1.00  0.00     0.043 A 
HETATM   17  F   LIG     1      24.015  22.673  26.394  1.00  0.00    -0.206 F 
HETATM   18  C   LIG     1      26.642  23.433  23.963  1.00  0.00     0.018 A 
ENDBRANCH  10  12
ENDBRANCH   9  10
ENDBRANCH   8   9
ENDBRANCH   7   8
ENDBRANCH   1   7
BRANCH   4  19
HETATM   19  C   LIG     1      25.213  21.938  18.555  1.00  0.00    -0.024 A 
HETATM   20  C   LIG     1      23.866  22.185  18.890  1.00  0.00     0.012 A 
HETATM   21  C   LIG     1      22.854  21.307  18.493  1.00  0.00     0.024 A 
HETATM   22  C   LIG     1      23.168  20.164  17.755  1.00  0.00     0.034 A 
HETATM   23  C   LIG     1      24.496  19.900  17.413  1.00  0.00     0.024 A 
HETATM   24 CL   LIG     1      21.896  19.062  17.258  1.00  0.00    -0.084 Cl
HETATM   25  C   LIG     1      25.512  20.775  17.807  1.00  0.00     0.012 A 
ENDBRANCH   4  19
BRANCH   4  26
HETATM   26  O   LIG     1      26.091  23.185  20.393  1.00  0.00    -0.385 OA
HETATM   27  H   LIG     1      26.918  23.613  20.743  1.00  0.00     0.211 HD
ENDBRANCH   4  26
TORSDOF 7
ENDMDL
MODEL 18
REMARK VINA RESULT:      -6.1     14.863     15.962
REMARK  7 active torsions:
REMARK  status: ('A' for Active; 'I' for Inactive)
REMARK    1  A    between atoms: C_2  and  C_3 
REMARK    2  A    between atoms: C_2  and  C_20 
REMARK    3  A    between atoms: C_3  and  C_4 
REMARK    4  A    between atoms: C_4  and  C_5 
REMARK    5  A    between atoms: C_5  and  N_6 
REMARK    6  A    between atoms: C_9  and  C_10 
REMARK    7  A    between atoms: C_9  and  O_17 
ROOT
HETATM    1  N   LIG     1      23.188  20.663  21.537  1.00  0.00     0.088 N 
HETATM    2  C   LIG     1      22.739  22.065  21.740  1.00  0.00     0.276 C 
HETATM    3  C   LIG     1      23.594  23.108  20.988  1.00  0.00     0.073 C 
HETATM    4  C   LIG     1      25.085  22.691  20.918  1.00  0.00     0.088 C 
HETATM    5  C   LIG     1      25.189  21.329  20.173  1.00  0.00     0.073 C 
HETATM    6  C   LIG     1      23.916  20.460  20.270  1.00  0.00     0.276 C 
ENDROOT
BRANCH   1   7
HETATM    7  C   LIG     1      23.866  20.054  22.708  1.00  0.00     0.272 C 
BRANCH   7   8
HETATM    8  C   LIG     1      23.188  20.516  23.999  1.00  0.00     0.038 C 
BRANCH   8   9
HETATM    9  C   LIG     1      24.098  20.330  25.221  1.00  0.00     0.085 C 
BRANCH   9  10
HETATM   10  C   LIG     1      23.847  21.410  26.240  1.00  0.00     0.159 C 
HETATM   11  O   LIG     1      22.741  21.404  26.846  1.00  0.00    -0.292 OA
BRANCH  10  12
HETATM   12  C   LIG     1      24.836  22.487  26.529  1.00  0.00     0.010 A 
HETATM   13  C   LIG     1      25.261  23.392  25.534  1.00  0.00     0.018 A 
HETATM   14  C   LIG     1      26.189  24.395  25.834  1.00  0.00     0.043 A 
HETATM   15  C   LIG     1      26.703  24.512  27.126  1.00  0.00     0.116 A 
HETATM   16  C   LIG     1      26.290  23.626  28.123  1.00  0.00     0.043 A 
HETATM   17  F   LIG     1      27.602  25.485  27.413  1.00  0.00    -0.206 F 
HETATM   18  C   LIG     1      25.364  22.621  27.829  1.00  0.00     0.018 A 
ENDBRANCH  10  12
ENDBRANCH   9  10
ENDBRANCH   8   9
ENDBRANCH   7   8
ENDBRANCH   1   7
BRANCH   4  19
HETATM   19  C   LIG     1      25.982  23.716  20.205  1.00  0.00    -0.024 A 
HETATM   20  C   LIG     1      26.928  24.430  20.969  1.00  0.00     0.012 A 
HETATM   21  C   LIG     1      27.769  25.372  20.373  1.00  0.00     0.024 A 
HETATM   22  C   LIG     1      27.682  25.621  19.002  1.00  0.00     0.034 A 
HETATM   23  C   LIG     1      26.752  24.925  18.227  1.00  0.00     0.024 A 
HETATM   24 CL   LIG     1      28.740  26.804  18.254  1.00  0.00    -0.084 Cl
HETATM   25  C   LIG     1      25.907  23.982  18.818  1.00  0.00     0.012 A 
ENDBRANCH   4  19
BRANCH   4  26
HETATM   26  O   LIG     1      25.568  22.519  22.231  1.00  0.00    -0.385 OA
HETATM   27  H   LIG     1      26.561  22.536  22.194  1.00  0.00     0.211 HD
ENDBRANCH   4  26
TORSDOF 7
ENDMDL
MODEL 19
REMARK VINA RESULT:      -6.0     17.941     19.847
REMARK  7 active torsions:
REMARK  status: ('A' for Active; 'I' for Inactive)
REMARK    1  A    between atoms: C_2  and  C_3 
REMARK    2  A    between atoms: C_2  and  C_20 
REMARK    3  A    between atoms: C_3  and  C_4 
REMARK    4  A    between atoms: C_4  and  C_5 
REMARK    5  A    between atoms: C_5  and  N_6 
REMARK    6  A    between atoms: C_9  and  C_10 
REMARK    7  A    between atoms: C_9  and  O_17 
ROOT
HETATM    1  N   LIG     1      26.351  23.246  36.228  1.00  0.00     0.088 N 
HETATM    2  C   LIG     1      25.488  23.704  37.348  1.00  0.00     0.276 C 
HETATM    3  C   LIG     1      24.105  23.018  37.390  1.00  0.00     0.073 C 
HETATM    4  C   LIG     1      23.568  22.714  35.968  1.00  0.00     0.088 C 
HETATM    5  C   LIG     1      24.571  21.770  35.245  1.00  0.00     0.073 C 
HETATM    6  C   LIG     1      26.025  21.887  35.757  1.00  0.00     0.276 C 
ENDROOT
BRANCH   1   7
HETATM    7  C   LIG     1      26.508  24.227  35.126  1.00  0.00     0.272 C 
BRANCH   7   8
HETATM    8  C   LIG     1      26.565  25.646  35.698  1.00  0.00     0.038 C 
BRANCH   8   9
HETATM    9  C   LIG     1      27.538  26.539  34.915  1.00  0.00     0.085 C 
BRANCH   9  10
HETATM   10  C   LIG     1      26.875  27.834  34.527  1.00  0.00     0.159 C 
HETATM   11  O   LIG     1      26.420  27.936  33.355  1.00  0.00    -0.292 OA
BRANCH  10  12
HETATM   12  C   LIG     1      26.769  28.993  35.458  1.00  0.00     0.010 A 
HETATM   13  C   LIG     1      27.368  28.978  36.735  1.00  0.00     0.018 A 
HETATM   14  C   LIG     1      27.254  30.082  37.587  1.00  0.00     0.043 A 
HETATM   15  C   LIG     1      26.544  31.213  37.180  1.00  0.00     0.116 A 
HETATM   16  C   LIG     1      25.948  31.244  35.918  1.00  0.00     0.043 A 
HETATM   17  F   LIG     1      26.436  32.280  38.009  1.00  0.00    -0.206 F 
HETATM   18  C   LIG     1      26.058  30.144  35.062  1.00  0.00     0.018 A 
ENDBRANCH  10  12
ENDBRANCH   9  10
ENDBRANCH   8   9
ENDBRANCH   7   8
ENDBRANCH   1   7
BRANCH   4  19
HETATM   19  C   LIG     1      22.177  22.060  35.959  1.00  0.00    -0.024 A 
HETATM   20  C   LIG     1      21.990  20.864  36.682  1.00  0.00     0.012 A 
HETATM   21  C   LIG     1      20.746  20.228  36.709  1.00  0.00     0.024 A 
HETATM   22  C   LIG     1      19.665  20.774  36.014  1.00  0.00     0.034 A 
HETATM   23  C   LIG     1      19.829  21.956  35.291  1.00  0.00     0.024 A 
HETATM   24 CL   LIG     1      18.104  19.974  36.049  1.00  0.00    -0.084 Cl
HETATM   25  C   LIG     1      21.071  22.597  35.260  1.00  0.00     0.012 A 
ENDBRANCH   4  19
BRANCH   4  26
HETATM   26  O   LIG     1      23.493  23.922  35.245  1.00  0.00    -0.385 OA
HETATM   27  H   LIG     1      23.801  23.740  34.317  1.00  0.00     0.211 HD
ENDBRANCH   4  26
TORSDOF 7
ENDMDL
MODEL 20
REMARK VINA RESULT:      -5.9     15.034     17.826
REMARK  7 active torsions:
REMARK  status: ('A' for Active; 'I' for Inactive)
REMARK    1  A    between atoms: C_2  and  C_3 
REMARK    2  A    between atoms: C_2  and  C_20 
REMARK    3  A    between atoms: C_3  and  C_4 
REMARK    4  A    between atoms: C_4  and  C_5 
REMARK    5  A    between atoms: C_5  and  N_6 
REMARK    6  A    between atoms: C_9  and  C_10 
REMARK    7  A    between atoms: C_9  and  O_17 
ROOT
HETATM    1  N   LIG     1      25.674  22.168  26.118  1.00  0.00     0.088 N 
HETATM    2  C   LIG     1      25.881  22.031  27.582  1.00  0.00     0.276 C 
HETATM    3  C   LIG     1      26.313  23.341  28.275  1.00  0.00     0.073 C 
HETATM    4  C   LIG     1      27.218  24.207  27.363  1.00  0.00     0.088 C 
HETATM    5  C   LIG     1      26.430  24.563  26.069  1.00  0.00     0.073 C 
HETATM    6  C   LIG     1      25.331  23.541  25.702  1.00  0.00     0.276 C 
ENDROOT
BRANCH   1   7
HETATM    7  C   LIG     1      26.731  21.548  25.281  1.00  0.00     0.272 C 
BRANCH   7   8
HETATM    8  C   LIG     1      26.142  21.112  23.938  1.00  0.00     0.038 C 
BRANCH   8   9
HETATM    9  C   LIG     1      25.106  19.991  24.105  1.00  0.00     0.085 C 
BRANCH   9  10
HETATM   10  C   LIG     1      23.739  20.464  23.686  1.00  0.00     0.159 C 
HETATM   11  O   LIG     1      22.822  20.462  24.553  1.00  0.00    -0.292 OA
BRANCH  10  12
HETATM   12  C   LIG     1      23.430  20.897  22.294  1.00  0.00     0.010 A 
HETATM   13  C   LIG     1      22.845  22.150  22.018  1.00  0.00     0.018 A 
HETATM   14  C   LIG     1      22.568  22.531  20.701  1.00  0.00     0.043 A 
HETATM   15  C   LIG     1      22.870  21.672  19.643  1.00  0.00     0.116 A 
HETATM   16  C   LIG     1      23.452  20.429  19.899  1.00  0.00     0.043 A 
HETATM   17  F   LIG     1      22.600  22.045  18.368  1.00  0.00    -0.206 F 
HETATM   18  C   LIG     1      23.731  20.043  21.213  1.00  0.00     0.018 A 
ENDBRANCH  10  12
ENDBRANCH   9  10
ENDBRANCH   8   9
ENDBRANCH   7   8
ENDBRANCH   1   7
BRANCH   4  19
HETATM   19  C   LIG     1      27.699  25.509  28.023  1.00  0.00    -0.024 A 
HETATM   20  C   LIG     1      28.916  26.075  27.590  1.00  0.00     0.012 A 
HETATM   21  C   LIG     1      29.400  27.257  28.155  1.00  0.00     0.024 A 
HETATM   22  C   LIG     1      28.679  27.898  29.164  1.00  0.00     0.034 A 
HETATM   23  C   LIG     1      27.472  27.354  29.608  1.00  0.00     0.024 A 
HETATM   24 CL   LIG     1      29.288  29.383  29.872  1.00  0.00    -0.084 Cl
HETATM   25  C   LIG     1      26.983  26.171  29.047  1.00  0.00     0.012 A 
ENDBRANCH   4  19
BRANCH   4  26
HETATM   26  O   LIG     1      28.351  23.451  27.000  1.00  0.00    -0.385 OA
HETATM   27  H   LIG     1      28.072  22.499  26.934  1.00  0.00     0.211 HD
ENDBRANCH   4  26
TORSDOF 7
ENDMDL
