REMARK  5 active torsions:
REMARK  status: ('A' for Active; 'I' for Inactive)
REMARK    1  A    between atoms: C_2  and  C_3 
REMARK    2  A    between atoms: C_3  and  C_4 
REMARK    3  A    between atoms: C_4  and  C_5 
REMARK    4  A    between atoms: C_6  and  O_7 
REMARK    5  A    between atoms: C_9  and  N_10 
ROOT
HETATM    1  C   LIG     1       0.232  -0.488  -0.199  1.00  0.00     0.020 A 
HETATM    2  C   LIG     1      -0.259  -1.212   0.914  1.00  0.00     0.189 A 
HETATM    3  N   LIG     1      -1.518  -0.980   1.365  1.00  0.00    -0.038 NA
HETATM    4  C   LIG     1      -2.331  -0.061   0.784  1.00  0.00     0.726 A 
HETATM    5  N   LIG     1      -1.876   0.655  -0.275  1.00  0.00    -0.067 NA
HETATM    6  C   LIG     1      -0.626   0.479  -0.778  1.00  0.00     0.060 A 
HETATM    7  C   LIG     1      -0.214   1.326  -1.948  1.00  0.00     0.072 C 
ENDROOT
BRANCH   1   8
HETATM    8  C   LIG     1       1.627  -0.735  -0.742  1.00  0.00     0.045 C 
BRANCH   8   9
HETATM    9  C   LIG     1       2.677   0.018   0.090  1.00  0.00     0.004 C 
BRANCH   9  10
HETATM   10  C   LIG     1       4.116  -0.318  -0.332  1.00  0.00    -0.004 C 
HETATM   11  C   LIG     1       4.484   0.267  -1.695  1.00  0.00     0.005 C 
ENDBRANCH   9  10
ENDBRANCH   8   9
ENDBRANCH   1   8
BRANCH   2  12
HETATM   12  O   LIG     1       0.506  -2.170   1.582  1.00  0.00    -0.344 OA
HETATM   13  H   LIG     1       1.462  -2.396   1.343  1.00  0.00     0.219 HD
ENDBRANCH   2  12
BRANCH   4  14
HETATM   14  N   LIG     1      -3.663   0.155   1.290  1.00  0.00    -0.223 N 
HETATM   15  C   LIG     1      -4.141  -0.624   2.437  1.00  0.00     0.168 C 
HETATM   16  C   LIG     1      -4.529   1.153   0.654  1.00  0.00     0.168 C 
ENDBRANCH   4  14
TORSDOF 5
