MODEL 1
REMARK VINA RESULT:      -7.3      0.000      0.000
REMARK  1 active torsions:
REMARK  status: ('A' for Active; 'I' for Inactive)
REMARK    1  A    between atoms: C_2  and  C_3 
ROOT
HETATM    1  C   LIG     1      17.500  37.190  24.192  1.00  0.00    -0.058 A 
HETATM    2  C   LIG     1      16.956  35.947  23.829  1.00  0.00     0.019 A 
HETATM    3  C   LIG     1      16.673  35.648  22.487  1.00  0.00    -0.025 A 
HETATM    4  C   LIG     1      16.130  34.404  22.134  1.00  0.00     0.024 A 
HETATM    5  C   LIG     1      15.847  34.109  20.792  1.00  0.00    -0.025 A 
HETATM    6  C   LIG     1      15.304  32.866  20.434  1.00  0.00     0.012 A 
HETATM    7  C   LIG     1      15.026  32.580  19.094  1.00  0.00     0.001 A 
HETATM    8  C   LIG     1      15.289  33.531  18.103  1.00  0.00     0.001 A 
HETATM    9  C   LIG     1      15.830  34.773  18.447  1.00  0.00     0.012 A 
HETATM   10  C   LIG     1      16.113  35.073  19.789  1.00  0.00    -0.025 A 
HETATM   11  C   LIG     1      16.657  36.316  20.142  1.00  0.00     0.024 A 
HETATM   12  C   LIG     1      16.939  36.609  21.486  1.00  0.00    -0.025 A 
HETATM   13  C   LIG     1      17.481  37.850  21.844  1.00  0.00     0.013 A 
HETATM   14  C   LIG     1      17.760  38.140  23.182  1.00  0.00     0.008 A 
ENDROOT
BRANCH   1  15
HETATM   15  C   LIG     1      17.780  37.438  25.662  1.00  0.00     0.034 C 
HETATM   16  C   LIG     1      18.209  36.211  26.469  1.00  0.00     0.010 C 
ENDBRANCH   1  15
TORSDOF 1
ENDMDL
MODEL 2
REMARK VINA RESULT:      -7.2      0.841      5.724
REMARK  1 active torsions:
REMARK  status: ('A' for Active; 'I' for Inactive)
REMARK    1  A    between atoms: C_2  and  C_3 
ROOT
HETATM    1  C   LIG     1      15.730  33.888  20.055  1.00  0.00    -0.058 A 
HETATM    2  C   LIG     1      16.081  33.718  21.405  1.00  0.00     0.019 A 
HETATM    3  C   LIG     1      16.504  34.808  22.182  1.00  0.00    -0.025 A 
HETATM    4  C   LIG     1      16.852  34.628  23.529  1.00  0.00     0.024 A 
HETATM    5  C   LIG     1      17.274  35.719  24.303  1.00  0.00    -0.025 A 
HETATM    6  C   LIG     1      17.624  35.545  25.652  1.00  0.00     0.012 A 
HETATM    7  C   LIG     1      18.043  36.638  26.415  1.00  0.00     0.001 A 
HETATM    8  C   LIG     1      18.116  37.910  25.841  1.00  0.00     0.001 A 
HETATM    9  C   LIG     1      17.771  38.097  24.500  1.00  0.00     0.012 A 
HETATM   10  C   LIG     1      17.348  37.008  23.721  1.00  0.00    -0.025 A 
HETATM   11  C   LIG     1      17.000  37.187  22.375  1.00  0.00     0.024 A 
HETATM   12  C   LIG     1      16.578  36.094  21.602  1.00  0.00    -0.025 A 
HETATM   13  C   LIG     1      16.229  36.267  20.256  1.00  0.00     0.013 A 
HETATM   14  C   LIG     1      15.809  35.178  19.489  1.00  0.00     0.008 A 
ENDROOT
BRANCH   1  15
HETATM   15  C   LIG     1      15.282  32.663  19.281  1.00  0.00     0.034 C 
HETATM   16  C   LIG     1      14.823  31.476  20.131  1.00  0.00     0.010 C 
ENDBRANCH   1  15
TORSDOF 1
ENDMDL
MODEL 3
REMARK VINA RESULT:      -7.1      2.754      3.887
REMARK  1 active torsions:
REMARK  status: ('A' for Active; 'I' for Inactive)
REMARK    1  A    between atoms: C_2  and  C_3 
ROOT
HETATM    1  C   LIG     1      17.278  36.240  24.953  1.00  0.00    -0.058 A 
HETATM    2  C   LIG     1      17.495  35.860  23.618  1.00  0.00     0.019 A 
HETATM    3  C   LIG     1      17.775  36.818  22.632  1.00  0.00    -0.025 A 
HETATM    4  C   LIG     1      17.991  36.429  21.302  1.00  0.00     0.024 A 
HETATM    5  C   LIG     1      18.270  37.390  20.319  1.00  0.00    -0.025 A 
HETATM    6  C   LIG     1      18.486  37.005  18.986  1.00  0.00     0.012 A 
HETATM    7  C   LIG     1      18.764  37.970  18.013  1.00  0.00     0.001 A 
HETATM    8  C   LIG     1      18.829  39.322  18.362  1.00  0.00     0.001 A 
HETATM    9  C   LIG     1      18.615  39.717  19.685  1.00  0.00     0.012 A 
HETATM   10  C   LIG     1      18.335  38.759  20.672  1.00  0.00    -0.025 A 
HETATM   11  C   LIG     1      18.120  39.148  22.002  1.00  0.00     0.024 A 
HETATM   12  C   LIG     1      17.841  38.185  22.985  1.00  0.00    -0.025 A 
HETATM   13  C   LIG     1      17.624  38.569  24.314  1.00  0.00     0.013 A 
HETATM   14  C   LIG     1      17.346  37.608  25.290  1.00  0.00     0.008 A 
ENDROOT
BRANCH   1  15
HETATM   15  C   LIG     1      16.982  35.146  25.961  1.00  0.00     0.034 C 
HETATM   16  C   LIG     1      18.200  34.563  26.680  1.00  0.00     0.010 C 
ENDBRANCH   1  15
TORSDOF 1
ENDMDL
MODEL 4
REMARK VINA RESULT:      -6.9      0.863      5.789
REMARK  1 active torsions:
REMARK  status: ('A' for Active; 'I' for Inactive)
REMARK    1  A    between atoms: C_2  and  C_3 
ROOT
HETATM    1  C   LIG     1      15.428  33.331  19.770  1.00  0.00    -0.058 A 
HETATM    2  C   LIG     1      15.736  33.462  21.135  1.00  0.00     0.019 A 
HETATM    3  C   LIG     1      16.249  34.664  21.646  1.00  0.00    -0.025 A 
HETATM    4  C   LIG     1      16.554  34.785  23.010  1.00  0.00     0.024 A 
HETATM    5  C   LIG     1      17.067  35.988  23.517  1.00  0.00    -0.025 A 
HETATM    6  C   LIG     1      17.373  36.115  24.881  1.00  0.00     0.012 A 
HETATM    7  C   LIG     1      17.884  37.318  25.378  1.00  0.00     0.001 A 
HETATM    8  C   LIG     1      18.092  38.401  24.519  1.00  0.00     0.001 A 
HETATM    9  C   LIG     1      17.792  38.288  23.159  1.00  0.00     0.012 A 
HETATM   10  C   LIG     1      17.278  37.085  22.647  1.00  0.00    -0.025 A 
HETATM   11  C   LIG     1      16.973  36.964  21.283  1.00  0.00     0.024 A 
HETATM   12  C   LIG     1      16.460  35.759  20.778  1.00  0.00    -0.025 A 
HETATM   13  C   LIG     1      16.154  35.633  19.416  1.00  0.00     0.013 A 
HETATM   14  C   LIG     1      15.644  34.433  18.915  1.00  0.00     0.008 A 
ENDROOT
BRANCH   1  15
HETATM   15  C   LIG     1      14.877  32.001  19.294  1.00  0.00     0.034 C 
HETATM   16  C   LIG     1      14.303  31.994  17.875  1.00  0.00     0.010 C 
ENDBRANCH   1  15
TORSDOF 1
ENDMDL
MODEL 5
REMARK VINA RESULT:      -6.8      1.044      6.194
REMARK  1 active torsions:
REMARK  status: ('A' for Active; 'I' for Inactive)
REMARK    1  A    between atoms: C_2  and  C_3 
ROOT
HETATM    1  C   LIG     1      15.267  33.457  18.747  1.00  0.00    -0.058 A 
HETATM    2  C   LIG     1      15.928  34.691  18.860  1.00  0.00     0.019 A 
HETATM    3  C   LIG     1      16.222  35.239  20.118  1.00  0.00    -0.025 A 
HETATM    4  C   LIG     1      16.883  36.472  20.220  1.00  0.00     0.024 A 
HETATM    5  C   LIG     1      17.173  37.018  21.480  1.00  0.00    -0.025 A 
HETATM    6  C   LIG     1      17.834  38.251  21.588  1.00  0.00     0.012 A 
HETATM    7  C   LIG     1      18.121  38.787  22.847  1.00  0.00     0.001 A 
HETATM    8  C   LIG     1      17.752  38.096  24.005  1.00  0.00     0.001 A 
HETATM    9  C   LIG     1      17.093  36.868  23.911  1.00  0.00     0.012 A 
HETATM   10  C   LIG     1      16.799  36.318  22.652  1.00  0.00    -0.025 A 
HETATM   11  C   LIG     1      16.139  35.085  22.549  1.00  0.00     0.024 A 
HETATM   12  C   LIG     1      15.848  34.542  21.288  1.00  0.00    -0.025 A 
HETATM   13  C   LIG     1      15.188  33.311  21.180  1.00  0.00     0.013 A 
HETATM   14  C   LIG     1      14.900  32.771  19.924  1.00  0.00     0.008 A 
ENDROOT
BRANCH   1  15
HETATM   15  C   LIG     1      14.986  32.929  17.353  1.00  0.00     0.034 C 
HETATM   16  C   LIG     1      14.053  31.719  17.280  1.00  0.00     0.010 C 
ENDBRANCH   1  15
TORSDOF 1
ENDMDL
MODEL 6
REMARK VINA RESULT:      -6.8      0.858      1.148
REMARK  1 active torsions:
REMARK  status: ('A' for Active; 'I' for Inactive)
REMARK    1  A    between atoms: C_2  and  C_3 
ROOT
HETATM    1  C   LIG     1      17.152  36.367  23.580  1.00  0.00    -0.058 A 
HETATM    2  C   LIG     1      16.594  35.145  23.166  1.00  0.00     0.019 A 
HETATM    3  C   LIG     1      16.300  34.908  21.815  1.00  0.00    -0.025 A 
HETATM    4  C   LIG     1      15.743  33.685  21.412  1.00  0.00     0.024 A 
HETATM    5  C   LIG     1      15.449  33.452  20.060  1.00  0.00    -0.025 A 
HETATM    6  C   LIG     1      14.892  32.230  19.651  1.00  0.00     0.012 A 
HETATM    7  C   LIG     1      14.603  32.006  18.302  1.00  0.00     0.001 A 
HETATM    8  C   LIG     1      14.868  32.997  17.352  1.00  0.00     0.001 A 
HETATM    9  C   LIG     1      15.422  34.218  17.747  1.00  0.00     0.012 A 
HETATM   10  C   LIG     1      15.717  34.457  19.098  1.00  0.00    -0.025 A 
HETATM   11  C   LIG     1      16.274  35.678  19.502  1.00  0.00     0.024 A 
HETATM   12  C   LIG     1      16.567  35.910  20.855  1.00  0.00    -0.025 A 
HETATM   13  C   LIG     1      17.123  37.130  21.263  1.00  0.00     0.013 A 
HETATM   14  C   LIG     1      17.413  37.358  22.611  1.00  0.00     0.008 A 
ENDROOT
BRANCH   1  15
HETATM   15  C   LIG     1      17.443  36.548  25.057  1.00  0.00     0.034 C 
HETATM   16  C   LIG     1      17.431  37.993  25.561  1.00  0.00     0.010 C 
ENDBRANCH   1  15
TORSDOF 1
ENDMDL
MODEL 7
REMARK VINA RESULT:      -6.7      1.274      2.861
REMARK  1 active torsions:
REMARK  status: ('A' for Active; 'I' for Inactive)
REMARK    1  A    between atoms: C_2  and  C_3 
ROOT
HETATM    1  C   LIG     1      17.383  37.333  22.344  1.00  0.00    -0.058 A 
HETATM    2  C   LIG     1      17.060  37.014  21.014  1.00  0.00     0.019 A 
HETATM    3  C   LIG     1      16.497  35.770  20.688  1.00  0.00    -0.025 A 
HETATM    4  C   LIG     1      16.177  35.462  19.357  1.00  0.00     0.024 A 
HETATM    5  C   LIG     1      15.616  34.217  19.034  1.00  0.00    -0.025 A 
HETATM    6  C   LIG     1      15.294  33.904  17.704  1.00  0.00     0.012 A 
HETATM    7  C   LIG     1      14.734  32.661  17.391  1.00  0.00     0.001 A 
HETATM    8  C   LIG     1      14.491  31.726  18.401  1.00  0.00     0.001 A 
HETATM    9  C   LIG     1      14.807  32.026  19.729  1.00  0.00     0.012 A 
HETATM   10  C   LIG     1      15.370  33.270  20.057  1.00  0.00    -0.025 A 
HETATM   11  C   LIG     1      15.689  33.579  21.387  1.00  0.00     0.024 A 
HETATM   12  C   LIG     1      16.252  34.825  21.708  1.00  0.00    -0.025 A 
HETATM   13  C   LIG     1      16.573  35.138  23.035  1.00  0.00     0.013 A 
HETATM   14  C   LIG     1      17.133  36.378  23.353  1.00  0.00     0.008 A 
ENDROOT
BRANCH   1  15
HETATM   15  C   LIG     1      17.987  38.697  22.618  1.00  0.00     0.034 C 
HETATM   16  C   LIG     1      18.629  39.389  21.413  1.00  0.00     0.010 C 
ENDBRANCH   1  15
TORSDOF 1
ENDMDL
MODEL 8
REMARK VINA RESULT:      -6.5      7.133      9.087
REMARK  1 active torsions:
REMARK  status: ('A' for Active; 'I' for Inactive)
REMARK    1  A    between atoms: C_2  and  C_3 
ROOT
HETATM    1  C   LIG     1      18.451  33.607  12.694  1.00  0.00    -0.058 A 
HETATM    2  C   LIG     1      17.519  32.557  12.629  1.00  0.00     0.019 A 
HETATM    3  C   LIG     1      16.611  32.334  13.676  1.00  0.00    -0.025 A 
HETATM    4  C   LIG     1      15.685  31.283  13.602  1.00  0.00     0.024 A 
HETATM    5  C   LIG     1      14.780  31.062  14.651  1.00  0.00    -0.025 A 
HETATM    6  C   LIG     1      13.851  30.012  14.582  1.00  0.00     0.012 A 
HETATM    7  C   LIG     1      12.951  29.799  15.631  1.00  0.00     0.001 A 
HETATM    8  C   LIG     1      12.972  30.632  16.754  1.00  0.00     0.001 A 
HETATM    9  C   LIG     1      13.892  31.680  16.834  1.00  0.00     0.012 A 
HETATM   10  C   LIG     1      14.801  31.905  15.788  1.00  0.00    -0.025 A 
HETATM   11  C   LIG     1      15.727  32.956  15.861  1.00  0.00     0.024 A 
HETATM   12  C   LIG     1      16.632  33.175  14.811  1.00  0.00    -0.025 A 
HETATM   13  C   LIG     1      17.559  34.223  14.880  1.00  0.00     0.013 A 
HETATM   14  C   LIG     1      18.460  34.439  13.834  1.00  0.00     0.008 A 
ENDROOT
BRANCH   1  15
HETATM   15  C   LIG     1      19.398  33.785  11.523  1.00  0.00     0.034 C 
HETATM   16  C   LIG     1      20.871  33.980  11.890  1.00  0.00     0.010 C 
ENDBRANCH   1  15
TORSDOF 1
ENDMDL
MODEL 9
REMARK VINA RESULT:      -6.4     16.267     18.430
REMARK  1 active torsions:
REMARK  status: ('A' for Active; 'I' for Inactive)
REMARK    1  A    between atoms: C_2  and  C_3 
ROOT
HETATM    1  C   LIG     1       2.746  39.668  28.979  1.00  0.00    -0.058 A 
HETATM    2  C   LIG     1       3.044  40.915  29.553  1.00  0.00     0.019 A 
HETATM    3  C   LIG     1       3.230  41.045  30.938  1.00  0.00    -0.025 A 
HETATM    4  C   LIG     1       3.527  42.295  31.501  1.00  0.00     0.024 A 
HETATM    5  C   LIG     1       3.712  42.422  32.886  1.00  0.00    -0.025 A 
HETATM    6  C   LIG     1       4.009  43.670  33.455  1.00  0.00     0.012 A 
HETATM    7  C   LIG     1       4.193  43.787  34.836  1.00  0.00     0.001 A 
HETATM    8  C   LIG     1       4.082  42.661  35.658  1.00  0.00     0.001 A 
HETATM    9  C   LIG     1       3.786  41.413  35.103  1.00  0.00     0.012 A 
HETATM   10  C   LIG     1       3.600  41.281  33.718  1.00  0.00    -0.025 A 
HETATM   11  C   LIG     1       3.304  40.032  33.154  1.00  0.00     0.024 A 
HETATM   12  C   LIG     1       3.118  39.907  31.768  1.00  0.00    -0.025 A 
HETATM   13  C   LIG     1       2.822  38.662  31.200  1.00  0.00     0.013 A 
HETATM   14  C   LIG     1       2.637  38.540  29.820  1.00  0.00     0.008 A 
ENDROOT
BRANCH   1  15
HETATM   15  C   LIG     1       2.560  39.607  27.475  1.00  0.00     0.034 C 
HETATM   16  C   LIG     1       3.525  38.686  26.726  1.00  0.00     0.010 C 
ENDBRANCH   1  15
TORSDOF 1
ENDMDL
MODEL 10
REMARK VINA RESULT:      -6.0      2.706      5.762
REMARK  1 active torsions:
REMARK  status: ('A' for Active; 'I' for Inactive)
REMARK    1  A    between atoms: C_2  and  C_3 
ROOT
HETATM    1  C   LIG     1      15.358  33.898  20.428  1.00  0.00    -0.058 A 
HETATM    2  C   LIG     1      15.747  34.089  19.091  1.00  0.00     0.019 A 
HETATM    3  C   LIG     1      15.434  33.138  18.107  1.00  0.00    -0.025 A 
HETATM    4  C   LIG     1      15.826  33.337  16.775  1.00  0.00     0.024 A 
HETATM    5  C   LIG     1      15.513  32.384  15.794  1.00  0.00    -0.025 A 
HETATM    6  C   LIG     1      15.903  32.579  14.460  1.00  0.00     0.012 A 
HETATM    7  C   LIG     1      15.585  31.624  13.489  1.00  0.00     0.001 A 
HETATM    8  C   LIG     1      14.878  30.471  13.842  1.00  0.00     0.001 A 
HETATM    9  C   LIG     1      14.484  30.266  15.167  1.00  0.00     0.012 A 
HETATM   10  C   LIG     1      14.796  31.216  16.152  1.00  0.00    -0.025 A 
HETATM   11  C   LIG     1      14.404  31.018  17.484  1.00  0.00     0.024 A 
HETATM   12  C   LIG     1      14.719  31.972  18.464  1.00  0.00    -0.025 A 
HETATM   13  C   LIG     1      14.330  31.779  19.795  1.00  0.00     0.013 A 
HETATM   14  C   LIG     1      14.645  32.730  20.769  1.00  0.00     0.008 A 
ENDROOT
BRANCH   1  15
HETATM   15  C   LIG     1      15.732  34.971  21.433  1.00  0.00     0.034 C 
HETATM   16  C   LIG     1      17.003  35.761  21.114  1.00  0.00     0.010 C 
ENDBRANCH   1  15
TORSDOF 1
ENDMDL
MODEL 11
REMARK VINA RESULT:      -5.8     14.398     15.898
REMARK  1 active torsions:
REMARK  status: ('A' for Active; 'I' for Inactive)
REMARK    1  A    between atoms: C_2  and  C_3 
ROOT
HETATM    1  C   LIG     1      24.473  22.545  20.392  1.00  0.00    -0.058 A 
HETATM    2  C   LIG     1      25.081  23.808  20.484  1.00  0.00     0.019 A 
HETATM    3  C   LIG     1      26.038  24.218  19.542  1.00  0.00    -0.025 A 
HETATM    4  C   LIG     1      26.640  25.481  19.642  1.00  0.00     0.024 A 
HETATM    5  C   LIG     1      27.596  25.887  18.700  1.00  0.00    -0.025 A 
HETATM    6  C   LIG     1      28.201  27.150  18.796  1.00  0.00     0.012 A 
HETATM    7  C   LIG     1      29.153  27.546  17.851  1.00  0.00     0.001 A 
HETATM    8  C   LIG     1      29.506  26.688  16.806  1.00  0.00     0.001 A 
HETATM    9  C   LIG     1      28.911  25.428  16.700  1.00  0.00     0.012 A 
HETATM   10  C   LIG     1      27.954  25.017  17.642  1.00  0.00    -0.025 A 
HETATM   11  C   LIG     1      27.351  23.755  17.541  1.00  0.00     0.024 A 
HETATM   12  C   LIG     1      26.395  23.350  18.486  1.00  0.00    -0.025 A 
HETATM   13  C   LIG     1      25.791  22.090  18.391  1.00  0.00     0.013 A 
HETATM   14  C   LIG     1      24.840  21.689  19.332  1.00  0.00     0.008 A 
ENDROOT
BRANCH   1  15
HETATM   15  C   LIG     1      23.448  22.175  21.447  1.00  0.00     0.034 C 
HETATM   16  C   LIG     1      22.065  22.808  21.275  1.00  0.00     0.010 C 
ENDBRANCH   1  15
TORSDOF 1
ENDMDL
MODEL 12
REMARK VINA RESULT:      -5.5     16.326     18.517
REMARK  1 active torsions:
REMARK  status: ('A' for Active; 'I' for Inactive)
REMARK    1  A    between atoms: C_2  and  C_3 
ROOT
HETATM    1  C   LIG     1      28.231  27.782  31.388  1.00  0.00    -0.058 A 
HETATM    2  C   LIG     1      28.789  28.738  32.253  1.00  0.00     0.019 A 
HETATM    3  C   LIG     1      28.103  29.156  33.404  1.00  0.00    -0.025 A 
HETATM    4  C   LIG     1      28.669  30.111  34.261  1.00  0.00     0.024 A 
HETATM    5  C   LIG     1      27.980  30.527  35.410  1.00  0.00    -0.025 A 
HETATM    6  C   LIG     1      28.541  31.483  36.272  1.00  0.00     0.012 A 
HETATM    7  C   LIG     1      27.848  31.891  37.415  1.00  0.00     0.001 A 
HETATM    8  C   LIG     1      26.593  31.350  37.707  1.00  0.00     0.001 A 
HETATM    9  C   LIG     1      26.023  30.398  36.857  1.00  0.00     0.012 A 
HETATM   10  C   LIG     1      26.708  29.979  35.706  1.00  0.00    -0.025 A 
HETATM   11  C   LIG     1      26.144  29.024  34.848  1.00  0.00     0.024 A 
HETATM   12  C   LIG     1      26.834  28.609  33.698  1.00  0.00    -0.025 A 
HETATM   13  C   LIG     1      26.274  27.655  32.839  1.00  0.00     0.013 A 
HETATM   14  C   LIG     1      26.963  27.244  31.695  1.00  0.00     0.008 A 
ENDROOT
BRANCH   1  15
HETATM   15  C   LIG     1      29.033  27.380  30.165  1.00  0.00     0.034 C 
HETATM   16  C   LIG     1      28.984  28.361  28.992  1.00  0.00     0.010 C 
ENDBRANCH   1  15
TORSDOF 1
ENDMDL
MODEL 13
REMARK VINA RESULT:      -5.4     16.802     19.894
REMARK  1 active torsions:
REMARK  status: ('A' for Active; 'I' for Inactive)
REMARK    1  A    between atoms: C_2  and  C_3 
ROOT
HETATM    1  C   LIG     1      19.808  21.055  31.702  1.00  0.00    -0.058 A 
HETATM    2  C   LIG     1      20.564  20.526  32.762  1.00  0.00     0.019 A 
HETATM    3  C   LIG     1      20.960  21.335  33.838  1.00  0.00    -0.025 A 
HETATM    4  C   LIG     1      21.715  20.799  34.891  1.00  0.00     0.024 A 
HETATM    5  C   LIG     1      22.110  21.610  35.965  1.00  0.00    -0.025 A 
HETATM    6  C   LIG     1      22.866  21.078  37.021  1.00  0.00     0.012 A 
HETATM    7  C   LIG     1      23.255  21.895  38.088  1.00  0.00     0.001 A 
HETATM    8  C   LIG     1      22.891  23.244  38.109  1.00  0.00     0.001 A 
HETATM    9  C   LIG     1      22.139  23.786  37.063  1.00  0.00     0.012 A 
HETATM   10  C   LIG     1      21.743  22.978  35.986  1.00  0.00    -0.025 A 
HETATM   11  C   LIG     1      20.987  23.513  34.933  1.00  0.00     0.024 A 
HETATM   12  C   LIG     1      20.594  22.700  33.859  1.00  0.00    -0.025 A 
HETATM   13  C   LIG     1      19.839  23.230  32.804  1.00  0.00     0.013 A 
HETATM   14  C   LIG     1      19.449  22.419  31.736  1.00  0.00     0.008 A 
ENDROOT
BRANCH   1  15
HETATM   15  C   LIG     1      19.417  20.117  30.575  1.00  0.00     0.034 C 
HETATM   16  C   LIG     1      19.286  20.764  29.195  1.00  0.00     0.010 C 
ENDBRANCH   1  15
TORSDOF 1
ENDMDL
MODEL 14
REMARK VINA RESULT:      -5.4     15.273     15.697
REMARK  1 active torsions:
REMARK  status: ('A' for Active; 'I' for Inactive)
REMARK    1  A    between atoms: C_2  and  C_3 
ROOT
HETATM    1  C   LIG     1      28.348  26.155  18.743  1.00  0.00    -0.058 A 
HETATM    2  C   LIG     1      27.388  25.359  18.096  1.00  0.00     0.019 A 
HETATM    3  C   LIG     1      26.586  24.466  18.823  1.00  0.00    -0.025 A 
HETATM    4  C   LIG     1      25.629  23.675  18.169  1.00  0.00     0.024 A 
HETATM    5  C   LIG     1      24.830  22.782  18.898  1.00  0.00    -0.025 A 
HETATM    6  C   LIG     1      23.871  21.989  18.248  1.00  0.00     0.012 A 
HETATM    7  C   LIG     1      23.078  21.102  18.983  1.00  0.00     0.001 A 
HETATM    8  C   LIG     1      23.235  21.001  20.368  1.00  0.00     0.001 A 
HETATM    9  C   LIG     1      24.186  21.785  21.026  1.00  0.00     0.012 A 
HETATM   10  C   LIG     1      24.989  22.680  20.301  1.00  0.00    -0.025 A 
HETATM   11  C   LIG     1      25.945  23.471  20.954  1.00  0.00     0.024 A 
HETATM   12  C   LIG     1      26.745  24.363  20.223  1.00  0.00    -0.025 A 
HETATM   13  C   LIG     1      27.701  25.155  20.871  1.00  0.00     0.013 A 
HETATM   14  C   LIG     1      28.496  26.043  20.141  1.00  0.00     0.008 A 
ENDROOT
BRANCH   1  15
HETATM   15  C   LIG     1      29.176  27.098  17.890  1.00  0.00     0.034 C 
HETATM   16  C   LIG     1      29.466  26.618  16.466  1.00  0.00     0.010 C 
ENDBRANCH   1  15
TORSDOF 1
ENDMDL
MODEL 15
REMARK VINA RESULT:      -5.3     14.667     16.302
REMARK  1 active torsions:
REMARK  status: ('A' for Active; 'I' for Inactive)
REMARK    1  A    between atoms: C_2  and  C_3 
ROOT
HETATM    1  C   LIG     1      25.436  23.472  18.948  1.00  0.00    -0.058 A 
HETATM    2  C   LIG     1      25.479  23.483  20.353  1.00  0.00     0.019 A 
HETATM    3  C   LIG     1      24.750  22.547  21.103  1.00  0.00    -0.025 A 
HETATM    4  C   LIG     1      24.799  22.567  22.505  1.00  0.00     0.024 A 
HETATM    5  C   LIG     1      24.069  21.630  23.252  1.00  0.00    -0.025 A 
HETATM    6  C   LIG     1      24.114  21.646  24.655  1.00  0.00     0.012 A 
HETATM    7  C   LIG     1      23.384  20.708  25.392  1.00  0.00     0.001 A 
HETATM    8  C   LIG     1      22.606  19.750  24.735  1.00  0.00     0.001 A 
HETATM    9  C   LIG     1      22.552  19.725  23.339  1.00  0.00     0.012 A 
HETATM   10  C   LIG     1      23.280  20.661  22.587  1.00  0.00    -0.025 A 
HETATM   11  C   LIG     1      23.233  20.641  21.186  1.00  0.00     0.024 A 
HETATM   12  C   LIG     1      23.963  21.579  20.440  1.00  0.00    -0.025 A 
HETATM   13  C   LIG     1      23.918  21.564  19.040  1.00  0.00     0.013 A 
HETATM   14  C   LIG     1      24.646  22.499  18.299  1.00  0.00     0.008 A 
ENDROOT
BRANCH   1  15
HETATM   15  C   LIG     1      26.251  24.514  18.207  1.00  0.00     0.034 C 
HETATM   16  C   LIG     1      26.688  25.723  19.037  1.00  0.00     0.010 C 
ENDBRANCH   1  15
TORSDOF 1
ENDMDL
MODEL 16
REMARK VINA RESULT:      -5.2      6.592      9.061
REMARK  1 active torsions:
REMARK  status: ('A' for Active; 'I' for Inactive)
REMARK    1  A    between atoms: C_2  and  C_3 
ROOT
HETATM    1  C   LIG     1      19.087  33.783  13.027  1.00  0.00    -0.058 A 
HETATM    2  C   LIG     1      18.404  33.850  14.254  1.00  0.00     0.019 A 
HETATM    3  C   LIG     1      17.269  33.059  14.491  1.00  0.00    -0.025 A 
HETATM    4  C   LIG     1      16.595  33.131  15.719  1.00  0.00     0.024 A 
HETATM    5  C   LIG     1      15.460  32.340  15.952  1.00  0.00    -0.025 A 
HETATM    6  C   LIG     1      14.782  32.409  17.179  1.00  0.00     0.012 A 
HETATM    7  C   LIG     1      13.652  31.616  17.402  1.00  0.00     0.001 A 
HETATM    8  C   LIG     1      13.193  30.750  16.406  1.00  0.00     0.001 A 
HETATM    9  C   LIG     1      13.860  30.672  15.180  1.00  0.00     0.012 A 
HETATM   10  C   LIG     1      14.995  31.463  14.942  1.00  0.00    -0.025 A 
HETATM   11  C   LIG     1      15.670  31.390  13.715  1.00  0.00     0.024 A 
HETATM   12  C   LIG     1      16.805  32.183  13.484  1.00  0.00    -0.025 A 
HETATM   13  C   LIG     1      17.482  32.114  12.259  1.00  0.00     0.013 A 
HETATM   14  C   LIG     1      18.611  32.905  12.031  1.00  0.00     0.008 A 
ENDROOT
BRANCH   1  15
HETATM   15  C   LIG     1      20.305  34.668  12.847  1.00  0.00     0.034 C 
HETATM   16  C   LIG     1      21.297  34.215  11.773  1.00  0.00     0.010 C 
ENDBRANCH   1  15
TORSDOF 1
ENDMDL
MODEL 17
REMARK VINA RESULT:      -5.2     14.923     15.865
REMARK  1 active torsions:
REMARK  status: ('A' for Active; 'I' for Inactive)
REMARK    1  A    between atoms: C_2  and  C_3 
ROOT
HETATM    1  C   LIG     1      27.099  24.959  20.263  1.00  0.00    -0.058 A 
HETATM    2  C   LIG     1      26.559  23.810  20.863  1.00  0.00     0.019 A 
HETATM    3  C   LIG     1      25.680  22.973  20.157  1.00  0.00    -0.025 A 
HETATM    4  C   LIG     1      25.146  21.827  20.765  1.00  0.00     0.024 A 
HETATM    5  C   LIG     1      24.268  20.994  20.057  1.00  0.00    -0.025 A 
HETATM    6  C   LIG     1      23.731  19.846  20.660  1.00  0.00     0.012 A 
HETATM    7  C   LIG     1      22.856  19.021  19.946  1.00  0.00     0.001 A 
HETATM    8  C   LIG     1      22.513  19.334  18.628  1.00  0.00     0.001 A 
HETATM    9  C   LIG     1      23.041  20.474  18.016  1.00  0.00     0.012 A 
HETATM   10  C   LIG     1      23.920  21.312  18.721  1.00  0.00    -0.025 A 
HETATM   11  C   LIG     1      24.454  22.457  18.114  1.00  0.00     0.024 A 
HETATM   12  C   LIG     1      25.333  23.290  18.825  1.00  0.00    -0.025 A 
HETATM   13  C   LIG     1      25.869  24.436  18.223  1.00  0.00     0.013 A 
HETATM   14  C   LIG     1      26.743  25.263  18.932  1.00  0.00     0.008 A 
ENDROOT
BRANCH   1  15
HETATM   15  C   LIG     1      28.042  25.813  21.090  1.00  0.00     0.034 C 
HETATM   16  C   LIG     1      28.398  25.255  22.470  1.00  0.00     0.010 C 
ENDBRANCH   1  15
TORSDOF 1
ENDMDL
MODEL 18
REMARK VINA RESULT:      -5.1     15.148     15.680
REMARK  1 active torsions:
REMARK  status: ('A' for Active; 'I' for Inactive)
REMARK    1  A    between atoms: C_2  and  C_3 
ROOT
HETATM    1  C   LIG     1      27.796  25.438  19.257  1.00  0.00    -0.058 A 
HETATM    2  C   LIG     1      27.441  24.907  20.508  1.00  0.00     0.019 A 
HETATM    3  C   LIG     1      26.383  23.993  20.629  1.00  0.00    -0.025 A 
HETATM    4  C   LIG     1      26.035  23.469  21.882  1.00  0.00     0.024 A 
HETATM    5  C   LIG     1      24.977  22.556  22.000  1.00  0.00    -0.025 A 
HETATM    6  C   LIG     1      24.625  22.028  23.252  1.00  0.00     0.012 A 
HETATM    7  C   LIG     1      23.569  21.118  23.359  1.00  0.00     0.001 A 
HETATM    8  C   LIG     1      22.859  20.728  22.220  1.00  0.00     0.001 A 
HETATM    9  C   LIG     1      23.199  21.246  20.968  1.00  0.00     0.012 A 
HETATM   10  C   LIG     1      24.257  22.161  20.846  1.00  0.00    -0.025 A 
HETATM   11  C   LIG     1      24.606  22.685  19.593  1.00  0.00     0.024 A 
HETATM   12  C   LIG     1      25.665  23.599  19.477  1.00  0.00    -0.025 A 
HETATM   13  C   LIG     1      26.016  24.126  18.228  1.00  0.00     0.013 A 
HETATM   14  C   LIG     1      27.070  25.036  18.116  1.00  0.00     0.008 A 
ENDROOT
BRANCH   1  15
HETATM   15  C   LIG     1      28.951  26.420  19.207  1.00  0.00     0.034 C 
HETATM   16  C   LIG     1      28.828  27.531  18.162  1.00  0.00     0.010 C 
ENDBRANCH   1  15
TORSDOF 1
ENDMDL
MODEL 19
REMARK VINA RESULT:      -5.0     15.423     16.013
REMARK  1 active torsions:
REMARK  status: ('A' for Active; 'I' for Inactive)
REMARK    1  A    between atoms: C_2  and  C_3 
ROOT
HETATM    1  C   LIG     1      26.585  24.275  28.109  1.00  0.00    -0.058 A 
HETATM    2  C   LIG     1      25.714  23.175  28.048  1.00  0.00     0.019 A 
HETATM    3  C   LIG     1      25.210  22.722  26.819  1.00  0.00    -0.025 A 
HETATM    4  C   LIG     1      24.341  21.622  26.768  1.00  0.00     0.024 A 
HETATM    5  C   LIG     1      23.838  21.172  25.538  1.00  0.00    -0.025 A 
HETATM    6  C   LIG     1      22.968  20.072  25.482  1.00  0.00     0.012 A 
HETATM    7  C   LIG     1      22.472  19.630  24.251  1.00  0.00     0.001 A 
HETATM    8  C   LIG     1      22.842  20.281  23.071  1.00  0.00     0.001 A 
HETATM    9  C   LIG     1      23.707  21.377  23.113  1.00  0.00     0.012 A 
HETATM   10  C   LIG     1      24.212  21.832  24.342  1.00  0.00    -0.025 A 
HETATM   11  C   LIG     1      25.081  22.930  24.393  1.00  0.00     0.024 A 
HETATM   12  C   LIG     1      25.583  23.380  25.625  1.00  0.00    -0.025 A 
HETATM   13  C   LIG     1      26.451  24.477  25.681  1.00  0.00     0.013 A 
HETATM   14  C   LIG     1      26.949  24.923  26.909  1.00  0.00     0.008 A 
ENDROOT
BRANCH   1  15
HETATM   15  C   LIG     1      27.088  24.705  29.473  1.00  0.00     0.034 C 
HETATM   16  C   LIG     1      27.165  26.216  29.703  1.00  0.00     0.010 C 
ENDBRANCH   1  15
TORSDOF 1
ENDMDL
MODEL 20
REMARK VINA RESULT:      -4.9     15.242     16.822
REMARK  1 active torsions:
REMARK  status: ('A' for Active; 'I' for Inactive)
REMARK    1  A    between atoms: C_2  and  C_3 
ROOT
HETATM    1  C   LIG     1      23.651  21.738  20.629  1.00  0.00    -0.058 A 
HETATM    2  C   LIG     1      24.392  22.518  21.532  1.00  0.00     0.019 A 
HETATM    3  C   LIG     1      24.363  22.248  22.909  1.00  0.00    -0.025 A 
HETATM    4  C   LIG     1      25.107  23.033  23.803  1.00  0.00     0.024 A 
HETATM    5  C   LIG     1      25.075  22.761  25.179  1.00  0.00    -0.025 A 
HETATM    6  C   LIG     1      25.817  23.543  26.078  1.00  0.00     0.012 A 
HETATM    7  C   LIG     1      25.780  23.265  27.448  1.00  0.00     0.001 A 
HETATM    8  C   LIG     1      25.004  22.206  27.929  1.00  0.00     0.001 A 
HETATM    9  C   LIG     1      24.261  21.420  27.044  1.00  0.00     0.012 A 
HETATM   10  C   LIG     1      24.289  21.689  25.667  1.00  0.00    -0.025 A 
HETATM   11  C   LIG     1      23.547  20.905  24.772  1.00  0.00     0.024 A 
HETATM   12  C   LIG     1      23.579  21.178  23.396  1.00  0.00    -0.025 A 
HETATM   13  C   LIG     1      22.838  20.398  22.498  1.00  0.00     0.013 A 
HETATM   14  C   LIG     1      22.872  20.673  21.129  1.00  0.00     0.008 A 
ENDROOT
BRANCH   1  15
HETATM   15  C   LIG     1      23.734  22.090  19.156  1.00  0.00     0.034 C 
HETATM   16  C   LIG     1      22.864  21.243  18.224  1.00  0.00     0.010 C 
ENDBRANCH   1  15
TORSDOF 1
ENDMDL
