REMARK  1 active torsions:
REMARK  status: ('A' for Active; 'I' for Inactive)
REMARK    1  A    between atoms: C_2  and  C_3 
ROOT
HETATM    1  C   LIG     1      -2.495   0.050  -0.188  1.00  0.00    -0.058 A 
HETATM    2  C   LIG     1      -1.365   0.048  -1.023  1.00  0.00     0.019 A 
HETATM    3  C   LIG     1      -0.070   0.012  -0.483  1.00  0.00    -0.025 A 
HETATM    4  C   LIG     1       1.052   0.010  -1.325  1.00  0.00     0.024 A 
HETATM    5  C   LIG     1       2.345  -0.025  -0.782  1.00  0.00    -0.025 A 
HETATM    6  C   LIG     1       3.471  -0.027  -1.620  1.00  0.00     0.012 A 
HETATM    7  C   LIG     1       4.756  -0.063  -1.070  1.00  0.00     0.001 A 
HETATM    8  C   LIG     1       4.926  -0.098   0.317  1.00  0.00     0.001 A 
HETATM    9  C   LIG     1       3.813  -0.096   1.162  1.00  0.00     0.012 A 
HETATM   10  C   LIG     1       2.517  -0.060   0.623  1.00  0.00    -0.025 A 
HETATM   11  C   LIG     1       1.395  -0.059   1.464  1.00  0.00     0.024 A 
HETATM   12  C   LIG     1       0.102  -0.023   0.919  1.00  0.00    -0.025 A 
HETATM   13  C   LIG     1      -1.022  -0.021   1.755  1.00  0.00     0.013 A 
HETATM   14  C   LIG     1      -2.308   0.015   1.210  1.00  0.00     0.008 A 
ENDROOT
BRANCH   1  15
HETATM   15  C   LIG     1      -3.861   0.089  -0.846  1.00  0.00     0.034 C 
HETATM   16  C   LIG     1      -5.055   0.090   0.111  1.00  0.00     0.010 C 
ENDBRANCH   1  15
TORSDOF 1
