REMARK  2 active torsions:
REMARK  status: ('A' for Active; 'I' for Inactive)
REMARK    1  A    between atoms: C_2  and  C_3 
REMARK       I    between atoms: C_2  and  N_10 
REMARK    2  A    between atoms: N_10  and  C_11 
ROOT
HETATM    1  O   LIG     1       0.157  -0.848  -1.244  1.00  0.00    -0.267 OA
HETATM    2  C   LIG     1      -0.150   0.035  -0.397  1.00  0.00     0.265 C 
HETATM    3  N   LIG     1       0.884   0.760   0.288  1.00  0.00    -0.322 N 
HETATM    4  H   LIG     1       0.644   1.697   0.685  1.00  0.00     0.169 HD
ENDROOT
BRANCH   2   5
HETATM    5  C   LIG     1      -1.577   0.326  -0.105  1.00  0.00     0.097 C 
HETATM    6  C   LIG     1      -2.573   0.162  -1.007  1.00  0.00     0.064 C 
HETATM    7  O   LIG     1      -3.923   0.224  -0.616  1.00  0.00    -0.353 OA
HETATM    8  C   LIG     1      -2.307  -0.117  -2.458  1.00  0.00     0.078 C 
HETATM    9  C   LIG     1      -4.421   0.084   0.722  1.00  0.00     0.185 C 
HETATM   10  C   LIG     1      -3.331  -0.272   1.728  1.00  0.00     0.106 C 
HETATM   11  S   LIG     1      -1.982   0.920   1.544  1.00  0.00    -0.120 SA
ENDBRANCH   2   5
BRANCH   3  12
HETATM   12  C   LIG     1       2.258   0.340   0.342  1.00  0.00     0.035 A 
HETATM   13  C   LIG     1       3.273   1.308   0.410  1.00  0.00     0.029 A 
HETATM   14  C   LIG     1       4.615   0.923   0.487  1.00  0.00     0.002 A 
HETATM   15  C   LIG     1       4.955  -0.432   0.511  1.00  0.00     0.000 A 
HETATM   16  C   LIG     1       3.952  -1.403   0.467  1.00  0.00     0.002 A 
HETATM   17  C   LIG     1       2.608  -1.023   0.389  1.00  0.00     0.029 A 
ENDBRANCH   3  12
TORSDOF 2
