MODEL 1
REMARK VINA RESULT:      -6.5      0.000      0.000
REMARK  2 active torsions:
REMARK  status: ('A' for Active; 'I' for Inactive)
REMARK    1  A    between atoms: C_2  and  C_3 
REMARK       I    between atoms: C_2  and  N_10 
REMARK    2  A    between atoms: N_10  and  C_11 
ROOT
HETATM    1  O   LIG     1      17.796  35.683  21.017  1.00  0.00    -0.267 OA
HETATM    2  C   LIG     1      16.783  35.663  21.770  1.00  0.00     0.265 C 
HETATM    3  N   LIG     1      15.701  34.761  21.489  1.00  0.00    -0.322 N 
HETATM    4  H   LIG     1      15.071  34.491  22.279  1.00  0.00     0.169 HD
ENDROOT
BRANCH   2   5
HETATM    5  C   LIG     1      16.706  36.570  22.944  1.00  0.00     0.097 C 
HETATM    6  C   LIG     1      17.057  36.200  24.198  1.00  0.00     0.064 C 
HETATM    7  O   LIG     1      17.190  37.153  25.224  1.00  0.00    -0.353 OA
HETATM    8  C   LIG     1      17.345  34.773  24.566  1.00  0.00     0.078 C 
HETATM    9  C   LIG     1      17.355  38.567  25.046  1.00  0.00     0.185 C 
HETATM   10  C   LIG     1      17.500  38.969  23.582  1.00  0.00     0.106 C 
HETATM   11  S   LIG     1      16.121  38.247  22.659  1.00  0.00    -0.120 SA
ENDBRANCH   2   5
BRANCH   3  12
HETATM   12  C   LIG     1      15.513  34.101  20.225  1.00  0.00     0.035 A 
HETATM   13  C   LIG     1      15.306  32.712  20.196  1.00  0.00     0.029 A 
HETATM   14  C   LIG     1      15.097  32.052  18.981  1.00  0.00     0.002 A 
HETATM   15  C   LIG     1      15.080  32.775  17.786  1.00  0.00     0.000 A 
HETATM   16  C   LIG     1      15.263  34.159  17.805  1.00  0.00     0.002 A 
HETATM   17  C   LIG     1      15.472  34.824  19.018  1.00  0.00     0.029 A 
ENDBRANCH   3  12
TORSDOF 2
ENDMDL
MODEL 2
REMARK VINA RESULT:      -6.5      2.527      6.514
REMARK  2 active torsions:
REMARK  status: ('A' for Active; 'I' for Inactive)
REMARK    1  A    between atoms: C_2  and  C_3 
REMARK       I    between atoms: C_2  and  N_10 
REMARK    2  A    between atoms: N_10  and  C_11 
ROOT
HETATM    1  O   LIG     1      14.440  33.986  21.526  1.00  0.00    -0.267 OA
HETATM    2  C   LIG     1      15.427  33.984  20.741  1.00  0.00     0.265 C 
HETATM    3  N   LIG     1      16.664  34.593  21.144  1.00  0.00    -0.322 N 
HETATM    4  H   LIG     1      17.542  34.276  20.673  1.00  0.00     0.169 HD
ENDROOT
BRANCH   2   5
HETATM    5  C   LIG     1      15.314  33.355  19.399  1.00  0.00     0.097 C 
HETATM    6  C   LIG     1      14.960  32.063  19.207  1.00  0.00     0.064 C 
HETATM    7  O   LIG     1      14.639  31.582  17.925  1.00  0.00    -0.353 OA
HETATM    8  C   LIG     1      14.864  31.078  20.336  1.00  0.00     0.078 C 
HETATM    9  C   LIG     1      14.279  32.382  16.790  1.00  0.00     0.185 C 
HETATM   10  C   LIG     1      14.149  33.864  17.124  1.00  0.00     0.106 C 
HETATM   11  S   LIG     1      15.662  34.387  17.968  1.00  0.00    -0.120 SA
ENDBRANCH   2   5
BRANCH   3  12
HETATM   12  C   LIG     1      16.786  35.508  22.246  1.00  0.00     0.035 A 
HETATM   13  C   LIG     1      16.503  36.869  22.048  1.00  0.00     0.029 A 
HETATM   14  C   LIG     1      16.592  37.773  23.110  1.00  0.00     0.002 A 
HETATM   15  C   LIG     1      16.951  37.325  24.384  1.00  0.00     0.000 A 
HETATM   16  C   LIG     1      17.212  35.970  24.598  1.00  0.00     0.002 A 
HETATM   17  C   LIG     1      17.126  35.061  23.538  1.00  0.00     0.029 A 
ENDBRANCH   3  12
TORSDOF 2
ENDMDL
MODEL 3
REMARK VINA RESULT:      -6.2      8.277     10.381
REMARK  2 active torsions:
REMARK  status: ('A' for Active; 'I' for Inactive)
REMARK    1  A    between atoms: C_2  and  C_3 
REMARK       I    between atoms: C_2  and  N_10 
REMARK    2  A    between atoms: N_10  and  C_11 
ROOT
HETATM    1  O   LIG     1      18.568  33.132  14.104  1.00  0.00    -0.267 OA
HETATM    2  C   LIG     1      18.026  33.213  12.968  1.00  0.00     0.265 C 
HETATM    3  N   LIG     1      16.655  32.818  12.799  1.00  0.00    -0.322 N 
HETATM    4  H   LIG     1      16.126  33.218  11.991  1.00  0.00     0.169 HD
ENDROOT
BRANCH   2   5
HETATM    5  C   LIG     1      18.801  33.713  11.804  1.00  0.00     0.097 C 
HETATM    6  C   LIG     1      18.500  34.854  11.139  1.00  0.00     0.064 C 
HETATM    7  O   LIG     1      19.393  35.405  10.203  1.00  0.00    -0.353 OA
HETATM    8  C   LIG     1      17.222  35.607  11.372  1.00  0.00     0.078 C 
HETATM    9  C   LIG     1      20.793  35.110  10.097  1.00  0.00     0.185 C 
HETATM   10  C   LIG     1      21.293  34.194  11.210  1.00  0.00     0.106 C 
HETATM   11  S   LIG     1      20.217  32.740  11.270  1.00  0.00    -0.120 SA
ENDBRANCH   2   5
BRANCH   3  12
HETATM   12  C   LIG     1      15.928  32.018  13.747  1.00  0.00     0.035 A 
HETATM   13  C   LIG     1      15.681  32.525  15.033  1.00  0.00     0.029 A 
HETATM   14  C   LIG     1      14.956  31.775  15.963  1.00  0.00     0.002 A 
HETATM   15  C   LIG     1      14.459  30.517  15.614  1.00  0.00     0.000 A 
HETATM   16  C   LIG     1      14.679  30.012  14.330  1.00  0.00     0.002 A 
HETATM   17  C   LIG     1      15.404  30.759  13.396  1.00  0.00     0.029 A 
ENDBRANCH   3  12
TORSDOF 2
ENDMDL
MODEL 4
REMARK VINA RESULT:      -6.0      4.311      7.942
REMARK  2 active torsions:
REMARK  status: ('A' for Active; 'I' for Inactive)
REMARK    1  A    between atoms: C_2  and  C_3 
REMARK       I    between atoms: C_2  and  N_10 
REMARK    2  A    between atoms: N_10  and  C_11 
ROOT
HETATM    1  O   LIG     1      14.566  34.287  16.799  1.00  0.00    -0.267 OA
HETATM    2  C   LIG     1      15.065  33.159  17.063  1.00  0.00     0.265 C 
HETATM    3  N   LIG     1      15.386  32.817  18.421  1.00  0.00    -0.322 N 
HETATM    4  H   LIG     1      15.442  31.804  18.671  1.00  0.00     0.169 HD
ENDROOT
BRANCH   2   5
HETATM    5  C   LIG     1      15.324  32.183  15.973  1.00  0.00     0.097 C 
HETATM    6  C   LIG     1      14.434  31.239  15.588  1.00  0.00     0.064 C 
HETATM    7  O   LIG     1      14.626  30.499  14.407  1.00  0.00    -0.353 OA
HETATM    8  C   LIG     1      13.188  30.940  16.372  1.00  0.00     0.078 C 
HETATM    9  C   LIG     1      15.489  30.856  13.319  1.00  0.00     0.185 C 
HETATM   10  C   LIG     1      16.130  32.230  13.494  1.00  0.00     0.106 C 
HETATM   11  S   LIG     1      16.908  32.285  15.127  1.00  0.00    -0.120 SA
ENDBRANCH   2   5
BRANCH   3  12
HETATM   12  C   LIG     1      15.499  33.778  19.485  1.00  0.00     0.035 A 
HETATM   13  C   LIG     1      14.946  33.484  20.741  1.00  0.00     0.029 A 
HETATM   14  C   LIG     1      15.064  34.393  21.797  1.00  0.00     0.002 A 
HETATM   15  C   LIG     1      15.748  35.597  21.612  1.00  0.00     0.000 A 
HETATM   16  C   LIG     1      16.322  35.889  20.373  1.00  0.00     0.002 A 
HETATM   17  C   LIG     1      16.206  34.984  19.313  1.00  0.00     0.029 A 
ENDBRANCH   3  12
TORSDOF 2
ENDMDL
MODEL 5
REMARK VINA RESULT:      -5.9      6.574      9.067
REMARK  2 active torsions:
REMARK  status: ('A' for Active; 'I' for Inactive)
REMARK    1  A    between atoms: C_2  and  C_3 
REMARK       I    between atoms: C_2  and  N_10 
REMARK    2  A    between atoms: N_10  and  C_11 
ROOT
HETATM    1  O   LIG     1      18.308  32.578  15.195  1.00  0.00    -0.267 OA
HETATM    2  C   LIG     1      17.218  32.774  14.589  1.00  0.00     0.265 C 
HETATM    3  N   LIG     1      17.229  33.206  13.219  1.00  0.00    -0.322 N 
HETATM    4  H   LIG     1      16.381  33.013  12.638  1.00  0.00     0.169 HD
ENDROOT
BRANCH   2   5
HETATM    5  C   LIG     1      15.926  32.560  15.289  1.00  0.00     0.097 C 
HETATM    6  C   LIG     1      15.131  31.485  15.078  1.00  0.00     0.064 C 
HETATM    7  O   LIG     1      14.043  31.210  15.927  1.00  0.00    -0.353 OA
HETATM    8  C   LIG     1      15.368  30.516  13.956  1.00  0.00     0.078 C 
HETATM    9  C   LIG     1      13.852  31.732  17.249  1.00  0.00     0.185 C 
HETATM   10  C   LIG     1      15.036  32.560  17.738  1.00  0.00     0.106 C 
HETATM   11  S   LIG     1      15.412  33.805  16.481  1.00  0.00    -0.120 SA
ENDBRANCH   2   5
BRANCH   3  12
HETATM   12  C   LIG     1      18.381  33.762  12.562  1.00  0.00     0.035 A 
HETATM   13  C   LIG     1      19.656  33.558  13.114  1.00  0.00     0.029 A 
HETATM   14  C   LIG     1      20.792  34.070  12.480  1.00  0.00     0.002 A 
HETATM   15  C   LIG     1      20.667  34.777  11.282  1.00  0.00     0.000 A 
HETATM   16  C   LIG     1      19.406  34.966  10.712  1.00  0.00     0.002 A 
HETATM   17  C   LIG     1      18.266  34.457  11.343  1.00  0.00     0.029 A 
ENDBRANCH   3  12
TORSDOF 2
ENDMDL
MODEL 6
REMARK VINA RESULT:      -5.5      3.408      6.775
REMARK  2 active torsions:
REMARK  status: ('A' for Active; 'I' for Inactive)
REMARK    1  A    between atoms: C_2  and  C_3 
REMARK       I    between atoms: C_2  and  N_10 
REMARK    2  A    between atoms: N_10  and  C_11 
ROOT
HETATM    1  O   LIG     1      15.954  35.074  17.986  1.00  0.00    -0.267 OA
HETATM    2  C   LIG     1      15.404  34.180  18.687  1.00  0.00     0.265 C 
HETATM    3  N   LIG     1      15.137  34.423  20.077  1.00  0.00    -0.322 N 
HETATM    4  H   LIG     1      14.384  33.862  20.536  1.00  0.00     0.169 HD
ENDROOT
BRANCH   2   5
HETATM    5  C   LIG     1      15.033  32.877  18.078  1.00  0.00     0.097 C 
HETATM    6  C   LIG     1      14.599  31.814  18.795  1.00  0.00     0.064 C 
HETATM    7  O   LIG     1      14.040  30.690  18.159  1.00  0.00    -0.353 OA
HETATM    8  C   LIG     1      14.662  31.774  20.294  1.00  0.00     0.078 C 
HETATM    9  C   LIG     1      13.520  30.648  16.823  1.00  0.00     0.185 C 
HETATM   10  C   LIG     1      13.511  32.015  16.145  1.00  0.00     0.106 C 
HETATM   11  S   LIG     1      15.168  32.728  16.290  1.00  0.00    -0.120 SA
ENDBRANCH   2   5
BRANCH   3  12
HETATM   12  C   LIG     1      15.745  35.481  20.838  1.00  0.00     0.035 A 
HETATM   13  C   LIG     1      17.102  35.782  20.640  1.00  0.00     0.029 A 
HETATM   14  C   LIG     1      17.709  36.821  21.351  1.00  0.00     0.002 A 
HETATM   15  C   LIG     1      16.962  37.580  22.256  1.00  0.00     0.000 A 
HETATM   16  C   LIG     1      15.606  37.305  22.444  1.00  0.00     0.002 A 
HETATM   17  C   LIG     1      14.994  36.265  21.735  1.00  0.00     0.029 A 
ENDBRANCH   3  12
TORSDOF 2
ENDMDL
MODEL 7
REMARK VINA RESULT:      -5.5      8.500     12.179
REMARK  2 active torsions:
REMARK  status: ('A' for Active; 'I' for Inactive)
REMARK    1  A    between atoms: C_2  and  C_3 
REMARK       I    between atoms: C_2  and  N_10 
REMARK    2  A    between atoms: N_10  and  C_11 
ROOT
HETATM    1  O   LIG     1      16.297  28.302  14.462  1.00  0.00    -0.267 OA
HETATM    2  C   LIG     1      15.340  28.395  13.645  1.00  0.00     0.265 C 
HETATM    3  N   LIG     1      14.546  29.592  13.606  1.00  0.00    -0.322 N 
HETATM    4  H   LIG     1      14.026  29.806  12.724  1.00  0.00     0.169 HD
ENDROOT
BRANCH   2   5
HETATM    5  C   LIG     1      15.032  27.271  12.724  1.00  0.00     0.097 C 
HETATM    6  C   LIG     1      13.787  26.770  12.547  1.00  0.00     0.064 C 
HETATM    7  O   LIG     1      13.509  25.872  11.500  1.00  0.00    -0.353 OA
HETATM    8  C   LIG     1      12.633  27.152  13.427  1.00  0.00     0.078 C 
HETATM    9  C   LIG     1      14.311  25.670  10.327  1.00  0.00     0.185 C 
HETATM   10  C   LIG     1      15.489  26.634  10.238  1.00  0.00     0.106 C 
HETATM   11  S   LIG     1      16.400  26.557  11.800  1.00  0.00    -0.120 SA
ENDBRANCH   2   5
BRANCH   3  12
HETATM   12  C   LIG     1      14.530  30.579  14.651  1.00  0.00     0.035 A 
HETATM   13  C   LIG     1      13.515  30.540  15.621  1.00  0.00     0.029 A 
HETATM   14  C   LIG     1      13.493  31.476  16.660  1.00  0.00     0.002 A 
HETATM   15  C   LIG     1      14.491  32.449  16.749  1.00  0.00     0.000 A 
HETATM   16  C   LIG     1      15.518  32.482  15.802  1.00  0.00     0.002 A 
HETATM   17  C   LIG     1      15.544  31.549  14.760  1.00  0.00     0.029 A 
ENDBRANCH   3  12
TORSDOF 2
ENDMDL
MODEL 8
REMARK VINA RESULT:      -5.5      3.858      7.520
REMARK  2 active torsions:
REMARK  status: ('A' for Active; 'I' for Inactive)
REMARK    1  A    between atoms: C_2  and  C_3 
REMARK       I    between atoms: C_2  and  N_10 
REMARK    2  A    between atoms: N_10  and  C_11 
ROOT
HETATM    1  O   LIG     1      16.083  34.886  16.982  1.00  0.00    -0.267 OA
HETATM    2  C   LIG     1      15.386  33.926  17.412  1.00  0.00     0.265 C 
HETATM    3  N   LIG     1      15.077  33.836  18.812  1.00  0.00    -0.322 N 
HETATM    4  H   LIG     1      14.235  33.284  19.093  1.00  0.00     0.169 HD
ENDROOT
BRANCH   2   5
HETATM    5  C   LIG     1      14.887  32.888  16.474  1.00  0.00     0.097 C 
HETATM    6  C   LIG     1      15.653  32.314  15.517  1.00  0.00     0.064 C 
HETATM    7  O   LIG     1      15.208  31.178  14.816  1.00  0.00    -0.353 OA
HETATM    8  C   LIG     1      17.019  32.828  15.164  1.00  0.00     0.078 C 
HETATM    9  C   LIG     1      14.158  30.291  15.227  1.00  0.00     0.185 C 
HETATM   10  C   LIG     1      13.608  30.621  16.611  1.00  0.00     0.106 C 
HETATM   11  S   LIG     1      13.170  32.376  16.642  1.00  0.00    -0.120 SA
ENDBRANCH   2   5
BRANCH   3  12
HETATM   12  C   LIG     1      15.772  34.568  19.836  1.00  0.00     0.035 A 
HETATM   13  C   LIG     1      15.547  34.249  21.185  1.00  0.00     0.029 A 
HETATM   14  C   LIG     1      16.228  34.931  22.197  1.00  0.00     0.002 A 
HETATM   15  C   LIG     1      17.151  35.928  21.872  1.00  0.00     0.000 A 
HETATM   16  C   LIG     1      17.400  36.238  20.533  1.00  0.00     0.002 A 
HETATM   17  C   LIG     1      16.720  35.559  19.516  1.00  0.00     0.029 A 
ENDBRANCH   3  12
TORSDOF 2
ENDMDL
MODEL 9
REMARK VINA RESULT:      -5.4      5.087      8.473
REMARK  2 active torsions:
REMARK  status: ('A' for Active; 'I' for Inactive)
REMARK    1  A    between atoms: C_2  and  C_3 
REMARK       I    between atoms: C_2  and  N_10 
REMARK    2  A    between atoms: N_10  and  C_11 
ROOT
HETATM    1  O   LIG     1      13.220  32.508  17.040  1.00  0.00    -0.267 OA
HETATM    2  C   LIG     1      14.386  32.116  16.762  1.00  0.00     0.265 C 
HETATM    3  N   LIG     1      15.442  32.270  17.724  1.00  0.00    -0.322 N 
HETATM    4  H   LIG     1      16.272  31.640  17.645  1.00  0.00     0.169 HD
ENDROOT
BRANCH   2   5
HETATM    5  C   LIG     1      14.672  31.499  15.441  1.00  0.00     0.097 C 
HETATM    6  C   LIG     1      15.741  31.827  14.678  1.00  0.00     0.064 C 
HETATM    7  O   LIG     1      16.096  31.055  13.557  1.00  0.00    -0.353 OA
HETATM    8  C   LIG     1      16.620  33.004  14.987  1.00  0.00     0.078 C 
HETATM    9  C   LIG     1      15.677  29.709  13.293  1.00  0.00     0.185 C 
HETATM   10  C   LIG     1      14.870  29.102  14.436  1.00  0.00     0.106 C 
HETATM   11  S   LIG     1      13.528  30.244  14.847  1.00  0.00    -0.120 SA
ENDBRANCH   2   5
BRANCH   3  12
HETATM   12  C   LIG     1      15.366  33.140  18.867  1.00  0.00     0.035 A 
HETATM   13  C   LIG     1      15.004  32.609  20.115  1.00  0.00     0.029 A 
HETATM   14  C   LIG     1      14.946  33.430  21.245  1.00  0.00     0.002 A 
HETATM   15  C   LIG     1      15.263  34.787  21.141  1.00  0.00     0.000 A 
HETATM   16  C   LIG     1      15.646  35.321  19.909  1.00  0.00     0.002 A 
HETATM   17  C   LIG     1      15.704  34.503  18.775  1.00  0.00     0.029 A 
ENDBRANCH   3  12
TORSDOF 2
ENDMDL
MODEL 10
REMARK VINA RESULT:      -5.3      1.653      2.483
REMARK  2 active torsions:
REMARK  status: ('A' for Active; 'I' for Inactive)
REMARK    1  A    between atoms: C_2  and  C_3 
REMARK       I    between atoms: C_2  and  N_10 
REMARK    2  A    between atoms: N_10  and  C_11 
ROOT
HETATM    1  O   LIG     1      17.933  36.036  19.621  1.00  0.00    -0.267 OA
HETATM    2  C   LIG     1      17.255  35.959  20.682  1.00  0.00     0.265 C 
HETATM    3  N   LIG     1      16.262  34.930  20.824  1.00  0.00    -0.322 N 
HETATM    4  H   LIG     1      15.984  34.649  21.792  1.00  0.00     0.169 HD
ENDROOT
BRANCH   2   5
HETATM    5  C   LIG     1      17.479  36.929  21.785  1.00  0.00     0.097 C 
HETATM    6  C   LIG     1      17.923  38.193  21.589  1.00  0.00     0.064 C 
HETATM    7  O   LIG     1      17.895  39.140  22.629  1.00  0.00    -0.353 OA
HETATM    8  C   LIG     1      18.444  38.667  20.263  1.00  0.00     0.078 C 
HETATM    9  C   LIG     1      17.106  39.058  23.824  1.00  0.00     0.185 C 
HETATM   10  C   LIG     1      16.162  37.860  23.832  1.00  0.00     0.106 C 
HETATM   11  S   LIG     1      17.129  36.376  23.460  1.00  0.00    -0.120 SA
ENDBRANCH   2   5
BRANCH   3  12
HETATM   12  C   LIG     1      15.730  34.171  19.725  1.00  0.00     0.035 A 
HETATM   13  C   LIG     1      15.503  34.807  18.494  1.00  0.00     0.029 A 
HETATM   14  C   LIG     1      15.008  34.084  17.404  1.00  0.00     0.002 A 
HETATM   15  C   LIG     1      14.749  32.716  17.530  1.00  0.00     0.000 A 
HETATM   16  C   LIG     1      14.994  32.069  18.743  1.00  0.00     0.002 A 
HETATM   17  C   LIG     1      15.488  32.789  19.837  1.00  0.00     0.029 A 
ENDBRANCH   3  12
TORSDOF 2
ENDMDL
MODEL 11
REMARK VINA RESULT:      -5.2      8.301      9.959
REMARK  2 active torsions:
REMARK  status: ('A' for Active; 'I' for Inactive)
REMARK    1  A    between atoms: C_2  and  C_3 
REMARK       I    between atoms: C_2  and  N_10 
REMARK    2  A    between atoms: N_10  and  C_11 
ROOT
HETATM    1  O   LIG     1      18.443  32.977  14.623  1.00  0.00    -0.267 OA
HETATM    2  C   LIG     1      17.986  33.333  13.502  1.00  0.00     0.265 C 
HETATM    3  N   LIG     1      16.638  32.993  13.138  1.00  0.00    -0.322 N 
HETATM    4  H   LIG     1      16.164  33.579  12.413  1.00  0.00     0.169 HD
ENDROOT
BRANCH   2   5
HETATM    5  C   LIG     1      18.837  34.099  12.557  1.00  0.00     0.097 C 
HETATM    6  C   LIG     1      20.182  33.960  12.481  1.00  0.00     0.064 C 
HETATM    7  O   LIG     1      20.911  34.527  11.420  1.00  0.00    -0.353 OA
HETATM    8  C   LIG     1      20.969  33.183  13.496  1.00  0.00     0.078 C 
HETATM    9  C   LIG     1      20.372  34.957  10.161  1.00  0.00     0.185 C 
HETATM   10  C   LIG     1      18.891  34.630  10.005  1.00  0.00     0.106 C 
HETATM   11  S   LIG     1      18.017  35.263  11.458  1.00  0.00    -0.120 SA
ENDBRANCH   2   5
BRANCH   3  12
HETATM   12  C   LIG     1      15.855  31.988  13.805  1.00  0.00     0.035 A 
HETATM   13  C   LIG     1      15.639  30.752  13.176  1.00  0.00     0.029 A 
HETATM   14  C   LIG     1      14.902  29.750  13.815  1.00  0.00     0.002 A 
HETATM   15  C   LIG     1      14.385  29.969  15.094  1.00  0.00     0.000 A 
HETATM   16  C   LIG     1      14.613  31.187  15.739  1.00  0.00     0.002 A 
HETATM   17  C   LIG     1      15.350  32.192  15.104  1.00  0.00     0.029 A 
ENDBRANCH   3  12
TORSDOF 2
ENDMDL
MODEL 12
REMARK VINA RESULT:      -5.2      4.428      6.719
REMARK  2 active torsions:
REMARK  status: ('A' for Active; 'I' for Inactive)
REMARK    1  A    between atoms: C_2  and  C_3 
REMARK       I    between atoms: C_2  and  N_10 
REMARK    2  A    between atoms: N_10  and  C_11 
ROOT
HETATM    1  O   LIG     1      13.440  31.042  17.758  1.00  0.00    -0.267 OA
HETATM    2  C   LIG     1      14.442  31.688  17.346  1.00  0.00     0.265 C 
HETATM    3  N   LIG     1      14.919  31.490  16.005  1.00  0.00    -0.322 N 
HETATM    4  H   LIG     1      15.480  32.256  15.567  1.00  0.00     0.169 HD
ENDROOT
BRANCH   2   5
HETATM    5  C   LIG     1      15.132  32.649  18.243  1.00  0.00     0.097 C 
HETATM    6  C   LIG     1      15.346  33.948  17.924  1.00  0.00     0.064 C 
HETATM    7  O   LIG     1      15.787  34.869  18.892  1.00  0.00    -0.353 OA
HETATM    8  C   LIG     1      15.106  34.488  16.544  1.00  0.00     0.078 C 
HETATM    9  C   LIG     1      15.708  34.701  20.314  1.00  0.00     0.185 C 
HETATM   10  C   LIG     1      14.964  33.434  20.723  1.00  0.00     0.106 C 
HETATM   11  S   LIG     1      15.698  32.037  19.837  1.00  0.00    -0.120 SA
ENDBRANCH   2   5
BRANCH   3  12
HETATM   12  C   LIG     1      14.558  30.368  15.182  1.00  0.00     0.035 A 
HETATM   13  C   LIG     1      13.201  30.052  15.002  1.00  0.00     0.029 A 
HETATM   14  C   LIG     1      12.825  28.980  14.187  1.00  0.00     0.002 A 
HETATM   15  C   LIG     1      13.799  28.222  13.533  1.00  0.00     0.000 A 
HETATM   16  C   LIG     1      15.150  28.542  13.686  1.00  0.00     0.002 A 
HETATM   17  C   LIG     1      15.532  29.613  14.501  1.00  0.00     0.029 A 
ENDBRANCH   3  12
TORSDOF 2
ENDMDL
MODEL 13
REMARK VINA RESULT:      -4.7     16.743     18.721
REMARK  2 active torsions:
REMARK  status: ('A' for Active; 'I' for Inactive)
REMARK    1  A    between atoms: C_2  and  C_3 
REMARK       I    between atoms: C_2  and  N_10 
REMARK    2  A    between atoms: N_10  and  C_11 
ROOT
HETATM    1  O   LIG     1      28.749  28.177  34.721  1.00  0.00    -0.267 OA
HETATM    2  C   LIG     1      28.463  28.889  33.719  1.00  0.00     0.265 C 
HETATM    3  N   LIG     1      28.076  30.260  33.902  1.00  0.00    -0.322 N 
HETATM    4  H   LIG     1      28.200  30.915  33.096  1.00  0.00     0.169 HD
ENDROOT
BRANCH   2   5
HETATM    5  C   LIG     1      28.524  28.312  32.351  1.00  0.00     0.097 C 
HETATM    6  C   LIG     1      27.493  27.656  31.770  1.00  0.00     0.064 C 
HETATM    7  O   LIG     1      27.516  27.337  30.400  1.00  0.00    -0.353 OA
HETATM    8  C   LIG     1      26.264  27.252  32.532  1.00  0.00     0.078 C 
HETATM    9  C   LIG     1      28.358  27.941  29.408  1.00  0.00     0.185 C 
HETATM   10  C   LIG     1      29.189  29.096  29.956  1.00  0.00     0.106 C 
HETATM   11  S   LIG     1      30.058  28.515  31.433  1.00  0.00    -0.120 SA
ENDBRANCH   2   5
BRANCH   3  12
HETATM   12  C   LIG     1      27.659  30.815  35.161  1.00  0.00     0.035 A 
HETATM   13  C   LIG     1      26.300  30.778  35.514  1.00  0.00     0.029 A 
HETATM   14  C   LIG     1      25.874  31.291  36.743  1.00  0.00     0.002 A 
HETATM   15  C   LIG     1      26.802  31.832  37.637  1.00  0.00     0.000 A 
HETATM   16  C   LIG     1      28.159  31.853  37.305  1.00  0.00     0.002 A 
HETATM   17  C   LIG     1      28.590  31.342  36.076  1.00  0.00     0.029 A 
ENDBRANCH   3  12
TORSDOF 2
ENDMDL
MODEL 14
REMARK VINA RESULT:      -4.4      9.584     13.332
REMARK  2 active torsions:
REMARK  status: ('A' for Active; 'I' for Inactive)
REMARK    1  A    between atoms: C_2  and  C_3 
REMARK       I    between atoms: C_2  and  N_10 
REMARK    2  A    between atoms: N_10  and  C_11 
ROOT
HETATM    1  O   LIG     1      12.738  27.124  14.054  1.00  0.00    -0.267 OA
HETATM    2  C   LIG     1      13.575  27.363  13.141  1.00  0.00     0.265 C 
HETATM    3  N   LIG     1      14.518  28.435  13.297  1.00  0.00    -0.322 N 
HETATM    4  H   LIG     1      15.404  28.392  12.742  1.00  0.00     0.169 HD
ENDROOT
BRANCH   2   5
HETATM    5  C   LIG     1      13.587  26.539  11.904  1.00  0.00     0.097 C 
HETATM    6  C   LIG     1      14.719  26.193  11.248  1.00  0.00     0.064 C 
HETATM    7  O   LIG     1      14.697  25.225  10.227  1.00  0.00    -0.353 OA
HETATM    8  C   LIG     1      16.056  26.791  11.578  1.00  0.00     0.078 C 
HETATM    9  C   LIG     1      13.664  24.255  10.005  1.00  0.00     0.185 C 
HETATM   10  C   LIG     1      12.588  24.275  11.086  1.00  0.00     0.106 C 
HETATM   11  S   LIG     1      12.001  25.977  11.267  1.00  0.00    -0.120 SA
ENDBRANCH   2   5
BRANCH   3  12
HETATM   12  C   LIG     1      14.384  29.488  14.266  1.00  0.00     0.035 A 
HETATM   13  C   LIG     1      15.436  30.401  14.444  1.00  0.00     0.029 A 
HETATM   14  C   LIG     1      15.318  31.447  15.364  1.00  0.00     0.002 A 
HETATM   15  C   LIG     1      14.143  31.600  16.105  1.00  0.00     0.000 A 
HETATM   16  C   LIG     1      13.082  30.711  15.920  1.00  0.00     0.002 A 
HETATM   17  C   LIG     1      13.195  29.662  15.001  1.00  0.00     0.029 A 
ENDBRANCH   3  12
TORSDOF 2
ENDMDL
MODEL 15
REMARK VINA RESULT:      -4.3     15.091     16.595
REMARK  2 active torsions:
REMARK  status: ('A' for Active; 'I' for Inactive)
REMARK    1  A    between atoms: C_2  and  C_3 
REMARK       I    between atoms: C_2  and  N_10 
REMARK    2  A    between atoms: N_10  and  C_11 
ROOT
HETATM    1  O   LIG     1      24.082  22.588  18.039  1.00  0.00    -0.267 OA
HETATM    2  C   LIG     1      24.336  21.815  19.003  1.00  0.00     0.265 C 
HETATM    3  N   LIG     1      24.289  20.392  18.810  1.00  0.00    -0.322 N 
HETATM    4  H   LIG     1      24.836  19.790  19.467  1.00  0.00     0.169 HD
ENDROOT
BRANCH   2   5
HETATM    5  C   LIG     1      24.683  22.371  20.336  1.00  0.00     0.097 C 
HETATM    6  C   LIG     1      23.767  22.638  21.296  1.00  0.00     0.064 C 
HETATM    7  O   LIG     1      24.162  22.938  22.612  1.00  0.00    -0.353 OA
HETATM    8  C   LIG     1      22.290  22.608  21.029  1.00  0.00     0.078 C 
HETATM    9  C   LIG     1      25.440  22.648  23.196  1.00  0.00     0.185 C 
HETATM   10  C   LIG     1      26.348  21.844  22.271  1.00  0.00     0.106 C 
HETATM   11  S   LIG     1      26.421  22.692  20.674  1.00  0.00    -0.120 SA
ENDBRANCH   2   5
BRANCH   3  12
HETATM   12  C   LIG     1      23.648  19.754  17.692  1.00  0.00     0.035 A 
HETATM   13  C   LIG     1      24.436  19.170  16.687  1.00  0.00     0.029 A 
HETATM   14  C   LIG     1      23.835  18.524  15.602  1.00  0.00     0.002 A 
HETATM   15  C   LIG     1      22.443  18.443  15.518  1.00  0.00     0.000 A 
HETATM   16  C   LIG     1      21.650  19.001  16.524  1.00  0.00     0.002 A 
HETATM   17  C   LIG     1      22.246  19.649  17.611  1.00  0.00     0.029 A 
ENDBRANCH   3  12
TORSDOF 2
ENDMDL
MODEL 16
REMARK VINA RESULT:      -4.2     14.982     16.129
REMARK  2 active torsions:
REMARK  status: ('A' for Active; 'I' for Inactive)
REMARK    1  A    between atoms: C_2  and  C_3 
REMARK       I    between atoms: C_2  and  N_10 
REMARK    2  A    between atoms: N_10  and  C_11 
ROOT
HETATM    1  O   LIG     1      25.665  24.766  17.857  1.00  0.00    -0.267 OA
HETATM    2  C   LIG     1      26.648  24.327  18.515  1.00  0.00     0.265 C 
HETATM    3  N   LIG     1      26.461  23.253  19.451  1.00  0.00    -0.322 N 
HETATM    4  H   LIG     1      27.292  22.671  19.700  1.00  0.00     0.169 HD
ENDROOT
BRANCH   2   5
HETATM    5  C   LIG     1      27.997  24.918  18.325  1.00  0.00     0.097 C 
HETATM    6  C   LIG     1      28.869  24.501  17.377  1.00  0.00     0.064 C 
HETATM    7  O   LIG     1      30.030  25.240  17.084  1.00  0.00    -0.353 OA
HETATM    8  C   LIG     1      28.646  23.255  16.570  1.00  0.00     0.078 C 
HETATM    9  C   LIG     1      30.260  26.617  17.417  1.00  0.00     0.185 C 
HETATM   10  C   LIG     1      29.041  27.289  18.041  1.00  0.00     0.106 C 
HETATM   11  S   LIG     1      28.475  26.263  19.420  1.00  0.00    -0.120 SA
ENDBRANCH   2   5
BRANCH   3  12
HETATM   12  C   LIG     1      25.179  22.845  19.958  1.00  0.00     0.035 A 
HETATM   13  C   LIG     1      24.762  23.295  21.221  1.00  0.00     0.029 A 
HETATM   14  C   LIG     1      23.510  22.930  21.726  1.00  0.00     0.002 A 
HETATM   15  C   LIG     1      22.657  22.124  20.967  1.00  0.00     0.000 A 
HETATM   16  C   LIG     1      23.052  21.690  19.700  1.00  0.00     0.002 A 
HETATM   17  C   LIG     1      24.304  22.052  19.191  1.00  0.00     0.029 A 
ENDBRANCH   3  12
TORSDOF 2
ENDMDL
MODEL 17
REMARK VINA RESULT:      -4.2     15.262     16.253
REMARK  2 active torsions:
REMARK  status: ('A' for Active; 'I' for Inactive)
REMARK    1  A    between atoms: C_2  and  C_3 
REMARK       I    between atoms: C_2  and  N_10 
REMARK    2  A    between atoms: N_10  and  C_11 
ROOT
HETATM    1  O   LIG     1      27.123  22.457  19.877  1.00  0.00    -0.267 OA
HETATM    2  C   LIG     1      26.014  23.050  19.781  1.00  0.00     0.265 C 
HETATM    3  N   LIG     1      25.899  24.224  18.962  1.00  0.00    -0.322 N 
HETATM    4  H   LIG     1      24.950  24.479  18.602  1.00  0.00     0.169 HD
ENDROOT
BRANCH   2   5
HETATM    5  C   LIG     1      24.828  22.539  20.515  1.00  0.00     0.097 C 
HETATM    6  C   LIG     1      23.802  21.888  19.916  1.00  0.00     0.064 C 
HETATM    7  O   LIG     1      22.824  21.221  20.677  1.00  0.00    -0.353 OA
HETATM    8  C   LIG     1      23.657  21.814  18.424  1.00  0.00     0.078 C 
HETATM    9  C   LIG     1      22.951  20.819  22.048  1.00  0.00     0.185 C 
HETATM   10  C   LIG     1      24.343  21.076  22.617  1.00  0.00     0.106 C 
HETATM   11  S   LIG     1      24.774  22.804  22.293  1.00  0.00    -0.120 SA
ENDBRANCH   2   5
BRANCH   3  12
HETATM   12  C   LIG     1      27.022  24.990  18.494  1.00  0.00     0.035 A 
HETATM   13  C   LIG     1      27.718  24.565  17.351  1.00  0.00     0.029 A 
HETATM   14  C   LIG     1      28.799  25.306  16.863  1.00  0.00     0.002 A 
HETATM   15  C   LIG     1      29.186  26.486  17.504  1.00  0.00     0.000 A 
HETATM   16  C   LIG     1      28.485  26.930  18.628  1.00  0.00     0.002 A 
HETATM   17  C   LIG     1      27.404  26.192  19.120  1.00  0.00     0.029 A 
ENDBRANCH   3  12
TORSDOF 2
ENDMDL
MODEL 18
REMARK VINA RESULT:      -4.1     16.665     17.936
REMARK  2 active torsions:
REMARK  status: ('A' for Active; 'I' for Inactive)
REMARK    1  A    between atoms: C_2  and  C_3 
REMARK       I    between atoms: C_2  and  N_10 
REMARK    2  A    between atoms: N_10  and  C_11 
ROOT
HETATM    1  O   LIG     1      25.899  28.237  33.388  1.00  0.00    -0.267 OA
HETATM    2  C   LIG     1      27.127  28.393  33.632  1.00  0.00     0.265 C 
HETATM    3  N   LIG     1      28.108  27.948  32.682  1.00  0.00    -0.322 N 
HETATM    4  H   LIG     1      29.054  28.394  32.710  1.00  0.00     0.169 HD
ENDROOT
BRANCH   2   5
HETATM    5  C   LIG     1      27.560  29.033  34.900  1.00  0.00     0.097 C 
HETATM    6  C   LIG     1      27.874  30.346  35.005  1.00  0.00     0.064 C 
HETATM    7  O   LIG     1      28.049  30.951  36.263  1.00  0.00    -0.353 OA
HETATM    8  C   LIG     1      28.030  31.235  33.806  1.00  0.00     0.078 C 
HETATM    9  C   LIG     1      27.582  30.438  37.519  1.00  0.00     0.185 C 
HETATM   10  C   LIG     1      26.734  29.179  37.368  1.00  0.00     0.106 C 
HETATM   11  S   LIG     1      27.660  27.992  36.364  1.00  0.00    -0.120 SA
ENDBRANCH   2   5
BRANCH   3  12
HETATM   12  C   LIG     1      27.830  27.031  31.610  1.00  0.00     0.035 A 
HETATM   13  C   LIG     1      27.466  27.533  30.350  1.00  0.00     0.029 A 
HETATM   14  C   LIG     1      27.213  26.661  29.286  1.00  0.00     0.002 A 
HETATM   15  C   LIG     1      27.336  25.281  29.467  1.00  0.00     0.000 A 
HETATM   16  C   LIG     1      27.719  24.773  30.710  1.00  0.00     0.002 A 
HETATM   17  C   LIG     1      27.972  25.641  31.778  1.00  0.00     0.029 A 
ENDBRANCH   3  12
TORSDOF 2
ENDMDL
MODEL 19
REMARK VINA RESULT:      -4.1     15.553     16.889
REMARK  2 active torsions:
REMARK  status: ('A' for Active; 'I' for Inactive)
REMARK    1  A    between atoms: C_2  and  C_3 
REMARK       I    between atoms: C_2  and  N_10 
REMARK    2  A    between atoms: N_10  and  C_11 
ROOT
HETATM    1  O   LIG     1      27.671  22.462  19.768  1.00  0.00    -0.267 OA
HETATM    2  C   LIG     1      26.607  22.546  19.095  1.00  0.00     0.265 C 
HETATM    3  N   LIG     1      26.465  23.580  18.107  1.00  0.00    -0.322 N 
HETATM    4  H   LIG     1      25.780  23.426  17.333  1.00  0.00     0.169 HD
ENDROOT
BRANCH   2   5
HETATM    5  C   LIG     1      25.501  21.580  19.321  1.00  0.00     0.097 C 
HETATM    6  C   LIG     1      24.438  21.835  20.120  1.00  0.00     0.064 C 
HETATM    7  O   LIG     1      23.311  20.994  20.117  1.00  0.00    -0.353 OA
HETATM    8  C   LIG     1      24.383  23.028  21.029  1.00  0.00     0.078 C 
HETATM    9  C   LIG     1      22.962  20.054  19.091  1.00  0.00     0.185 C 
HETATM   10  C   LIG     1      23.890  20.122  17.882  1.00  0.00     0.106 C 
HETATM   11  S   LIG     1      25.596  19.997  18.473  1.00  0.00    -0.120 SA
ENDBRANCH   2   5
BRANCH   3  12
HETATM   12  C   LIG     1      27.302  24.747  18.041  1.00  0.00     0.035 A 
HETATM   13  C   LIG     1      27.104  25.790  18.960  1.00  0.00     0.029 A 
HETATM   14  C   LIG     1      27.920  26.925  18.931  1.00  0.00     0.002 A 
HETATM   15  C   LIG     1      28.950  27.023  17.992  1.00  0.00     0.000 A 
HETATM   16  C   LIG     1      29.171  25.981  17.088  1.00  0.00     0.002 A 
HETATM   17  C   LIG     1      28.356  24.844  17.113  1.00  0.00     0.029 A 
ENDBRANCH   3  12
TORSDOF 2
ENDMDL
MODEL 20
REMARK VINA RESULT:      -4.0     15.501     15.812
REMARK  2 active torsions:
REMARK  status: ('A' for Active; 'I' for Inactive)
REMARK    1  A    between atoms: C_2  and  C_3 
REMARK       I    between atoms: C_2  and  N_10 
REMARK    2  A    between atoms: N_10  and  C_11 
ROOT
HETATM    1  O   LIG     1      25.627  21.038  23.293  1.00  0.00    -0.267 OA
HETATM    2  C   LIG     1      24.962  22.040  23.672  1.00  0.00     0.265 C 
HETATM    3  N   LIG     1      24.078  22.702  22.753  1.00  0.00    -0.322 N 
HETATM    4  H   LIG     1      23.291  23.263  23.150  1.00  0.00     0.169 HD
ENDROOT
BRANCH   2   5
HETATM    5  C   LIG     1      25.092  22.540  25.065  1.00  0.00     0.097 C 
HETATM    6  C   LIG     1      24.393  22.033  26.109  1.00  0.00     0.064 C 
HETATM    7  O   LIG     1      24.719  22.375  27.434  1.00  0.00    -0.353 OA
HETATM    8  C   LIG     1      23.257  21.069  25.925  1.00  0.00     0.078 C 
HETATM    9  C   LIG     1      25.963  22.936  27.879  1.00  0.00     0.185 C 
HETATM   10  C   LIG     1      27.003  23.032  26.768  1.00  0.00     0.106 C 
HETATM   11  S   LIG     1      26.250  23.884  25.361  1.00  0.00    -0.120 SA
ENDBRANCH   2   5
BRANCH   3  12
HETATM   12  C   LIG     1      24.127  22.528  21.327  1.00  0.00     0.035 A 
HETATM   13  C   LIG     1      23.087  21.842  20.679  1.00  0.00     0.029 A 
HETATM   14  C   LIG     1      23.102  21.682  19.290  1.00  0.00     0.002 A 
HETATM   15  C   LIG     1      24.147  22.217  18.534  1.00  0.00     0.000 A 
HETATM   16  C   LIG     1      25.175  22.921  19.165  1.00  0.00     0.002 A 
HETATM   17  C   LIG     1      25.166  23.084  20.555  1.00  0.00     0.029 A 
ENDBRANCH   3  12
TORSDOF 2
ENDMDL
