REMARK  1 active torsions:
REMARK  status: ('A' for Active; 'I' for Inactive)
REMARK    1  A    between atoms: C_3  and  O_4 
ROOT
HETATM    1  C   LIG     1       1.192   1.635  -0.151  1.00  0.00     0.052 C 
HETATM    2  C   LIG     1       0.132   0.558  -0.088  1.00  0.00    -0.023 A 
HETATM    3  C   LIG     1      -1.222   0.905  -0.330  1.00  0.00     0.072 A 
HETATM    4  C   LIG     1      -2.216  -0.075  -0.277  1.00  0.00     0.037 A 
HETATM    5  C   LIG     1      -1.893  -1.397   0.014  1.00  0.00     0.003 A 
HETATM    6  C   LIG     1      -0.569  -1.756   0.256  1.00  0.00     0.007 A 
HETATM    7  C   LIG     1       0.456  -0.795   0.209  1.00  0.00    -0.053 A 
HETATM    8  C   LIG     1       1.871  -1.239   0.478  1.00  0.00     0.049 C 
ENDROOT
BRANCH   3   9
HETATM    9  O   LIG     1      -1.613   2.213  -0.628  1.00  0.00    -0.360 OA
HETATM   10  H   LIG     1      -0.966   2.989  -0.689  1.00  0.00     0.217 HD
ENDBRANCH   3   9
TORSDOF 1
