MODEL 1
REMARK VINA RESULT:      -6.7      0.000      0.000
REMARK  0 active torsions:
REMARK  status: ('A' for Active; 'I' for Inactive)
ROOT
HETATM    1  C   LIG     1      17.382  38.049  25.383  1.00  0.00     0.049 C 
HETATM    2  C   LIG     1      17.220  37.110  24.204  1.00  0.00    -0.050 A 
HETATM    3  C   LIG     1      17.236  35.697  24.369  1.00  0.00    -0.056 A 
HETATM    4  C   LIG     1      17.413  35.050  25.719  1.00  0.00     0.049 C 
HETATM    5  C   LIG     1      17.082  34.867  23.246  1.00  0.00     0.007 A 
HETATM    6  C   LIG     1      16.915  35.412  21.977  1.00  0.00     0.001 A 
HETATM    7  C   LIG     1      16.898  36.793  21.804  1.00  0.00     0.007 A 
HETATM    8  C   LIG     1      17.048  37.653  22.902  1.00  0.00    -0.056 A 
HETATM    9  C   LIG     1      17.024  39.143  22.667  1.00  0.00     0.049 C 
ENDROOT
TORSDOF 0
ENDMDL
MODEL 2
REMARK VINA RESULT:      -6.7      0.037      2.908
REMARK  0 active torsions:
REMARK  status: ('A' for Active; 'I' for Inactive)
ROOT
HETATM    1  C   LIG     1      17.382  38.009  25.429  1.00  0.00     0.049 C 
HETATM    2  C   LIG     1      17.222  37.130  24.204  1.00  0.00    -0.050 A 
HETATM    3  C   LIG     1      17.057  37.686  22.905  1.00  0.00    -0.056 A 
HETATM    4  C   LIG     1      17.033  39.175  22.667  1.00  0.00     0.049 C 
HETATM    5  C   LIG     1      16.913  36.831  21.799  1.00  0.00     0.007 A 
HETATM    6  C   LIG     1      16.929  35.449  21.962  1.00  0.00     0.001 A 
HETATM    7  C   LIG     1      17.089  34.895  23.229  1.00  0.00     0.007 A 
HETATM    8  C   LIG     1      17.237  35.718  24.356  1.00  0.00    -0.056 A 
HETATM    9  C   LIG     1      17.407  35.073  25.709  1.00  0.00     0.049 C 
ENDROOT
TORSDOF 0
ENDMDL
MODEL 3
REMARK VINA RESULT:      -6.4      1.959      3.582
REMARK  0 active torsions:
REMARK  status: ('A' for Active; 'I' for Inactive)
ROOT
HETATM    1  C   LIG     1      18.681  36.672  19.568  1.00  0.00     0.049 C 
HETATM    2  C   LIG     1      17.986  37.234  20.791  1.00  0.00    -0.050 A 
HETATM    3  C   LIG     1      17.072  36.454  21.553  1.00  0.00    -0.056 A 
HETATM    4  C   LIG     1      16.742  35.027  21.192  1.00  0.00     0.049 C 
HETATM    5  C   LIG     1      16.450  37.018  22.679  1.00  0.00     0.007 A 
HETATM    6  C   LIG     1      16.719  38.330  23.057  1.00  0.00     0.001 A 
HETATM    7  C   LIG     1      17.611  39.103  22.319  1.00  0.00     0.007 A 
HETATM    8  C   LIG     1      18.250  38.572  21.188  1.00  0.00    -0.056 A 
HETATM    9  C   LIG     1      19.209  39.446  20.418  1.00  0.00     0.049 C 
ENDROOT
TORSDOF 0
ENDMDL
MODEL 4
REMARK VINA RESULT:      -6.3      1.936      4.357
REMARK  0 active torsions:
REMARK  status: ('A' for Active; 'I' for Inactive)
ROOT
HETATM    1  C   LIG     1      18.630  36.636  19.595  1.00  0.00     0.049 C 
HETATM    2  C   LIG     1      17.965  37.241  20.815  1.00  0.00    -0.050 A 
HETATM    3  C   LIG     1      18.221  38.582  21.216  1.00  0.00    -0.056 A 
HETATM    4  C   LIG     1      19.164  39.480  20.454  1.00  0.00     0.049 C 
HETATM    5  C   LIG     1      17.582  39.099  22.355  1.00  0.00     0.007 A 
HETATM    6  C   LIG     1      16.703  38.314  23.094  1.00  0.00     0.001 A 
HETATM    7  C   LIG     1      16.445  37.001  22.712  1.00  0.00     0.007 A 
HETATM    8  C   LIG     1      17.065  36.451  21.580  1.00  0.00    -0.056 A 
HETATM    9  C   LIG     1      16.756  35.023  21.204  1.00  0.00     0.049 C 
ENDROOT
TORSDOF 0
ENDMDL
MODEL 5
REMARK VINA RESULT:      -6.2      0.884      2.734
REMARK  0 active torsions:
REMARK  status: ('A' for Active; 'I' for Inactive)
ROOT
HETATM    1  C   LIG     1      17.227  34.829  24.710  1.00  0.00     0.049 C 
HETATM    2  C   LIG     1      17.216  36.144  23.956  1.00  0.00    -0.050 A 
HETATM    3  C   LIG     1      17.487  37.379  24.609  1.00  0.00    -0.056 A 
HETATM    4  C   LIG     1      17.801  37.455  26.082  1.00  0.00     0.049 C 
HETATM    5  C   LIG     1      17.465  38.573  23.869  1.00  0.00     0.007 A 
HETATM    6  C   LIG     1      17.180  38.559  22.506  1.00  0.00     0.001 A 
HETATM    7  C   LIG     1      16.913  37.357  21.858  1.00  0.00     0.007 A 
HETATM    8  C   LIG     1      16.927  36.145  22.565  1.00  0.00    -0.056 A 
HETATM    9  C   LIG     1      16.631  34.867  21.821  1.00  0.00     0.049 C 
ENDROOT
TORSDOF 0
ENDMDL
MODEL 6
REMARK VINA RESULT:      -6.1      0.744      2.519
REMARK  0 active torsions:
REMARK  status: ('A' for Active; 'I' for Inactive)
ROOT
HETATM    1  C   LIG     1      16.785  38.695  22.643  1.00  0.00     0.049 C 
HETATM    2  C   LIG     1      16.982  37.373  23.357  1.00  0.00    -0.050 A 
HETATM    3  C   LIG     1      17.257  37.313  24.752  1.00  0.00    -0.056 A 
HETATM    4  C   LIG     1      17.367  38.555  25.601  1.00  0.00     0.049 C 
HETATM    5  C   LIG     1      17.432  36.064  25.371  1.00  0.00     0.007 A 
HETATM    6  C   LIG     1      17.342  34.887  24.634  1.00  0.00     0.001 A 
HETATM    7  C   LIG     1      17.074  34.933  23.269  1.00  0.00     0.007 A 
HETATM    8  C   LIG     1      16.892  36.163  22.618  1.00  0.00    -0.056 A 
HETATM    9  C   LIG     1      16.605  36.165  21.137  1.00  0.00     0.049 C 
ENDROOT
TORSDOF 0
ENDMDL
MODEL 7
REMARK VINA RESULT:      -6.0      1.709      3.109
REMARK  0 active torsions:
REMARK  status: ('A' for Active; 'I' for Inactive)
ROOT
HETATM    1  C   LIG     1      18.701  39.346  21.206  1.00  0.00     0.049 C 
HETATM    2  C   LIG     1      18.029  38.018  21.492  1.00  0.00    -0.050 A 
HETATM    3  C   LIG     1      17.318  37.788  22.703  1.00  0.00    -0.056 A 
HETATM    4  C   LIG     1      17.190  38.845  23.770  1.00  0.00     0.049 C 
HETATM    5  C   LIG     1      16.712  36.540  22.924  1.00  0.00     0.007 A 
HETATM    6  C   LIG     1      16.800  35.528  21.972  1.00  0.00     0.001 A 
HETATM    7  C   LIG     1      17.493  35.742  20.784  1.00  0.00     0.007 A 
HETATM    8  C   LIG     1      18.111  36.976  20.529  1.00  0.00    -0.056 A 
HETATM    9  C   LIG     1      18.851  37.163  19.228  1.00  0.00     0.049 C 
ENDROOT
TORSDOF 0
ENDMDL
MODEL 8
REMARK VINA RESULT:      -5.9      8.004     10.097
REMARK  0 active torsions:
REMARK  status: ('A' for Active; 'I' for Inactive)
ROOT
HETATM    1  C   LIG     1      16.619  32.369  14.940  1.00  0.00     0.049 C 
HETATM    2  C   LIG     1      15.286  31.816  15.402  1.00  0.00    -0.050 A 
HETATM    3  C   LIG     1      14.698  30.677  14.786  1.00  0.00    -0.056 A 
HETATM    4  C   LIG     1      15.361  29.952  13.643  1.00  0.00     0.049 C 
HETATM    5  C   LIG     1      13.460  30.201  15.249  1.00  0.00     0.007 A 
HETATM    6  C   LIG     1      12.804  30.832  16.302  1.00  0.00     0.001 A 
HETATM    7  C   LIG     1      13.370  31.948  16.912  1.00  0.00     0.007 A 
HETATM    8  C   LIG     1      14.605  32.451  16.476  1.00  0.00    -0.056 A 
HETATM    9  C   LIG     1      15.181  33.663  17.166  1.00  0.00     0.049 C 
ENDROOT
TORSDOF 0
ENDMDL
MODEL 9
REMARK VINA RESULT:      -5.9      8.574     10.695
REMARK  0 active torsions:
REMARK  status: ('A' for Active; 'I' for Inactive)
ROOT
HETATM    1  C   LIG     1      15.578  30.562  13.422  1.00  0.00     0.049 C 
HETATM    2  C   LIG     1      14.957  31.029  14.723  1.00  0.00    -0.050 A 
HETATM    3  C   LIG     1      15.539  32.074  15.494  1.00  0.00    -0.056 A 
HETATM    4  C   LIG     1      16.803  32.777  15.067  1.00  0.00     0.049 C 
HETATM    5  C   LIG     1      14.927  32.473  16.694  1.00  0.00     0.007 A 
HETATM    6  C   LIG     1      13.759  31.858  17.135  1.00  0.00     0.001 A 
HETATM    7  C   LIG     1      13.181  30.835  16.389  1.00  0.00     0.007 A 
HETATM    8  C   LIG     1      13.764  30.411  15.186  1.00  0.00    -0.056 A 
HETATM    9  C   LIG     1      13.103  29.298  14.410  1.00  0.00     0.049 C 
ENDROOT
TORSDOF 0
ENDMDL
MODEL 10
REMARK VINA RESULT:      -5.9      8.575     10.538
REMARK  0 active torsions:
REMARK  status: ('A' for Active; 'I' for Inactive)
ROOT
HETATM    1  C   LIG     1      15.614  30.662  13.396  1.00  0.00     0.049 C 
HETATM    2  C   LIG     1      14.956  31.036  14.710  1.00  0.00    -0.050 A 
HETATM    3  C   LIG     1      13.774  30.387  15.162  1.00  0.00    -0.056 A 
HETATM    4  C   LIG     1      13.106  29.293  14.367  1.00  0.00     0.049 C 
HETATM    5  C   LIG     1      13.200  30.767  16.387  1.00  0.00     0.007 A 
HETATM    6  C   LIG     1      13.775  31.771  17.160  1.00  0.00     0.001 A 
HETATM    7  C   LIG     1      14.932  32.413  16.727  1.00  0.00     0.007 A 
HETATM    8  C   LIG     1      15.533  32.059  15.510  1.00  0.00    -0.056 A 
HETATM    9  C   LIG     1      16.786  32.782  15.081  1.00  0.00     0.049 C 
ENDROOT
TORSDOF 0
ENDMDL
MODEL 11
REMARK VINA RESULT:      -5.6      8.533     10.576
REMARK  0 active torsions:
REMARK  status: ('A' for Active; 'I' for Inactive)
ROOT
HETATM    1  C   LIG     1      13.115  30.701  16.753  1.00  0.00     0.049 C 
HETATM    2  C   LIG     1      14.158  31.017  15.700  1.00  0.00    -0.050 A 
HETATM    3  C   LIG     1      14.276  30.243  14.512  1.00  0.00    -0.056 A 
HETATM    4  C   LIG     1      13.374  29.068  14.228  1.00  0.00     0.049 C 
HETATM    5  C   LIG     1      15.258  30.574  13.564  1.00  0.00     0.007 A 
HETATM    6  C   LIG     1      16.117  31.649  13.776  1.00  0.00     0.001 A 
HETATM    7  C   LIG     1      16.011  32.412  14.934  1.00  0.00     0.007 A 
HETATM    8  C   LIG     1      15.041  32.111  15.903  1.00  0.00    -0.056 A 
HETATM    9  C   LIG     1      14.964  32.966  17.143  1.00  0.00     0.049 C 
ENDROOT
TORSDOF 0
ENDMDL
MODEL 12
REMARK VINA RESULT:      -5.6      8.513     10.656
REMARK  0 active torsions:
REMARK  status: ('A' for Active; 'I' for Inactive)
ROOT
HETATM    1  C   LIG     1      13.184  30.672  16.682  1.00  0.00     0.049 C 
HETATM    2  C   LIG     1      14.235  31.069  15.665  1.00  0.00    -0.050 A 
HETATM    3  C   LIG     1      15.100  32.178  15.882  1.00  0.00    -0.056 A 
HETATM    4  C   LIG     1      15.024  33.021  17.130  1.00  0.00     0.049 C 
HETATM    5  C   LIG     1      16.060  32.509  14.911  1.00  0.00     0.007 A 
HETATM    6  C   LIG     1      16.172  31.764  13.741  1.00  0.00     0.001 A 
HETATM    7  C   LIG     1      15.331  30.678  13.518  1.00  0.00     0.007 A 
HETATM    8  C   LIG     1      14.362  30.318  14.466  1.00  0.00    -0.056 A 
HETATM    9  C   LIG     1      13.472  29.134  14.181  1.00  0.00     0.049 C 
ENDROOT
TORSDOF 0
ENDMDL
MODEL 13
REMARK VINA RESULT:      -5.6      8.211     10.315
REMARK  0 active torsions:
REMARK  status: ('A' for Active; 'I' for Inactive)
ROOT
HETATM    1  C   LIG     1      15.075  32.971  17.042  1.00  0.00     0.049 C 
HETATM    2  C   LIG     1      15.112  32.066  15.827  1.00  0.00    -0.050 A 
HETATM    3  C   LIG     1      16.078  32.241  14.797  1.00  0.00    -0.056 A 
HETATM    4  C   LIG     1      17.118  33.331  14.851  1.00  0.00     0.049 C 
HETATM    5  C   LIG     1      16.074  31.377  13.690  1.00  0.00     0.007 A 
HETATM    6  C   LIG     1      15.136  30.353  13.590  1.00  0.00     0.001 A 
HETATM    7  C   LIG     1      14.187  30.173  14.591  1.00  0.00     0.007 A 
HETATM    8  C   LIG     1      14.161  31.017  15.712  1.00  0.00    -0.056 A 
HETATM    9  C   LIG     1      13.114  30.784  16.772  1.00  0.00     0.049 C 
ENDROOT
TORSDOF 0
ENDMDL
MODEL 14
REMARK VINA RESULT:      -4.5      5.129      7.243
REMARK  0 active torsions:
REMARK  status: ('A' for Active; 'I' for Inactive)
ROOT
HETATM    1  C   LIG     1      14.766  31.221  19.989  1.00  0.00     0.049 C 
HETATM    2  C   LIG     1      14.884  32.349  18.983  1.00  0.00    -0.050 A 
HETATM    3  C   LIG     1      15.433  33.612  19.341  1.00  0.00    -0.056 A 
HETATM    4  C   LIG     1      15.929  33.904  20.735  1.00  0.00     0.049 C 
HETATM    5  C   LIG     1      15.522  34.627  18.374  1.00  0.00     0.007 A 
HETATM    6  C   LIG     1      15.079  34.411  17.073  1.00  0.00     0.001 A 
HETATM    7  C   LIG     1      14.540  33.180  16.712  1.00  0.00     0.007 A 
HETATM    8  C   LIG     1      14.436  32.142  17.651  1.00  0.00    -0.056 A 
HETATM    9  C   LIG     1      13.844  30.824  17.215  1.00  0.00     0.049 C 
ENDROOT
TORSDOF 0
ENDMDL
MODEL 15
REMARK VINA RESULT:      -3.9     16.154     17.559
REMARK  0 active torsions:
REMARK  status: ('A' for Active; 'I' for Inactive)
ROOT
HETATM    1  C   LIG     1      30.007  31.161  35.606  1.00  0.00     0.049 C 
HETATM    2  C   LIG     1      28.530  31.202  35.943  1.00  0.00    -0.050 A 
HETATM    3  C   LIG     1      27.551  30.657  35.066  1.00  0.00    -0.056 A 
HETATM    4  C   LIG     1      27.920  30.009  33.756  1.00  0.00     0.049 C 
HETATM    5  C   LIG     1      26.193  30.719  35.421  1.00  0.00     0.007 A 
HETATM    6  C   LIG     1      25.797  31.307  36.618  1.00  0.00     0.001 A 
HETATM    7  C   LIG     1      26.746  31.843  37.483  1.00  0.00     0.007 A 
HETATM    8  C   LIG     1      28.111  31.799  37.162  1.00  0.00    -0.056 A 
HETATM    9  C   LIG     1      29.104  32.394  38.129  1.00  0.00     0.049 C 
ENDROOT
TORSDOF 0
ENDMDL
MODEL 16
REMARK VINA RESULT:      -3.9     16.165     17.981
REMARK  0 active torsions:
REMARK  status: ('A' for Active; 'I' for Inactive)
ROOT
HETATM    1  C   LIG     1      29.347  30.572  35.017  1.00  0.00     0.049 C 
HETATM    2  C   LIG     1      28.415  31.126  36.077  1.00  0.00    -0.050 A 
HETATM    3  C   LIG     1      28.902  31.907  37.162  1.00  0.00    -0.056 A 
HETATM    4  C   LIG     1      30.366  32.232  37.322  1.00  0.00     0.049 C 
HETATM    5  C   LIG     1      28.000  32.399  38.121  1.00  0.00     0.007 A 
HETATM    6  C   LIG     1      26.639  32.129  38.020  1.00  0.00     0.001 A 
HETATM    7  C   LIG     1      26.152  31.365  36.964  1.00  0.00     0.007 A 
HETATM    8  C   LIG     1      27.023  30.858  35.988  1.00  0.00    -0.056 A 
HETATM    9  C   LIG     1      26.450  30.035  34.861  1.00  0.00     0.049 C 
ENDROOT
TORSDOF 0
ENDMDL
MODEL 17
REMARK VINA RESULT:      -3.8     19.481     20.853
REMARK  0 active torsions:
REMARK  status: ('A' for Active; 'I' for Inactive)
ROOT
HETATM    1  C   LIG     1      12.996  18.620  14.504  1.00  0.00     0.049 C 
HETATM    2  C   LIG     1      14.491  18.378  14.455  1.00  0.00    -0.050 A 
HETATM    3  C   LIG     1      15.171  18.160  13.224  1.00  0.00    -0.056 A 
HETATM    4  C   LIG     1      14.449  18.157  11.900  1.00  0.00     0.049 C 
HETATM    5  C   LIG     1      16.558  17.940  13.228  1.00  0.00     0.007 A 
HETATM    6  C   LIG     1      17.273  17.933  14.423  1.00  0.00     0.001 A 
HETATM    7  C   LIG     1      16.619  18.144  15.632  1.00  0.00     0.007 A 
HETATM    8  C   LIG     1      15.234  18.368  15.666  1.00  0.00    -0.056 A 
HETATM    9  C   LIG     1      14.567  18.592  17.001  1.00  0.00     0.049 C 
ENDROOT
TORSDOF 0
ENDMDL
MODEL 18
REMARK VINA RESULT:      -3.8     19.894     20.976
REMARK  0 active torsions:
REMARK  status: ('A' for Active; 'I' for Inactive)
ROOT
HETATM    1  C   LIG     1      14.366  18.403  16.394  1.00  0.00     0.049 C 
HETATM    2  C   LIG     1      14.794  18.240  14.950  1.00  0.00    -0.050 A 
HETATM    3  C   LIG     1      13.842  18.136  13.898  1.00  0.00    -0.056 A 
HETATM    4  C   LIG     1      12.357  18.183  14.154  1.00  0.00     0.049 C 
HETATM    5  C   LIG     1      14.286  17.986  12.573  1.00  0.00     0.007 A 
HETATM    6  C   LIG     1      15.646  17.936  12.281  1.00  0.00     0.001 A 
HETATM    7  C   LIG     1      16.586  18.036  13.302  1.00  0.00     0.007 A 
HETATM    8  C   LIG     1      16.179  18.188  14.636  1.00  0.00    -0.056 A 
HETATM    9  C   LIG     1      17.234  18.292  15.710  1.00  0.00     0.049 C 
ENDROOT
TORSDOF 0
ENDMDL
MODEL 19
REMARK VINA RESULT:      -3.7     15.226     16.452
REMARK  0 active torsions:
REMARK  status: ('A' for Active; 'I' for Inactive)
ROOT
HETATM    1  C   LIG     1      25.617  22.206  18.282  1.00  0.00     0.049 C 
HETATM    2  C   LIG     1      24.593  22.390  19.384  1.00  0.00    -0.050 A 
HETATM    3  C   LIG     1      23.281  21.849  19.280  1.00  0.00    -0.056 A 
HETATM    4  C   LIG     1      22.832  21.063  18.074  1.00  0.00     0.049 C 
HETATM    5  C   LIG     1      22.365  22.046  20.327  1.00  0.00     0.007 A 
HETATM    6  C   LIG     1      22.728  22.764  21.463  1.00  0.00     0.001 A 
HETATM    7  C   LIG     1      24.008  23.297  21.575  1.00  0.00     0.007 A 
HETATM    8  C   LIG     1      24.949  23.121  20.549  1.00  0.00    -0.056 A 
HETATM    9  C   LIG     1      26.324  23.718  20.714  1.00  0.00     0.049 C 
ENDROOT
TORSDOF 0
ENDMDL
