MODEL 1
REMARK VINA RESULT:      -6.8      0.000      0.000
REMARK  1 active torsions:
REMARK  status: ('A' for Active; 'I' for Inactive)
REMARK    1  A    between atoms: C_3  and  O_4 
ROOT
HETATM    1  C   LIG     1      16.622  38.126  23.077  1.00  0.00     0.052 C 
HETATM    2  C   LIG     1      17.062  37.141  24.138  1.00  0.00    -0.023 A 
HETATM    3  C   LIG     1      17.414  37.623  25.425  1.00  0.00     0.072 A 
HETATM    4  C   LIG     1      17.823  36.730  26.418  1.00  0.00     0.037 A 
HETATM    5  C   LIG     1      17.890  35.364  26.159  1.00  0.00     0.003 A 
HETATM    6  C   LIG     1      17.549  34.873  24.901  1.00  0.00     0.007 A 
HETATM    7  C   LIG     1      17.132  35.744  23.879  1.00  0.00    -0.053 A 
HETATM    8  C   LIG     1      16.774  35.159  22.537  1.00  0.00     0.049 C 
ENDROOT
BRANCH   3   9
HETATM    9  O   LIG     1      17.368  38.981  25.750  1.00  0.00    -0.360 OA
HETATM   10  H   LIG     1      17.926  39.399  26.483  1.00  0.00     0.217 HD
ENDBRANCH   3   9
TORSDOF 1
ENDMDL
MODEL 2
REMARK VINA RESULT:      -6.3      3.546      4.429
REMARK  1 active torsions:
REMARK  status: ('A' for Active; 'I' for Inactive)
REMARK    1  A    between atoms: C_3  and  O_4 
ROOT
HETATM    1  C   LIG     1      19.124  36.862  19.397  1.00  0.00     0.052 C 
HETATM    2  C   LIG     1      18.455  37.570  20.554  1.00  0.00    -0.023 A 
HETATM    3  C   LIG     1      18.881  38.876  20.905  1.00  0.00     0.072 A 
HETATM    4  C   LIG     1      18.275  39.547  21.970  1.00  0.00     0.037 A 
HETATM    5  C   LIG     1      17.253  38.945  22.698  1.00  0.00     0.003 A 
HETATM    6  C   LIG     1      16.823  37.662  22.369  1.00  0.00     0.007 A 
HETATM    7  C   LIG     1      17.410  36.959  21.301  1.00  0.00    -0.053 A 
HETATM    8  C   LIG     1      16.905  35.574  20.988  1.00  0.00     0.049 C 
ENDROOT
BRANCH   3   9
HETATM    9  O   LIG     1      19.900  39.537  20.215  1.00  0.00    -0.360 OA
HETATM   10  H   LIG     1      20.451  40.286  20.615  1.00  0.00     0.217 HD
ENDBRANCH   3   9
TORSDOF 1
ENDMDL
MODEL 3
REMARK VINA RESULT:      -6.1      3.269      4.679
REMARK  1 active torsions:
REMARK  status: ('A' for Active; 'I' for Inactive)
REMARK    1  A    between atoms: C_3  and  O_4 
ROOT
HETATM    1  C   LIG     1      16.874  38.201  22.697  1.00  0.00     0.052 C 
HETATM    2  C   LIG     1      17.814  38.021  21.526  1.00  0.00    -0.023 A 
HETATM    3  C   LIG     1      18.702  39.074  21.184  1.00  0.00     0.072 A 
HETATM    4  C   LIG     1      19.578  38.927  20.106  1.00  0.00     0.037 A 
HETATM    5  C   LIG     1      19.591  37.754  19.357  1.00  0.00     0.003 A 
HETATM    6  C   LIG     1      18.725  36.711  19.678  1.00  0.00     0.007 A 
HETATM    7  C   LIG     1      17.832  36.825  20.757  1.00  0.00    -0.053 A 
HETATM    8  C   LIG     1      16.918  35.665  21.060  1.00  0.00     0.049 C 
ENDROOT
BRANCH   3   9
HETATM    9  O   LIG     1      18.740  40.276  21.895  1.00  0.00    -0.360 OA
HETATM   10  H   LIG     1      17.932  40.680  22.353  1.00  0.00     0.217 HD
ENDBRANCH   3   9
TORSDOF 1
ENDMDL
MODEL 4
REMARK VINA RESULT:      -6.0      3.384      5.040
REMARK  1 active torsions:
REMARK  status: ('A' for Active; 'I' for Inactive)
REMARK    1  A    between atoms: C_3  and  O_4 
ROOT
HETATM    1  C   LIG     1      16.840  35.577  21.291  1.00  0.00     0.052 C 
HETATM    2  C   LIG     1      17.514  36.929  21.236  1.00  0.00    -0.023 A 
HETATM    3  C   LIG     1      18.330  37.251  20.122  1.00  0.00     0.072 A 
HETATM    4  C   LIG     1      18.962  38.495  20.052  1.00  0.00     0.037 A 
HETATM    5  C   LIG     1      18.801  39.430  21.071  1.00  0.00     0.003 A 
HETATM    6  C   LIG     1      18.004  39.131  22.174  1.00  0.00     0.007 A 
HETATM    7  C   LIG     1      17.353  37.889  22.275  1.00  0.00    -0.053 A 
HETATM    8  C   LIG     1      16.503  37.618  23.490  1.00  0.00     0.049 C 
ENDROOT
BRANCH   3   9
HETATM    9  O   LIG     1      18.533  36.359  19.066  1.00  0.00    -0.360 OA
HETATM   10  H   LIG     1      19.447  36.031  18.779  1.00  0.00     0.217 HD
ENDBRANCH   3   9
TORSDOF 1
ENDMDL
MODEL 5
REMARK VINA RESULT:      -6.0      1.022      2.698
REMARK  1 active torsions:
REMARK  status: ('A' for Active; 'I' for Inactive)
REMARK    1  A    between atoms: C_3  and  O_4 
ROOT
HETATM    1  C   LIG     1      17.303  34.936  25.070  1.00  0.00     0.052 C 
HETATM    2  C   LIG     1      17.208  36.212  24.264  1.00  0.00    -0.023 A 
HETATM    3  C   LIG     1      17.355  37.459  24.924  1.00  0.00     0.072 A 
HETATM    4  C   LIG     1      17.272  38.649  24.197  1.00  0.00     0.037 A 
HETATM    5  C   LIG     1      17.042  38.627  22.825  1.00  0.00     0.003 A 
HETATM    6  C   LIG     1      16.893  37.412  22.160  1.00  0.00     0.007 A 
HETATM    7  C   LIG     1      16.974  36.196  22.861  1.00  0.00    -0.053 A 
HETATM    8  C   LIG     1      16.806  34.910  22.092  1.00  0.00     0.049 C 
ENDROOT
BRANCH   3   9
HETATM    9  O   LIG     1      17.588  37.551  26.298  1.00  0.00    -0.360 OA
HETATM   10  H   LIG     1      17.658  38.430  26.795  1.00  0.00     0.217 HD
ENDBRANCH   3   9
TORSDOF 1
ENDMDL
MODEL 6
REMARK VINA RESULT:      -5.9      3.531      4.712
REMARK  1 active torsions:
REMARK  status: ('A' for Active; 'I' for Inactive)
REMARK    1  A    between atoms: C_3  and  O_4 
ROOT
HETATM    1  C   LIG     1      18.876  36.794  19.574  1.00  0.00     0.052 C 
HETATM    2  C   LIG     1      17.947  37.195  20.698  1.00  0.00    -0.023 A 
HETATM    3  C   LIG     1      16.973  36.269  21.154  1.00  0.00     0.072 A 
HETATM    4  C   LIG     1      16.106  36.619  22.192  1.00  0.00     0.037 A 
HETATM    5  C   LIG     1      16.184  37.875  22.787  1.00  0.00     0.003 A 
HETATM    6  C   LIG     1      17.133  38.797  22.352  1.00  0.00     0.007 A 
HETATM    7  C   LIG     1      18.022  38.476  21.311  1.00  0.00    -0.053 A 
HETATM    8  C   LIG     1      19.028  39.512  20.880  1.00  0.00     0.049 C 
ENDROOT
BRANCH   3   9
HETATM    9  O   LIG     1      16.843  34.993  20.600  1.00  0.00    -0.360 OA
HETATM   10  H   LIG     1      17.123  34.145  21.077  1.00  0.00     0.217 HD
ENDBRANCH   3   9
TORSDOF 1
ENDMDL
MODEL 7
REMARK VINA RESULT:      -5.8      1.615      2.897
REMARK  1 active torsions:
REMARK  status: ('A' for Active; 'I' for Inactive)
REMARK    1  A    between atoms: C_3  and  O_4 
ROOT
HETATM    1  C   LIG     1      17.016  34.904  22.913  1.00  0.00     0.052 C 
HETATM    2  C   LIG     1      17.191  36.138  23.770  1.00  0.00    -0.023 A 
HETATM    3  C   LIG     1      17.076  37.418  23.171  1.00  0.00     0.072 A 
HETATM    4  C   LIG     1      17.233  38.570  23.946  1.00  0.00     0.037 A 
HETATM    5  C   LIG     1      17.505  38.476  25.308  1.00  0.00     0.003 A 
HETATM    6  C   LIG     1      17.622  37.227  25.913  1.00  0.00     0.007 A 
HETATM    7  C   LIG     1      17.468  36.048  25.163  1.00  0.00    -0.053 A 
HETATM    8  C   LIG     1      17.605  34.724  25.869  1.00  0.00     0.049 C 
ENDROOT
BRANCH   3   9
HETATM    9  O   LIG     1      16.804  37.582  21.811  1.00  0.00    -0.360 OA
HETATM   10  H   LIG     1      15.997  37.181  21.350  1.00  0.00     0.217 HD
ENDBRANCH   3   9
TORSDOF 1
ENDMDL
MODEL 8
REMARK VINA RESULT:      -5.8      3.219      4.321
REMARK  1 active torsions:
REMARK  status: ('A' for Active; 'I' for Inactive)
REMARK    1  A    between atoms: C_3  and  O_4 
ROOT
HETATM    1  C   LIG     1      16.862  35.628  20.985  1.00  0.00     0.052 C 
HETATM    2  C   LIG     1      17.423  37.005  21.260  1.00  0.00    -0.023 A 
HETATM    3  C   LIG     1      16.854  37.790  22.296  1.00  0.00     0.072 A 
HETATM    4  C   LIG     1      17.359  39.064  22.566  1.00  0.00     0.037 A 
HETATM    5  C   LIG     1      18.419  39.578  21.826  1.00  0.00     0.003 A 
HETATM    6  C   LIG     1      18.989  38.823  20.803  1.00  0.00     0.007 A 
HETATM    7  C   LIG     1      18.506  37.536  20.506  1.00  0.00    -0.053 A 
HETATM    8  C   LIG     1      19.161  36.763  19.391  1.00  0.00     0.049 C 
ENDROOT
BRANCH   3   9
HETATM    9  O   LIG     1      15.790  37.332  23.077  1.00  0.00    -0.360 OA
HETATM   10  H   LIG     1      14.896  37.803  23.133  1.00  0.00     0.217 HD
ENDBRANCH   3   9
TORSDOF 1
ENDMDL
MODEL 9
REMARK VINA RESULT:      -5.7      9.407     10.680
REMARK  1 active torsions:
REMARK  status: ('A' for Active; 'I' for Inactive)
REMARK    1  A    between atoms: C_3  and  O_4 
ROOT
HETATM    1  C   LIG     1      16.799  32.423  15.092  1.00  0.00     0.052 C 
HETATM    2  C   LIG     1      15.449  31.899  15.530  1.00  0.00    -0.023 A 
HETATM    3  C   LIG     1      14.828  32.460  16.675  1.00  0.00     0.072 A 
HETATM    4  C   LIG     1      13.581  31.991  17.095  1.00  0.00     0.037 A 
HETATM    5  C   LIG     1      12.936  30.972  16.401  1.00  0.00     0.003 A 
HETATM    6  C   LIG     1      13.532  30.408  15.275  1.00  0.00     0.007 A 
HETATM    7  C   LIG     1      14.786  30.858  14.824  1.00  0.00    -0.053 A 
HETATM    8  C   LIG     1      15.383  30.213  13.600  1.00  0.00     0.049 C 
ENDROOT
BRANCH   3   9
HETATM    9  O   LIG     1      15.421  33.486  17.416  1.00  0.00    -0.360 OA
HETATM   10  H   LIG     1      15.947  33.328  18.267  1.00  0.00     0.217 HD
ENDBRANCH   3   9
TORSDOF 1
ENDMDL
MODEL 10
REMARK VINA RESULT:      -5.7     10.295     11.631
REMARK  1 active torsions:
REMARK  status: ('A' for Active; 'I' for Inactive)
REMARK    1  A    between atoms: C_3  and  O_4 
ROOT
HETATM    1  C   LIG     1      15.370  30.115  13.551  1.00  0.00     0.052 C 
HETATM    2  C   LIG     1      14.730  30.755  14.763  1.00  0.00    -0.023 A 
HETATM    3  C   LIG     1      13.463  30.293  15.201  1.00  0.00     0.072 A 
HETATM    4  C   LIG     1      12.856  30.871  16.319  1.00  0.00     0.037 A 
HETATM    5  C   LIG     1      13.482  31.903  17.011  1.00  0.00     0.003 A 
HETATM    6  C   LIG     1      14.725  32.371  16.594  1.00  0.00     0.007 A 
HETATM    7  C   LIG     1      15.365  31.811  15.475  1.00  0.00    -0.053 A 
HETATM    8  C   LIG     1      16.711  32.355  15.068  1.00  0.00     0.049 C 
ENDROOT
BRANCH   3   9
HETATM    9  O   LIG     1      12.782  29.260  14.551  1.00  0.00    -0.360 OA
HETATM   10  H   LIG     1      13.246  28.525  14.034  1.00  0.00     0.217 HD
ENDBRANCH   3   9
TORSDOF 1
ENDMDL
MODEL 11
REMARK VINA RESULT:      -5.6      2.109      4.018
REMARK  1 active torsions:
REMARK  status: ('A' for Active; 'I' for Inactive)
REMARK    1  A    between atoms: C_3  and  O_4 
ROOT
HETATM    1  C   LIG     1      17.227  34.932  24.819  1.00  0.00     0.052 C 
HETATM    2  C   LIG     1      17.206  36.140  23.909  1.00  0.00    -0.023 A 
HETATM    3  C   LIG     1      17.028  35.952  22.514  1.00  0.00     0.072 A 
HETATM    4  C   LIG     1      17.005  37.055  21.657  1.00  0.00     0.037 A 
HETATM    5  C   LIG     1      17.158  38.344  22.157  1.00  0.00     0.003 A 
HETATM    6  C   LIG     1      17.336  38.548  23.524  1.00  0.00     0.007 A 
HETATM    7  C   LIG     1      17.362  37.460  24.414  1.00  0.00    -0.053 A 
HETATM    8  C   LIG     1      17.557  37.738  25.883  1.00  0.00     0.049 C 
ENDROOT
BRANCH   3   9
HETATM    9  O   LIG     1      16.867  34.685  21.949  1.00  0.00    -0.360 OA
HETATM   10  H   LIG     1      16.253  33.977  22.330  1.00  0.00     0.217 HD
ENDBRANCH   3   9
TORSDOF 1
ENDMDL
MODEL 12
REMARK VINA RESULT:      -5.6      9.068     10.625
REMARK  1 active torsions:
REMARK  status: ('A' for Active; 'I' for Inactive)
REMARK    1  A    between atoms: C_3  and  O_4 
ROOT
HETATM    1  C   LIG     1      16.042  31.797  13.647  1.00  0.00     0.052 C 
HETATM    2  C   LIG     1      15.304  31.801  14.967  1.00  0.00    -0.023 A 
HETATM    3  C   LIG     1      15.573  32.830  15.906  1.00  0.00     0.072 A 
HETATM    4  C   LIG     1      14.902  32.853  17.131  1.00  0.00     0.037 A 
HETATM    5  C   LIG     1      13.968  31.871  17.446  1.00  0.00     0.003 A 
HETATM    6  C   LIG     1      13.692  30.851  16.537  1.00  0.00     0.007 A 
HETATM    7  C   LIG     1      14.348  30.800  15.295  1.00  0.00    -0.053 A 
HETATM    8  C   LIG     1      14.011  29.675  14.349  1.00  0.00     0.049 C 
ENDROOT
BRANCH   3   9
HETATM    9  O   LIG     1      16.498  33.846  15.652  1.00  0.00    -0.360 OA
HETATM   10  H   LIG     1      16.953  34.382  16.380  1.00  0.00     0.217 HD
ENDBRANCH   3   9
TORSDOF 1
ENDMDL
MODEL 13
REMARK VINA RESULT:      -5.6      9.007     10.953
REMARK  1 active torsions:
REMARK  status: ('A' for Active; 'I' for Inactive)
REMARK    1  A    between atoms: C_3  and  O_4 
ROOT
HETATM    1  C   LIG     1      15.009  33.448  17.066  1.00  0.00     0.052 C 
HETATM    2  C   LIG     1      14.794  32.254  16.163  1.00  0.00    -0.023 A 
HETATM    3  C   LIG     1      13.635  31.456  16.335  1.00  0.00     0.072 A 
HETATM    4  C   LIG     1      13.418  30.348  15.512  1.00  0.00     0.037 A 
HETATM    5  C   LIG     1      14.333  30.015  14.517  1.00  0.00     0.003 A 
HETATM    6  C   LIG     1      15.478  30.787  14.334  1.00  0.00     0.007 A 
HETATM    7  C   LIG     1      15.726  31.908  15.145  1.00  0.00    -0.053 A 
HETATM    8  C   LIG     1      16.980  32.708  14.902  1.00  0.00     0.049 C 
ENDROOT
BRANCH   3   9
HETATM    9  O   LIG     1      12.677  31.736  17.314  1.00  0.00    -0.360 OA
HETATM   10  H   LIG     1      12.405  31.078  18.034  1.00  0.00     0.217 HD
ENDBRANCH   3   9
TORSDOF 1
ENDMDL
MODEL 14
REMARK VINA RESULT:      -5.6      3.469      4.557
REMARK  1 active torsions:
REMARK  status: ('A' for Active; 'I' for Inactive)
REMARK    1  A    between atoms: C_3  and  O_4 
ROOT
HETATM    1  C   LIG     1      18.810  39.088  20.555  1.00  0.00     0.052 C 
HETATM    2  C   LIG     1      18.016  37.915  21.085  1.00  0.00    -0.023 A 
HETATM    3  C   LIG     1      18.072  36.675  20.399  1.00  0.00     0.072 A 
HETATM    4  C   LIG     1      17.346  35.579  20.872  1.00  0.00     0.037 A 
HETATM    5  C   LIG     1      16.562  35.690  22.017  1.00  0.00     0.003 A 
HETATM    6  C   LIG     1      16.493  36.900  22.703  1.00  0.00     0.007 A 
HETATM    7  C   LIG     1      17.213  38.022  22.254  1.00  0.00    -0.053 A 
HETATM    8  C   LIG     1      17.103  39.306  23.036  1.00  0.00     0.049 C 
ENDROOT
BRANCH   3   9
HETATM    9  O   LIG     1      18.840  36.497  19.245  1.00  0.00    -0.360 OA
HETATM   10  H   LIG     1      19.755  36.909  19.114  1.00  0.00     0.217 HD
ENDBRANCH   3   9
TORSDOF 1
ENDMDL
MODEL 15
REMARK VINA RESULT:      -5.6      9.600     11.240
REMARK  1 active torsions:
REMARK  status: ('A' for Active; 'I' for Inactive)
REMARK    1  A    between atoms: C_3  and  O_4 
ROOT
HETATM    1  C   LIG     1      13.623  29.522  14.286  1.00  0.00     0.052 C 
HETATM    2  C   LIG     1      14.097  30.643  15.184  1.00  0.00    -0.023 A 
HETATM    3  C   LIG     1      13.416  30.888  16.404  1.00  0.00     0.072 A 
HETATM    4  C   LIG     1      13.838  31.918  17.247  1.00  0.00     0.037 A 
HETATM    5  C   LIG     1      14.926  32.715  16.903  1.00  0.00     0.003 A 
HETATM    6  C   LIG     1      15.606  32.490  15.708  1.00  0.00     0.007 A 
HETATM    7  C   LIG     1      15.208  31.461  14.837  1.00  0.00    -0.053 A 
HETATM    8  C   LIG     1      15.981  31.262  13.558  1.00  0.00     0.049 C 
ENDROOT
BRANCH   3   9
HETATM    9  O   LIG     1      12.318  30.124  16.808  1.00  0.00    -0.360 OA
HETATM   10  H   LIG     1      11.939  29.358  16.265  1.00  0.00     0.217 HD
ENDBRANCH   3   9
TORSDOF 1
ENDMDL
MODEL 16
REMARK VINA RESULT:      -5.4      9.363     11.318
REMARK  1 active torsions:
REMARK  status: ('A' for Active; 'I' for Inactive)
REMARK    1  A    between atoms: C_3  and  O_4 
ROOT
HETATM    1  C   LIG     1      16.769  32.588  14.866  1.00  0.00     0.052 C 
HETATM    2  C   LIG     1      15.494  31.883  15.270  1.00  0.00    -0.023 A 
HETATM    3  C   LIG     1      15.053  30.765  14.516  1.00  0.00     0.072 A 
HETATM    4  C   LIG     1      13.878  30.100  14.872  1.00  0.00     0.037 A 
HETATM    5  C   LIG     1      13.127  30.523  15.965  1.00  0.00     0.003 A 
HETATM    6  C   LIG     1      13.543  31.620  16.716  1.00  0.00     0.007 A 
HETATM    7  C   LIG     1      14.722  32.311  16.385  1.00  0.00    -0.053 A 
HETATM    8  C   LIG     1      15.126  33.491  17.233  1.00  0.00     0.049 C 
ENDROOT
BRANCH   3   9
HETATM    9  O   LIG     1      15.760  30.289  13.409  1.00  0.00    -0.360 OA
HETATM   10  H   LIG     1      16.721  30.537  13.211  1.00  0.00     0.217 HD
ENDBRANCH   3   9
TORSDOF 1
ENDMDL
MODEL 17
REMARK VINA RESULT:      -5.3      8.924     11.026
REMARK  1 active torsions:
REMARK  status: ('A' for Active; 'I' for Inactive)
REMARK    1  A    between atoms: C_3  and  O_4 
ROOT
HETATM    1  C   LIG     1      14.929  33.001  17.308  1.00  0.00     0.052 C 
HETATM    2  C   LIG     1      15.104  32.254  16.005  1.00  0.00    -0.023 A 
HETATM    3  C   LIG     1      16.082  32.698  15.078  1.00  0.00     0.072 A 
HETATM    4  C   LIG     1      16.259  32.022  13.869  1.00  0.00     0.037 A 
HETATM    5  C   LIG     1      15.482  30.910  13.558  1.00  0.00     0.003 A 
HETATM    6  C   LIG     1      14.516  30.460  14.455  1.00  0.00     0.007 A 
HETATM    7  C   LIG     1      14.312  31.117  15.681  1.00  0.00    -0.053 A 
HETATM    8  C   LIG     1      13.254  30.587  16.614  1.00  0.00     0.049 C 
ENDROOT
BRANCH   3   9
HETATM    9  O   LIG     1      16.895  33.807  15.329  1.00  0.00    -0.360 OA
HETATM   10  H   LIG     1      17.815  33.741  15.747  1.00  0.00     0.217 HD
ENDBRANCH   3   9
TORSDOF 1
ENDMDL
MODEL 18
REMARK VINA RESULT:      -5.3      9.826     11.953
REMARK  1 active torsions:
REMARK  status: ('A' for Active; 'I' for Inactive)
REMARK    1  A    between atoms: C_3  and  O_4 
ROOT
HETATM    1  C   LIG     1      13.004  30.521  16.429  1.00  0.00     0.052 C 
HETATM    2  C   LIG     1      14.132  30.945  15.515  1.00  0.00    -0.023 A 
HETATM    3  C   LIG     1      14.343  30.239  14.303  1.00  0.00     0.072 A 
HETATM    4  C   LIG     1      15.379  30.615  13.445  1.00  0.00     0.037 A 
HETATM    5  C   LIG     1      16.214  31.680  13.767  1.00  0.00     0.003 A 
HETATM    6  C   LIG     1      16.023  32.384  14.953  1.00  0.00     0.007 A 
HETATM    7  C   LIG     1      14.989  32.033  15.839  1.00  0.00    -0.053 A 
HETATM    8  C   LIG     1      14.828  32.830  17.108  1.00  0.00     0.049 C 
ENDROOT
BRANCH   3   9
HETATM    9  O   LIG     1      13.540  29.161  13.921  1.00  0.00    -0.360 OA
HETATM   10  H   LIG     1      12.754  28.829  14.466  1.00  0.00     0.217 HD
ENDBRANCH   3   9
TORSDOF 1
ENDMDL
MODEL 19
REMARK VINA RESULT:      -5.2      9.529     11.057
REMARK  1 active torsions:
REMARK  status: ('A' for Active; 'I' for Inactive)
REMARK    1  A    between atoms: C_3  and  O_4 
ROOT
HETATM    1  C   LIG     1      14.929  30.028  13.882  1.00  0.00     0.052 C 
HETATM    2  C   LIG     1      15.013  31.150  14.892  1.00  0.00    -0.023 A 
HETATM    3  C   LIG     1      16.067  32.094  14.790  1.00  0.00     0.072 A 
HETATM    4  C   LIG     1      16.162  33.139  15.713  1.00  0.00     0.037 A 
HETATM    5  C   LIG     1      15.231  33.264  16.740  1.00  0.00     0.003 A 
HETATM    6  C   LIG     1      14.191  32.345  16.856  1.00  0.00     0.007 A 
HETATM    7  C   LIG     1      14.065  31.284  15.944  1.00  0.00    -0.053 A 
HETATM    8  C   LIG     1      12.919  30.319  16.116  1.00  0.00     0.049 C 
ENDROOT
BRANCH   3   9
HETATM    9  O   LIG     1      17.033  32.025  13.784  1.00  0.00    -0.360 OA
HETATM   10  H   LIG     1      16.922  32.452  12.873  1.00  0.00     0.217 HD
ENDBRANCH   3   9
TORSDOF 1
ENDMDL
MODEL 20
REMARK VINA RESULT:      -4.5     11.717     13.636
REMARK  1 active torsions:
REMARK  status: ('A' for Active; 'I' for Inactive)
REMARK    1  A    between atoms: C_3  and  O_4 
ROOT
HETATM    1  C   LIG     1      18.671  33.669  13.836  1.00  0.00     0.052 C 
HETATM    2  C   LIG     1      19.189  34.166  12.504  1.00  0.00    -0.023 A 
HETATM    3  C   LIG     1      18.272  34.692  11.558  1.00  0.00     0.072 A 
HETATM    4  C   LIG     1      18.730  35.156  10.323  1.00  0.00     0.037 A 
HETATM    5  C   LIG     1      20.084  35.107  10.005  1.00  0.00     0.003 A 
HETATM    6  C   LIG     1      20.999  34.592  10.921  1.00  0.00     0.007 A 
HETATM    7  C   LIG     1      20.572  34.118  12.174  1.00  0.00    -0.053 A 
HETATM    8  C   LIG     1      21.604  33.573  13.127  1.00  0.00     0.049 C 
ENDROOT
BRANCH   3   9
HETATM    9  O   LIG     1      16.901  34.770  11.815  1.00  0.00    -0.360 OA
HETATM   10  H   LIG     1      16.291  35.457  11.389  1.00  0.00     0.217 HD
ENDBRANCH   3   9
TORSDOF 1
ENDMDL
