REMARK  0 active torsions:
REMARK  status: ('A' for Active; 'I' for Inactive)
ROOT
HETATM    1  C   LIG     1       0.319  -1.911  -0.365  1.00  0.00     0.049 C 
HETATM    2  C   LIG     1       0.086  -0.440  -0.085  1.00  0.00    -0.050 A 
HETATM    3  C   LIG     1       1.168   0.476   0.036  1.00  0.00    -0.056 A 
HETATM    4  C   LIG     1       2.605   0.042  -0.107  1.00  0.00     0.049 C 
HETATM    5  C   LIG     1       0.903   1.831   0.296  1.00  0.00     0.007 A 
HETATM    6  C   LIG     1      -0.405   2.285   0.437  1.00  0.00     0.001 A 
HETATM    7  C   LIG     1      -1.471   1.398   0.321  1.00  0.00     0.007 A 
HETATM    8  C   LIG     1      -1.244   0.038   0.061  1.00  0.00    -0.056 A 
HETATM    9  C   LIG     1      -2.430  -0.887  -0.056  1.00  0.00     0.049 C 
ENDROOT
TORSDOF 0
