REMARK  7 active torsions:
REMARK  status: ('A' for Active; 'I' for Inactive)
REMARK    1  A    between atoms: C_4  and  C_5 
REMARK    2  A    between atoms: C_9  and  C_10 
REMARK    3  A    between atoms: C_10  and  O_11 
REMARK    4  A    between atoms: O_11  and  C_12 
REMARK    5  A    between atoms: C_12  and  C_13 
REMARK    6  A    between atoms: C_17  and  O_18 
REMARK    7  A    between atoms: O_18  and  C_19 
ROOT
HETATM    1  C   LIG     1      -0.627   1.460   1.248  1.00  0.00    -0.031 A 
HETATM    2  C   LIG     1      -0.046   2.672   0.845  1.00  0.00     0.009 A 
HETATM    3  C   LIG     1      -0.354   3.220  -0.402  1.00  0.00     0.003 A 
HETATM    4  C   LIG     1      -1.252   2.568  -1.252  1.00  0.00     0.037 A 
HETATM    5  C   LIG     1      -1.859   1.371  -0.857  1.00  0.00     0.076 A 
HETATM    6  C   LIG     1      -1.531   0.810   0.392  1.00  0.00     0.046 A 
ENDROOT
BRANCH   1   7
HETATM    7  C   LIG     1      -0.249   0.849   2.570  1.00  0.00     0.217 C 
BRANCH   7   8
HETATM    8  O   LIG     1       1.089   0.356   2.519  1.00  0.00    -0.317 OA
BRANCH   8   9
HETATM    9  C   LIG     1       1.455  -0.780   1.789  1.00  0.00     0.264 C 
HETATM   10  O   LIG     1       0.572  -1.520   1.273  1.00  0.00    -0.265 OA
BRANCH   9  11
HETATM   11  C   LIG     1       2.901  -1.182   1.705  1.00  0.00     0.102 A 
HETATM   12  C   LIG     1       3.485  -1.460   0.309  1.00  0.00    -0.027 A 
HETATM   13  C   LIG     1       2.570  -1.325  -0.926  1.00  0.00     0.016 C 
HETATM   14  C   LIG     1       4.539  -2.570   0.255  1.00  0.00     0.016 C 
HETATM   15  C   LIG     1       3.905  -0.194   1.073  1.00  0.00     0.034 A 
BRANCH  15  16
HETATM   16  C   LIG     1       3.401   1.121   0.525  1.00  0.00     0.016 C 
HETATM   17  C   LIG     1       3.956   1.712  -0.543  1.00  0.00     0.100 C 
HETATM   18 CL   LIG     1       3.337   3.259  -1.095  1.00  0.00    -0.071 Cl
HETATM   19 CL   LIG     1       5.311   0.996  -1.412  1.00  0.00    -0.071 Cl
ENDBRANCH  15  16
ENDBRANCH   9  11
ENDBRANCH   8   9
ENDBRANCH   7   8
ENDBRANCH   1   7
BRANCH   5  20
HETATM   20  O   LIG     1      -2.742   0.740  -1.745  1.00  0.00    -0.311 OA
BRANCH  20  21
HETATM   21  C   LIG     1      -3.828  -0.069  -1.376  1.00  0.00     0.076 A 
HETATM   22  C   LIG     1      -4.226  -1.097  -2.240  1.00  0.00     0.037 A 
HETATM   23  C   LIG     1      -5.312  -1.914  -1.914  1.00  0.00     0.003 A 
HETATM   24  C   LIG     1      -6.017  -1.701  -0.726  1.00  0.00     0.000 A 
HETATM   25  C   LIG     1      -5.641  -0.665   0.133  1.00  0.00     0.003 A 
HETATM   26  C   LIG     1      -4.554   0.154  -0.191  1.00  0.00     0.037 A 
ENDBRANCH  20  21
ENDBRANCH   5  20
TORSDOF 7
