REMARK  1 active torsions:
REMARK  status: ('A' for Active; 'I' for Inactive)
REMARK    1  A    between atoms: C_3  and  C_10 
ROOT
HETATM    1 CL   LIG     1       0.679   0.411   2.671  1.00  0.00    -0.082 Cl
HETATM    2  C   LIG     1       1.473   0.080   1.128  1.00  0.00     0.068 A 
HETATM    3  C   LIG     1       0.704  -0.094  -0.042  1.00  0.00    -0.001 A 
HETATM    4  C   LIG     1       1.341  -0.395  -1.253  1.00  0.00     0.016 A 
HETATM    5  C   LIG     1       2.730  -0.507  -1.310  1.00  0.00     0.026 A 
HETATM    6  C   LIG     1       3.501  -0.325  -0.159  1.00  0.00     0.057 A 
HETATM    7 CL   LIG     1       5.249  -0.475  -0.282  1.00  0.00    -0.082 Cl
HETATM    8  C   LIG     1       2.876  -0.033   1.067  1.00  0.00     0.078 A 
HETATM    9 CL   LIG     1       3.850   0.186   2.521  1.00  0.00    -0.081 Cl
ENDROOT
BRANCH   3  10
HETATM   10  C   LIG     1      -0.768   0.023  -0.018  1.00  0.00    -0.001 A 
HETATM   11  C   LIG     1      -1.544  -1.144  -0.085  1.00  0.00     0.014 A 
HETATM   12  C   LIG     1      -2.938  -1.066  -0.060  1.00  0.00     0.003 A 
HETATM   13  C   LIG     1      -3.568   0.177   0.027  1.00  0.00     0.026 A 
HETATM   14  C   LIG     1      -2.808   1.351   0.084  1.00  0.00     0.056 A 
HETATM   15  C   LIG     1      -1.403   1.281   0.058  1.00  0.00     0.066 A 
HETATM   16 CL   LIG     1      -3.646   2.894   0.182  1.00  0.00    -0.083 Cl
HETATM   17 CL   LIG     1      -0.446   2.765   0.095  1.00  0.00    -0.082 Cl
ENDBRANCH   3  10
TORSDOF 1
