MODEL 1
REMARK VINA RESULT:      -5.1      0.000      0.000
REMARK  1 active torsions:
REMARK  status: ('A' for Active; 'I' for Inactive)
REMARK    1  A    between atoms: C_3  and  C_4 
ROOT
HETATM    1 CL   LIG     1      26.058  21.289  22.313  1.00  0.00    -0.083 Cl
HETATM    2  C   LIG     1      26.536  22.764  21.478  1.00  0.00     0.048 A 
HETATM    3  C   LIG     1      26.026  23.086  20.206  1.00  0.00     0.021 A 
HETATM    4  C   LIG     1      26.437  24.275  19.569  1.00  0.00     0.070 A 
HETATM    5 CL   LIG     1      25.798  24.696  17.976  1.00  0.00    -0.081 Cl
HETATM    6  C   LIG     1      27.358  25.130  20.204  1.00  0.00     0.078 A 
HETATM    7 CL   LIG     1      27.882  26.619  19.415  1.00  0.00    -0.081 Cl
HETATM    8  C   LIG     1      27.862  24.796  21.473  1.00  0.00     0.059 A 
HETATM    9 CL   LIG     1      29.014  25.834  22.303  1.00  0.00    -0.082 Cl
HETATM   10  C   LIG     1      27.448  23.618  22.101  1.00  0.00     0.050 A 
ENDROOT
BRANCH   3  11
HETATM   11  C   LIG     1      25.063  22.181  19.545  1.00  0.00     0.001 A 
HETATM   12  C   LIG     1      25.499  21.369  18.489  1.00  0.00     0.039 A 
HETATM   13  C   LIG     1      24.608  20.503  17.845  1.00  0.00     0.056 A 
HETATM   14  C   LIG     1      23.267  20.446  18.261  1.00  0.00     0.057 A 
HETATM   15 CL   LIG     1      25.198  19.501  16.526  1.00  0.00    -0.083 Cl
HETATM   16  C   LIG     1      22.830  21.257  19.314  1.00  0.00     0.050 A 
HETATM   17 CL   LIG     1      22.115  19.371  17.478  1.00  0.00    -0.082 Cl
HETATM   18  C   LIG     1      23.719  22.123  19.958  1.00  0.00     0.046 A 
HETATM   19 CL   LIG     1      23.122  23.129  21.273  1.00  0.00    -0.083 Cl
ENDBRANCH   3  11
TORSDOF 1
ENDMDL
MODEL 2
REMARK VINA RESULT:      -5.1      0.784      2.486
REMARK  1 active torsions:
REMARK  status: ('A' for Active; 'I' for Inactive)
REMARK    1  A    between atoms: C_3  and  C_4 
ROOT
HETATM    1 CL   LIG     1      25.826  25.139  18.321  1.00  0.00    -0.083 Cl
HETATM    2  C   LIG     1      26.528  24.591  19.841  1.00  0.00     0.048 A 
HETATM    3  C   LIG     1      26.196  23.339  20.393  1.00  0.00     0.021 A 
HETATM    4  C   LIG     1      26.777  22.939  21.615  1.00  0.00     0.070 A 
HETATM    5 CL   LIG     1      26.377  21.367  22.315  1.00  0.00    -0.081 Cl
HETATM    6  C   LIG     1      27.679  23.794  22.277  1.00  0.00     0.078 A 
HETATM    7 CL   LIG     1      28.409  23.305  23.807  1.00  0.00    -0.081 Cl
HETATM    8  C   LIG     1      28.000  25.042  21.716  1.00  0.00     0.059 A 
HETATM    9 CL   LIG     1      29.121  26.141  22.509  1.00  0.00    -0.082 Cl
HETATM   10  C   LIG     1      27.424  25.432  20.504  1.00  0.00     0.050 A 
ENDROOT
BRANCH   3  11
HETATM   11  C   LIG     1      25.246  22.451  19.693  1.00  0.00     0.001 A 
HETATM   12  C   LIG     1      25.701  21.668  18.622  1.00  0.00     0.039 A 
HETATM   13  C   LIG     1      24.822  20.818  17.941  1.00  0.00     0.056 A 
HETATM   14  C   LIG     1      23.475  20.748  18.334  1.00  0.00     0.057 A 
HETATM   15 CL   LIG     1      25.435  19.854  16.605  1.00  0.00    -0.083 Cl
HETATM   16  C   LIG     1      23.019  21.529  19.402  1.00  0.00     0.050 A 
HETATM   17 CL   LIG     1      22.338  19.692  17.505  1.00  0.00    -0.082 Cl
HETATM   18  C   LIG     1      23.896  22.379  20.083  1.00  0.00     0.046 A 
HETATM   19 CL   LIG     1      23.275  23.349  21.415  1.00  0.00    -0.083 Cl
ENDBRANCH   3  11
TORSDOF 1
ENDMDL
MODEL 3
REMARK VINA RESULT:      -5.0      1.208      6.058
REMARK  1 active torsions:
REMARK  status: ('A' for Active; 'I' for Inactive)
REMARK    1  A    between atoms: C_3  and  C_4 
ROOT
HETATM    1 CL   LIG     1      23.417  23.316  21.545  1.00  0.00    -0.083 Cl
HETATM    2  C   LIG     1      24.025  22.390  20.176  1.00  0.00     0.048 A 
HETATM    3  C   LIG     1      25.376  22.459  19.785  1.00  0.00     0.021 A 
HETATM    4  C   LIG     1      25.823  21.704  18.681  1.00  0.00     0.070 A 
HETATM    5 CL   LIG     1      27.518  21.774  18.185  1.00  0.00    -0.081 Cl
HETATM    6  C   LIG     1      24.917  20.891  17.973  1.00  0.00     0.078 A 
HETATM    7 CL   LIG     1      25.464  19.945  16.587  1.00  0.00    -0.081 Cl
HETATM    8  C   LIG     1      23.571  20.833  18.372  1.00  0.00     0.059 A 
HETATM    9 CL   LIG     1      22.404  19.832  17.516  1.00  0.00    -0.082 Cl
HETATM   10  C   LIG     1      23.134  21.580  19.469  1.00  0.00     0.050 A 
ENDROOT
BRANCH   3  11
HETATM   11  C   LIG     1      26.319  23.317  20.532  1.00  0.00     0.001 A 
HETATM   12  C   LIG     1      26.882  22.841  21.725  1.00  0.00     0.039 A 
HETATM   13  C   LIG     1      27.778  23.633  22.452  1.00  0.00     0.056 A 
HETATM   14  C   LIG     1      28.115  24.913  21.984  1.00  0.00     0.057 A 
HETATM   15 CL   LIG     1      28.461  22.995  23.941  1.00  0.00    -0.083 Cl
HETATM   16  C   LIG     1      27.553  25.391  20.795  1.00  0.00     0.050 A 
HETATM   17 CL   LIG     1      29.237  25.940  22.868  1.00  0.00    -0.082 Cl
HETATM   18  C   LIG     1      26.658  24.601  20.067  1.00  0.00     0.046 A 
HETATM   19 CL   LIG     1      25.970  25.247  18.581  1.00  0.00    -0.083 Cl
ENDBRANCH   3  11
TORSDOF 1
ENDMDL
MODEL 4
REMARK VINA RESULT:      -4.9      2.222      5.883
REMARK  1 active torsions:
REMARK  status: ('A' for Active; 'I' for Inactive)
REMARK    1  A    between atoms: C_3  and  C_4 
ROOT
HETATM    1 CL   LIG     1      22.818  23.799  21.624  1.00  0.00    -0.083 Cl
HETATM    2  C   LIG     1      23.518  22.184  21.674  1.00  0.00     0.048 A 
HETATM    3  C   LIG     1      24.781  21.913  21.113  1.00  0.00     0.021 A 
HETATM    4  C   LIG     1      25.304  20.605  21.171  1.00  0.00     0.070 A 
HETATM    5 CL   LIG     1      26.892  20.253  20.480  1.00  0.00    -0.081 Cl
HETATM    6  C   LIG     1      24.561  19.576  21.782  1.00  0.00     0.078 A 
HETATM    7 CL   LIG     1      25.205  17.935  21.855  1.00  0.00    -0.081 Cl
HETATM    8  C   LIG     1      23.301  19.859  22.335  1.00  0.00     0.059 A 
HETATM    9 CL   LIG     1      22.337  18.606  23.107  1.00  0.00    -0.082 Cl
HETATM   10  C   LIG     1      22.788  21.158  22.279  1.00  0.00     0.050 A 
ENDROOT
BRANCH   3  11
HETATM   11  C   LIG     1      25.552  22.997  20.471  1.00  0.00     0.001 A 
HETATM   12  C   LIG     1      26.456  23.744  21.241  1.00  0.00     0.039 A 
HETATM   13  C   LIG     1      27.199  24.777  20.658  1.00  0.00     0.056 A 
HETATM   14  C   LIG     1      27.039  25.067  19.293  1.00  0.00     0.057 A 
HETATM   15 CL   LIG     1      28.323  25.686  21.659  1.00  0.00    -0.083 Cl
HETATM   16  C   LIG     1      26.136  24.324  18.524  1.00  0.00     0.050 A 
HETATM   17 CL   LIG     1      27.954  26.357  18.522  1.00  0.00    -0.082 Cl
HETATM   18  C   LIG     1      25.392  23.292  19.105  1.00  0.00     0.046 A 
HETATM   19 CL   LIG     1      24.263  22.390  18.100  1.00  0.00    -0.083 Cl
ENDBRANCH   3  11
TORSDOF 1
ENDMDL
MODEL 5
REMARK VINA RESULT:      -4.8      3.360      4.921
REMARK  1 active torsions:
REMARK  status: ('A' for Active; 'I' for Inactive)
REMARK    1  A    between atoms: C_3  and  C_4 
ROOT
HETATM    1 CL   LIG     1      26.137  23.073  22.238  1.00  0.00    -0.083 Cl
HETATM    2  C   LIG     1      25.121  22.277  23.435  1.00  0.00     0.048 A 
HETATM    3  C   LIG     1      24.175  21.302  23.064  1.00  0.00     0.021 A 
HETATM    4  C   LIG     1      23.377  20.691  24.054  1.00  0.00     0.070 A 
HETATM    5 CL   LIG     1      22.193  19.459  23.603  1.00  0.00    -0.081 Cl
HETATM    6  C   LIG     1      23.526  21.061  25.404  1.00  0.00     0.078 A 
HETATM    7 CL   LIG     1      22.530  20.305  26.649  1.00  0.00    -0.081 Cl
HETATM    8  C   LIG     1      24.472  22.037  25.761  1.00  0.00     0.059 A 
HETATM    9 CL   LIG     1      24.690  22.532  27.435  1.00  0.00    -0.082 Cl
HETATM   10  C   LIG     1      25.262  22.637  24.777  1.00  0.00     0.050 A 
ENDROOT
BRANCH   3  11
HETATM   11  C   LIG     1      24.023  20.922  21.644  1.00  0.00     0.001 A 
HETATM   12  C   LIG     1      24.789  19.865  21.132  1.00  0.00     0.039 A 
HETATM   13  C   LIG     1      24.665  19.484  19.791  1.00  0.00     0.056 A 
HETATM   14  C   LIG     1      23.768  20.166  18.952  1.00  0.00     0.057 A 
HETATM   15 CL   LIG     1      25.643  18.152  19.191  1.00  0.00    -0.083 Cl
HETATM   16  C   LIG     1      23.004  21.222  19.461  1.00  0.00     0.050 A 
HETATM   17 CL   LIG     1      23.583  19.718  17.261  1.00  0.00    -0.082 Cl
HETATM   18  C   LIG     1      23.127  21.604  20.801  1.00  0.00     0.046 A 
HETATM   19 CL   LIG     1      22.151  22.944  21.395  1.00  0.00    -0.083 Cl
ENDBRANCH   3  11
TORSDOF 1
ENDMDL
MODEL 6
REMARK VINA RESULT:      -4.5      2.114      5.633
REMARK  1 active torsions:
REMARK  status: ('A' for Active; 'I' for Inactive)
REMARK    1  A    between atoms: C_3  and  C_4 
ROOT
HETATM    1 CL   LIG     1      23.972  22.538  17.879  1.00  0.00    -0.083 Cl
HETATM    2  C   LIG     1      24.342  22.390  19.594  1.00  0.00     0.048 A 
HETATM    3  C   LIG     1      25.552  22.875  20.129  1.00  0.00     0.021 A 
HETATM    4  C   LIG     1      25.812  22.734  21.508  1.00  0.00     0.070 A 
HETATM    5 CL   LIG     1      27.321  23.346  22.193  1.00  0.00    -0.081 Cl
HETATM    6  C   LIG     1      24.866  22.105  22.341  1.00  0.00     0.078 A 
HETATM    7 CL   LIG     1      25.183  21.920  24.067  1.00  0.00    -0.081 Cl
HETATM    8  C   LIG     1      23.664  21.624  21.794  1.00  0.00     0.059 A 
HETATM    9 CL   LIG     1      22.455  20.832  22.797  1.00  0.00    -0.082 Cl
HETATM   10  C   LIG     1      23.410  21.769  20.428  1.00  0.00     0.050 A 
ENDROOT
BRANCH   3  11
HETATM   11  C   LIG     1      26.540  23.529  19.247  1.00  0.00     0.001 A 
HETATM   12  C   LIG     1      26.711  24.919  19.322  1.00  0.00     0.039 A 
HETATM   13  C   LIG     1      27.640  25.565  18.498  1.00  0.00     0.056 A 
HETATM   14  C   LIG     1      28.406  24.816  17.590  1.00  0.00     0.057 A 
HETATM   15 CL   LIG     1      27.823  27.309  18.627  1.00  0.00    -0.083 Cl
HETATM   16  C   LIG     1      28.235  23.429  17.512  1.00  0.00     0.050 A 
HETATM   17 CL   LIG     1      29.584  25.589  16.537  1.00  0.00    -0.082 Cl
HETATM   18  C   LIG     1      27.307  22.782  18.334  1.00  0.00     0.046 A 
HETATM   19 CL   LIG     1      27.121  21.037  18.196  1.00  0.00    -0.083 Cl
ENDBRANCH   3  11
TORSDOF 1
ENDMDL
MODEL 7
REMARK VINA RESULT:      -4.5      3.519      5.333
REMARK  1 active torsions:
REMARK  status: ('A' for Active; 'I' for Inactive)
REMARK    1  A    between atoms: C_3  and  C_4 
ROOT
HETATM    1 CL   LIG     1      27.830  23.681  22.256  1.00  0.00    -0.083 Cl
HETATM    2  C   LIG     1      27.383  23.860  23.950  1.00  0.00     0.048 A 
HETATM    3  C   LIG     1      26.275  23.180  24.493  1.00  0.00     0.021 A 
HETATM    4  C   LIG     1      25.949  23.354  25.854  1.00  0.00     0.070 A 
HETATM    5 CL   LIG     1      24.567  22.500  26.550  1.00  0.00    -0.081 Cl
HETATM    6  C   LIG     1      26.726  24.207  26.660  1.00  0.00     0.078 A 
HETATM    7 CL   LIG     1      26.324  24.433  28.364  1.00  0.00    -0.081 Cl
HETATM    8  C   LIG     1      27.827  24.881  26.106  1.00  0.00     0.059 A 
HETATM    9 CL   LIG     1      28.825  25.957  27.076  1.00  0.00    -0.082 Cl
HETATM   10  C   LIG     1      28.149  24.703  24.758  1.00  0.00     0.050 A 
ENDROOT
BRANCH   3  11
HETATM   11  C   LIG     1      25.463  22.290  23.638  1.00  0.00     0.001 A 
HETATM   12  C   LIG     1      24.356  22.816  22.957  1.00  0.00     0.039 A 
HETATM   13  C   LIG     1      23.570  21.995  22.141  1.00  0.00     0.056 A 
HETATM   14  C   LIG     1      23.891  20.635  22.004  1.00  0.00     0.057 A 
HETATM   15 CL   LIG     1      22.192  22.697  21.304  1.00  0.00    -0.083 Cl
HETATM   16  C   LIG     1      24.995  20.107  22.684  1.00  0.00     0.050 A 
HETATM   17 CL   LIG     1      22.928  19.569  20.988  1.00  0.00    -0.082 Cl
HETATM   18  C   LIG     1      25.782  20.926  23.500  1.00  0.00     0.046 A 
HETATM   19 CL   LIG     1      27.155  20.217  24.343  1.00  0.00    -0.083 Cl
ENDBRANCH   3  11
TORSDOF 1
ENDMDL
MODEL 8
REMARK VINA RESULT:      -4.4      2.481      5.013
REMARK  1 active torsions:
REMARK  status: ('A' for Active; 'I' for Inactive)
REMARK    1  A    between atoms: C_3  and  C_4 
ROOT
HETATM    1 CL   LIG     1      23.960  22.274  17.892  1.00  0.00    -0.083 Cl
HETATM    2  C   LIG     1      24.537  22.245  19.555  1.00  0.00     0.048 A 
HETATM    3  C   LIG     1      25.846  22.647  19.885  1.00  0.00     0.021 A 
HETATM    4  C   LIG     1      26.271  22.606  21.229  1.00  0.00     0.070 A 
HETATM    5 CL   LIG     1      27.907  23.116  21.659  1.00  0.00    -0.081 Cl
HETATM    6  C   LIG     1      25.389  22.160  22.232  1.00  0.00     0.078 A 
HETATM    7 CL   LIG     1      25.911  22.101  23.916  1.00  0.00    -0.081 Cl
HETATM    8  C   LIG     1      24.086  21.759  21.889  1.00  0.00     0.059 A 
HETATM    9 CL   LIG     1      22.951  21.194  23.108  1.00  0.00    -0.082 Cl
HETATM   10  C   LIG     1      23.669  21.805  20.556  1.00  0.00     0.050 A 
ENDROOT
BRANCH   3  11
HETATM   11  C   LIG     1      26.766  23.111  18.826  1.00  0.00     0.001 A 
HETATM   12  C   LIG     1      27.517  22.168  18.110  1.00  0.00     0.039 A 
HETATM   13  C   LIG     1      28.396  22.580  17.101  1.00  0.00     0.056 A 
HETATM   14  C   LIG     1      28.527  23.946  16.805  1.00  0.00     0.057 A 
HETATM   15 CL   LIG     1      29.318  21.364  16.228  1.00  0.00    -0.083 Cl
HETATM   16  C   LIG     1      27.779  24.889  17.520  1.00  0.00     0.050 A 
HETATM   17 CL   LIG     1      29.620  24.505  15.545  1.00  0.00    -0.082 Cl
HETATM   18  C   LIG     1      26.900  24.479  18.528  1.00  0.00     0.046 A 
HETATM   19 CL   LIG     1      25.986  25.701  19.405  1.00  0.00    -0.083 Cl
ENDBRANCH   3  11
TORSDOF 1
ENDMDL
MODEL 9
REMARK VINA RESULT:      -4.3      1.529      2.685
REMARK  1 active torsions:
REMARK  status: ('A' for Active; 'I' for Inactive)
REMARK    1  A    between atoms: C_3  and  C_4 
ROOT
HETATM    1 CL   LIG     1      27.869  22.145  22.395  1.00  0.00    -0.083 Cl
HETATM    2  C   LIG     1      28.064  23.527  21.321  1.00  0.00     0.048 A 
HETATM    3  C   LIG     1      27.186  23.749  20.243  1.00  0.00     0.021 A 
HETATM    4  C   LIG     1      27.379  24.866  19.404  1.00  0.00     0.070 A 
HETATM    5 CL   LIG     1      26.279  25.162  18.053  1.00  0.00    -0.081 Cl
HETATM    6  C   LIG     1      28.449  25.749  19.644  1.00  0.00     0.078 A 
HETATM    7 CL   LIG     1      28.702  27.148  18.599  1.00  0.00    -0.081 Cl
HETATM    8  C   LIG     1      29.320  25.515  20.722  1.00  0.00     0.059 A 
HETATM    9 CL   LIG     1      30.671  26.590  21.059  1.00  0.00    -0.082 Cl
HETATM   10  C   LIG     1      29.122  24.408  21.552  1.00  0.00     0.050 A 
ENDROOT
BRANCH   3  11
HETATM   11  C   LIG     1      26.068  22.815  19.996  1.00  0.00     0.001 A 
HETATM   12  C   LIG     1      24.825  23.061  20.597  1.00  0.00     0.039 A 
HETATM   13  C   LIG     1      23.749  22.193  20.380  1.00  0.00     0.056 A 
HETATM   14  C   LIG     1      23.914  21.069  19.556  1.00  0.00     0.057 A 
HETATM   15 CL   LIG     1      22.207  22.540  21.153  1.00  0.00    -0.083 Cl
HETATM   16  C   LIG     1      25.155  20.821  18.956  1.00  0.00     0.050 A 
HETATM   17 CL   LIG     1      22.587  19.953  19.258  1.00  0.00    -0.082 Cl
HETATM   18  C   LIG     1      26.231  21.687  19.172  1.00  0.00     0.046 A 
HETATM   19 CL   LIG     1      27.774  21.331  18.403  1.00  0.00    -0.083 Cl
ENDBRANCH   3  11
TORSDOF 1
ENDMDL
MODEL 10
REMARK VINA RESULT:      -4.3      2.805      3.918
REMARK  1 active torsions:
REMARK  status: ('A' for Active; 'I' for Inactive)
REMARK    1  A    between atoms: C_3  and  C_4 
ROOT
HETATM    1 CL   LIG     1      26.199  25.456  19.742  1.00  0.00    -0.083 Cl
HETATM    2  C   LIG     1      27.305  24.839  18.518  1.00  0.00     0.048 A 
HETATM    3  C   LIG     1      27.322  23.476  18.166  1.00  0.00     0.021 A 
HETATM    4  C   LIG     1      28.226  23.021  17.183  1.00  0.00     0.070 A 
HETATM    5 CL   LIG     1      28.253  21.314  16.724  1.00  0.00    -0.081 Cl
HETATM    6  C   LIG     1      29.108  23.928  16.565  1.00  0.00     0.078 A 
HETATM    7 CL   LIG     1      30.244  23.368  15.337  1.00  0.00    -0.081 Cl
HETATM    8  C   LIG     1      29.081  25.285  16.927  1.00  0.00     0.059 A 
HETATM    9 CL   LIG     1      30.165  26.453  16.182  1.00  0.00    -0.082 Cl
HETATM   10  C   LIG     1      28.182  25.731  17.899  1.00  0.00     0.050 A 
ENDROOT
BRANCH   3  11
HETATM   11  C   LIG     1      26.396  22.530  18.822  1.00  0.00     0.001 A 
HETATM   12  C   LIG     1      25.137  22.297  18.252  1.00  0.00     0.039 A 
HETATM   13  C   LIG     1      24.240  21.406  18.853  1.00  0.00     0.056 A 
HETATM   14  C   LIG     1      24.604  20.742  20.036  1.00  0.00     0.057 A 
HETATM   15 CL   LIG     1      22.672  21.142  18.103  1.00  0.00    -0.083 Cl
HETATM   16  C   LIG     1      25.860  20.975  20.608  1.00  0.00     0.050 A 
HETATM   17 CL   LIG     1      23.506  19.615  20.823  1.00  0.00    -0.082 Cl
HETATM   18  C   LIG     1      26.757  21.865  20.008  1.00  0.00     0.046 A 
HETATM   19 CL   LIG     1      28.322  22.132  20.768  1.00  0.00    -0.083 Cl
ENDBRANCH   3  11
TORSDOF 1
ENDMDL
MODEL 11
REMARK VINA RESULT:      -4.3      2.492      4.471
REMARK  1 active torsions:
REMARK  status: ('A' for Active; 'I' for Inactive)
REMARK    1  A    between atoms: C_3  and  C_4 
ROOT
HETATM    1 CL   LIG     1      25.846  25.479  19.405  1.00  0.00    -0.083 Cl
HETATM    2  C   LIG     1      26.789  24.279  18.527  1.00  0.00     0.048 A 
HETATM    3  C   LIG     1      26.683  22.906  18.819  1.00  0.00     0.021 A 
HETATM    4  C   LIG     1      27.459  21.976  18.095  1.00  0.00     0.070 A 
HETATM    5 CL   LIG     1      27.330  20.249  18.444  1.00  0.00    -0.081 Cl
HETATM    6  C   LIG     1      28.337  22.426  17.090  1.00  0.00     0.078 A 
HETATM    7 CL   LIG     1      29.314  21.272  16.180  1.00  0.00    -0.081 Cl
HETATM    8  C   LIG     1      28.434  23.799  16.810  1.00  0.00     0.059 A 
HETATM    9 CL   LIG     1      29.518  24.405  15.563  1.00  0.00    -0.082 Cl
HETATM   10  C   LIG     1      27.661  24.715  17.528  1.00  0.00     0.050 A 
ENDROOT
BRANCH   3  11
HETATM   11  C   LIG     1      25.762  22.444  19.878  1.00  0.00     0.001 A 
HETATM   12  C   LIG     1      26.230  22.342  21.196  1.00  0.00     0.039 A 
HETATM   13  C   LIG     1      25.379  21.906  22.219  1.00  0.00     0.056 A 
HETATM   14  C   LIG     1      24.048  21.570  21.923  1.00  0.00     0.057 A 
HETATM   15 CL   LIG     1      26.006  21.795  23.857  1.00  0.00    -0.083 Cl
HETATM   16  C   LIG     1      23.580  21.670  20.607  1.00  0.00     0.050 A 
HETATM   17 CL   LIG     1      22.946  21.019  23.178  1.00  0.00    -0.082 Cl
HETATM   18  C   LIG     1      24.429  22.104  19.584  1.00  0.00     0.046 A 
HETATM   19 CL   LIG     1      23.799  22.207  17.944  1.00  0.00    -0.083 Cl
ENDBRANCH   3  11
TORSDOF 1
ENDMDL
MODEL 12
REMARK VINA RESULT:      -4.2      1.782      6.266
REMARK  1 active torsions:
REMARK  status: ('A' for Active; 'I' for Inactive)
REMARK    1  A    between atoms: C_3  and  C_4 
ROOT
HETATM    1 CL   LIG     1      27.775  21.754  17.056  1.00  0.00    -0.083 Cl
HETATM    2  C   LIG     1      26.299  21.825  18.014  1.00  0.00     0.048 A 
HETATM    3  C   LIG     1      26.164  22.725  19.088  1.00  0.00     0.021 A 
HETATM    4  C   LIG     1      24.966  22.748  19.833  1.00  0.00     0.070 A 
HETATM    5 CL   LIG     1      24.779  23.879  21.178  1.00  0.00    -0.081 Cl
HETATM    6  C   LIG     1      23.917  21.869  19.503  1.00  0.00     0.078 A 
HETATM    7 CL   LIG     1      22.416  21.887  20.431  1.00  0.00    -0.081 Cl
HETATM    8  C   LIG     1      24.066  20.974  18.430  1.00  0.00     0.059 A 
HETATM    9 CL   LIG     1      22.781  19.858  17.984  1.00  0.00    -0.082 Cl
HETATM   10  C   LIG     1      25.253  20.958  17.693  1.00  0.00     0.050 A 
ENDROOT
BRANCH   3  11
HETATM   11  C   LIG     1      27.272  23.641  19.429  1.00  0.00     0.001 A 
HETATM   12  C   LIG     1      27.294  24.927  18.872  1.00  0.00     0.039 A 
HETATM   13  C   LIG     1      28.332  25.815  19.178  1.00  0.00     0.056 A 
HETATM   14  C   LIG     1      29.358  25.415  20.049  1.00  0.00     0.057 A 
HETATM   15 CL   LIG     1      28.319  27.419  18.457  1.00  0.00    -0.083 Cl
HETATM   16  C   LIG     1      29.338  24.131  20.606  1.00  0.00     0.050 A 
HETATM   17 CL   LIG     1      30.680  26.501  20.460  1.00  0.00    -0.082 Cl
HETATM   18  C   LIG     1      28.302  23.242  20.301  1.00  0.00     0.046 A 
HETATM   19 CL   LIG     1      28.324  21.635  21.018  1.00  0.00    -0.083 Cl
ENDBRANCH   3  11
TORSDOF 1
ENDMDL
MODEL 13
REMARK VINA RESULT:      -4.2      2.661      5.130
REMARK  1 active torsions:
REMARK  status: ('A' for Active; 'I' for Inactive)
REMARK    1  A    between atoms: C_3  and  C_4 
ROOT
HETATM    1 CL   LIG     1      27.151  26.146  19.051  1.00  0.00    -0.083 Cl
HETATM    2  C   LIG     1      27.681  24.731  18.147  1.00  0.00     0.048 A 
HETATM    3  C   LIG     1      27.459  23.426  18.629  1.00  0.00     0.021 A 
HETATM    4  C   LIG     1      27.903  22.319  17.876  1.00  0.00     0.070 A 
HETATM    5 CL   LIG     1      27.623  20.676  18.464  1.00  0.00    -0.081 Cl
HETATM    6  C   LIG     1      28.569  22.522  16.652  1.00  0.00     0.078 A 
HETATM    7 CL   LIG     1      29.131  21.144  15.704  1.00  0.00    -0.081 Cl
HETATM    8  C   LIG     1      28.786  23.830  16.183  1.00  0.00     0.059 A 
HETATM    9 CL   LIG     1      29.613  24.131  14.660  1.00  0.00    -0.082 Cl
HETATM   10  C   LIG     1      28.341  24.923  16.931  1.00  0.00     0.050 A 
ENDROOT
BRANCH   3  11
HETATM   11  C   LIG     1      26.763  23.222  19.916  1.00  0.00     0.001 A 
HETATM   12  C   LIG     1      25.367  23.095  19.927  1.00  0.00     0.039 A 
HETATM   13  C   LIG     1      24.682  22.901  21.133  1.00  0.00     0.056 A 
HETATM   14  C   LIG     1      25.399  22.833  22.339  1.00  0.00     0.057 A 
HETATM   15 CL   LIG     1      22.931  22.745  21.100  1.00  0.00    -0.083 Cl
HETATM   16  C   LIG     1      26.792  22.961  22.330  1.00  0.00     0.050 A 
HETATM   17 CL   LIG     1      24.576  22.590  23.875  1.00  0.00    -0.082 Cl
HETATM   18  C   LIG     1      27.478  23.156  21.126  1.00  0.00     0.046 A 
HETATM   19 CL   LIG     1      29.230  23.320  21.164  1.00  0.00    -0.083 Cl
ENDBRANCH   3  11
TORSDOF 1
ENDMDL
MODEL 14
REMARK VINA RESULT:      -4.1      3.252      4.837
REMARK  1 active torsions:
REMARK  status: ('A' for Active; 'I' for Inactive)
REMARK    1  A    between atoms: C_3  and  C_4 
ROOT
HETATM    1 CL   LIG     1      27.237  23.418  22.119  1.00  0.00    -0.083 Cl
HETATM    2  C   LIG     1      26.270  23.019  23.535  1.00  0.00     0.048 A 
HETATM    3  C   LIG     1      25.249  22.051  23.478  1.00  0.00     0.021 A 
HETATM    4  C   LIG     1      24.494  21.763  24.634  1.00  0.00     0.070 A 
HETATM    5 CL   LIG     1      23.216  20.544  24.579  1.00  0.00    -0.081 Cl
HETATM    6  C   LIG     1      24.760  22.447  25.836  1.00  0.00     0.078 A 
HETATM    7 CL   LIG     1      23.820  22.097  27.287  1.00  0.00    -0.081 Cl
HETATM    8  C   LIG     1      25.781  23.413  25.879  1.00  0.00     0.059 A 
HETATM    9 CL   LIG     1      26.147  24.292  27.357  1.00  0.00    -0.082 Cl
HETATM   10  C   LIG     1      26.527  23.692  24.731  1.00  0.00     0.050 A 
ENDROOT
BRANCH   3  11
HETATM   11  C   LIG     1      24.974  21.341  22.212  1.00  0.00     0.001 A 
HETATM   12  C   LIG     1      24.064  21.894  21.299  1.00  0.00     0.039 A 
HETATM   13  C   LIG     1      23.785  21.242  20.092  1.00  0.00     0.056 A 
HETATM   14  C   LIG     1      24.420  20.026  19.794  1.00  0.00     0.057 A 
HETATM   15 CL   LIG     1      22.640  21.973  18.976  1.00  0.00    -0.083 Cl
HETATM   16  C   LIG     1      25.327  19.471  20.704  1.00  0.00     0.050 A 
HETATM   17 CL   LIG     1      24.097  19.175  18.288  1.00  0.00    -0.082 Cl
HETATM   18  C   LIG     1      25.607  20.121  21.911  1.00  0.00     0.046 A 
HETATM   19 CL   LIG     1      26.748  19.382  23.028  1.00  0.00    -0.083 Cl
ENDBRANCH   3  11
TORSDOF 1
ENDMDL
MODEL 15
REMARK VINA RESULT:      -4.1      7.528     10.304
REMARK  1 active torsions:
REMARK  status: ('A' for Active; 'I' for Inactive)
REMARK    1  A    between atoms: C_3  and  C_4 
ROOT
HETATM    1 CL   LIG     1      27.791  22.062  30.474  1.00  0.00    -0.083 Cl
HETATM    2  C   LIG     1      26.545  21.862  29.246  1.00  0.00     0.048 A 
HETATM    3  C   LIG     1      26.376  22.803  28.211  1.00  0.00     0.021 A 
HETATM    4  C   LIG     1      25.363  22.608  27.249  1.00  0.00     0.070 A 
HETATM    5 CL   LIG     1      25.147  23.775  25.940  1.00  0.00    -0.081 Cl
HETATM    6  C   LIG     1      24.524  21.480  27.330  1.00  0.00     0.078 A 
HETATM    7 CL   LIG     1      23.252  21.229  26.134  1.00  0.00    -0.081 Cl
HETATM    8  C   LIG     1      24.701  20.551  28.369  1.00  0.00     0.059 A 
HETATM    9 CL   LIG     1      23.676  19.128  28.510  1.00  0.00    -0.082 Cl
HETATM   10  C   LIG     1      25.708  20.746  29.318  1.00  0.00     0.050 A 
ENDROOT
BRANCH   3  11
HETATM   11  C   LIG     1      27.259  23.985  28.136  1.00  0.00     0.001 A 
HETATM   12  C   LIG     1      26.935  25.131  28.876  1.00  0.00     0.039 A 
HETATM   13  C   LIG     1      27.754  26.265  28.822  1.00  0.00     0.056 A 
HETATM   14  C   LIG     1      28.908  26.255  28.023  1.00  0.00     0.057 A 
HETATM   15 CL   LIG     1      27.310  27.679  29.767  1.00  0.00    -0.083 Cl
HETATM   16  C   LIG     1      29.233  25.112  27.282  1.00  0.00     0.050 A 
HETATM   17 CL   LIG     1      29.964  27.659  27.928  1.00  0.00    -0.082 Cl
HETATM   18  C   LIG     1      28.416  23.978  27.334  1.00  0.00     0.046 A 
HETATM   19 CL   LIG     1      28.860  22.567  26.380  1.00  0.00    -0.083 Cl
ENDBRANCH   3  11
TORSDOF 1
ENDMDL
MODEL 16
REMARK VINA RESULT:      -4.1      2.042      2.522
REMARK  1 active torsions:
REMARK  status: ('A' for Active; 'I' for Inactive)
REMARK    1  A    between atoms: C_3  and  C_4 
ROOT
HETATM    1 CL   LIG     1      24.141  20.498  23.955  1.00  0.00    -0.083 Cl
HETATM    2  C   LIG     1      25.323  21.767  23.647  1.00  0.00     0.048 A 
HETATM    3  C   LIG     1      25.566  22.243  22.344  1.00  0.00     0.021 A 
HETATM    4  C   LIG     1      26.524  23.258  22.139  1.00  0.00     0.070 A 
HETATM    5 CL   LIG     1      26.832  23.872  20.511  1.00  0.00    -0.081 Cl
HETATM    6  C   LIG     1      27.234  23.785  23.234  1.00  0.00     0.078 A 
HETATM    7 CL   LIG     1      28.437  25.053  22.988  1.00  0.00    -0.081 Cl
HETATM    8  C   LIG     1      26.984  23.300  24.529  1.00  0.00     0.059 A 
HETATM    9 CL   LIG     1      27.849  23.929  25.926  1.00  0.00    -0.082 Cl
HETATM   10  C   LIG     1      26.032  22.297  24.727  1.00  0.00     0.050 A 
ENDROOT
BRANCH   3  11
HETATM   11  C   LIG     1      24.818  21.682  21.201  1.00  0.00     0.001 A 
HETATM   12  C   LIG     1      25.360  20.600  20.492  1.00  0.00     0.039 A 
HETATM   13  C   LIG     1      24.672  20.048  19.405  1.00  0.00     0.056 A 
HETATM   14  C   LIG     1      23.432  20.582  19.020  1.00  0.00     0.057 A 
HETATM   15 CL   LIG     1      25.388  18.691  18.546  1.00  0.00    -0.083 Cl
HETATM   16  C   LIG     1      22.890  21.663  19.725  1.00  0.00     0.050 A 
HETATM   17 CL   LIG     1      22.536  19.918  17.660  1.00  0.00    -0.082 Cl
HETATM   18  C   LIG     1      23.575  22.216  20.812  1.00  0.00     0.046 A 
HETATM   19 CL   LIG     1      22.859  23.579  21.664  1.00  0.00    -0.083 Cl
ENDBRANCH   3  11
TORSDOF 1
ENDMDL
MODEL 17
REMARK VINA RESULT:      -4.1      2.842      3.996
REMARK  1 active torsions:
REMARK  status: ('A' for Active; 'I' for Inactive)
REMARK    1  A    between atoms: C_3  and  C_4 
ROOT
HETATM    1 CL   LIG     1      23.534  21.115  24.585  1.00  0.00    -0.083 Cl
HETATM    2  C   LIG     1      24.820  22.317  24.571  1.00  0.00     0.048 A 
HETATM    3  C   LIG     1      25.599  22.545  23.420  1.00  0.00     0.021 A 
HETATM    4  C   LIG     1      26.623  23.515  23.450  1.00  0.00     0.070 A 
HETATM    5 CL   LIG     1      27.602  23.818  22.011  1.00  0.00    -0.081 Cl
HETATM    6  C   LIG     1      26.864  24.245  24.630  1.00  0.00     0.078 A 
HETATM    7 CL   LIG     1      28.145  25.458  24.680  1.00  0.00    -0.081 Cl
HETATM    8  C   LIG     1      26.081  24.007  25.772  1.00  0.00     0.059 A 
HETATM    9 CL   LIG     1      26.348  24.895  27.267  1.00  0.00    -0.082 Cl
HETATM   10  C   LIG     1      25.067  23.047  25.736  1.00  0.00     0.050 A 
ENDROOT
BRANCH   3  11
HETATM   11  C   LIG     1      25.342  21.772  22.188  1.00  0.00     0.001 A 
HETATM   12  C   LIG     1      24.338  22.200  21.307  1.00  0.00     0.039 A 
HETATM   13  C   LIG     1      24.073  21.486  20.133  1.00  0.00     0.056 A 
HETATM   14  C   LIG     1      24.817  20.333  19.834  1.00  0.00     0.057 A 
HETATM   15 CL   LIG     1      22.806  22.060  19.057  1.00  0.00    -0.083 Cl
HETATM   16  C   LIG     1      25.818  19.903  20.713  1.00  0.00     0.050 A 
HETATM   17 CL   LIG     1      24.515  19.407  18.369  1.00  0.00    -0.082 Cl
HETATM   18  C   LIG     1      26.084  20.615  21.887  1.00  0.00     0.046 A 
HETATM   19 CL   LIG     1      27.347  20.032  22.965  1.00  0.00    -0.083 Cl
ENDBRANCH   3  11
TORSDOF 1
ENDMDL
MODEL 18
REMARK VINA RESULT:      -4.1      5.312      9.434
REMARK  1 active torsions:
REMARK  status: ('A' for Active; 'I' for Inactive)
REMARK    1  A    between atoms: C_3  and  C_4 
ROOT
HETATM    1 CL   LIG     1      27.542  24.513  24.171  1.00  0.00    -0.083 Cl
HETATM    2  C   LIG     1      26.277  23.409  24.700  1.00  0.00     0.048 A 
HETATM    3  C   LIG     1      26.130  23.056  26.055  1.00  0.00     0.021 A 
HETATM    4  C   LIG     1      25.106  22.165  26.437  1.00  0.00     0.070 A 
HETATM    5 CL   LIG     1      24.904  21.720  28.135  1.00  0.00    -0.081 Cl
HETATM    6  C   LIG     1      24.240  21.630  25.464  1.00  0.00     0.078 A 
HETATM    7 CL   LIG     1      22.957  20.512  25.930  1.00  0.00    -0.081 Cl
HETATM    8  C   LIG     1      24.399  21.989  24.114  1.00  0.00     0.059 A 
HETATM    9 CL   LIG     1      23.342  21.344  22.865  1.00  0.00    -0.082 Cl
HETATM   10  C   LIG     1      25.413  22.874  23.741  1.00  0.00     0.050 A 
ENDROOT
BRANCH   3  11
HETATM   11  C   LIG     1      27.045  23.619  27.069  1.00  0.00     0.001 A 
HETATM   12  C   LIG     1      26.710  24.826  27.699  1.00  0.00     0.039 A 
HETATM   13  C   LIG     1      27.559  25.382  28.663  1.00  0.00     0.056 A 
HETATM   14  C   LIG     1      28.754  24.727  29.002  1.00  0.00     0.057 A 
HETATM   15 CL   LIG     1      27.099  26.897  29.429  1.00  0.00    -0.083 Cl
HETATM   16  C   LIG     1      29.090  23.522  28.373  1.00  0.00     0.050 A 
HETATM   17 CL   LIG     1      29.847  25.392  30.209  1.00  0.00    -0.082 Cl
HETATM   18  C   LIG     1      28.244  22.965  27.409  1.00  0.00     0.046 A 
HETATM   19 CL   LIG     1      28.712  21.453  26.640  1.00  0.00    -0.083 Cl
ENDBRANCH   3  11
TORSDOF 1
ENDMDL
MODEL 19
REMARK VINA RESULT:      -4.0      2.648      4.410
REMARK  1 active torsions:
REMARK  status: ('A' for Active; 'I' for Inactive)
REMARK    1  A    between atoms: C_3  and  C_4 
ROOT
HETATM    1 CL   LIG     1      23.952  21.882  23.455  1.00  0.00    -0.083 Cl
HETATM    2  C   LIG     1      25.296  22.845  24.060  1.00  0.00     0.048 A 
HETATM    3  C   LIG     1      26.414  23.133  23.254  1.00  0.00     0.021 A 
HETATM    4  C   LIG     1      27.472  23.905  23.778  1.00  0.00     0.070 A 
HETATM    5 CL   LIG     1      28.876  24.283  22.774  1.00  0.00    -0.081 Cl
HETATM    6  C   LIG     1      27.408  24.377  25.103  1.00  0.00     0.078 A 
HETATM    7 CL   LIG     1      28.728  25.341  25.769  1.00  0.00    -0.081 Cl
HETATM    8  C   LIG     1      26.288  24.080  25.898  1.00  0.00     0.059 A 
HETATM    9 CL   LIG     1      26.167  24.648  27.558  1.00  0.00    -0.082 Cl
HETATM   10  C   LIG     1      25.241  23.318  25.373  1.00  0.00     0.050 A 
ENDROOT
BRANCH   3  11
HETATM   11  C   LIG     1      26.474  22.631  21.866  1.00  0.00     0.001 A 
HETATM   12  C   LIG     1      26.059  23.464  20.817  1.00  0.00     0.039 A 
HETATM   13  C   LIG     1      26.105  23.013  19.493  1.00  0.00     0.056 A 
HETATM   14  C   LIG     1      26.570  21.718  19.213  1.00  0.00     0.057 A 
HETATM   15 CL   LIG     1      25.577  24.091  18.208  1.00  0.00    -0.083 Cl
HETATM   16  C   LIG     1      26.983  20.884  20.259  1.00  0.00     0.050 A 
HETATM   17 CL   LIG     1      26.644  21.113  17.562  1.00  0.00    -0.082 Cl
HETATM   18  C   LIG     1      26.937  21.333  21.583  1.00  0.00     0.046 A 
HETATM   19 CL   LIG     1      27.459  20.247  22.866  1.00  0.00    -0.083 Cl
ENDBRANCH   3  11
TORSDOF 1
ENDMDL
MODEL 20
REMARK VINA RESULT:      -4.0      3.257      5.742
REMARK  1 active torsions:
REMARK  status: ('A' for Active; 'I' for Inactive)
REMARK    1  A    between atoms: C_3  and  C_4 
ROOT
HETATM    1 CL   LIG     1      27.355  23.424  23.225  1.00  0.00    -0.083 Cl
HETATM    2  C   LIG     1      26.283  23.032  21.884  1.00  0.00     0.048 A 
HETATM    3  C   LIG     1      25.318  22.012  21.991  1.00  0.00     0.021 A 
HETATM    4  C   LIG     1      24.480  21.727  20.892  1.00  0.00     0.070 A 
HETATM    5 CL   LIG     1      23.258  20.456  21.015  1.00  0.00    -0.081 Cl
HETATM    6  C   LIG     1      24.616  22.456  19.696  1.00  0.00     0.078 A 
HETATM    7 CL   LIG     1      23.576  22.105  18.315  1.00  0.00    -0.081 Cl
HETATM    8  C   LIG     1      25.585  23.470  19.602  1.00  0.00     0.059 A 
HETATM    9 CL   LIG     1      25.791  24.406  18.127  1.00  0.00    -0.082 Cl
HETATM   10  C   LIG     1      26.410  23.751  20.694  1.00  0.00     0.050 A 
ENDROOT
BRANCH   3  11
HETATM   11  C   LIG     1      25.184  21.249  23.249  1.00  0.00     0.001 A 
HETATM   12  C   LIG     1      24.342  21.735  24.259  1.00  0.00     0.039 A 
HETATM   13  C   LIG     1      24.197  21.032  25.461  1.00  0.00     0.056 A 
HETATM   14  C   LIG     1      24.900  19.832  25.656  1.00  0.00     0.057 A 
HETATM   15 CL   LIG     1      23.129  21.677  26.700  1.00  0.00    -0.083 Cl
HETATM   16  C   LIG     1      25.742  19.346  24.649  1.00  0.00     0.050 A 
HETATM   17 CL   LIG     1      24.745  18.918  27.151  1.00  0.00    -0.082 Cl
HETATM   18  C   LIG     1      25.888  20.047  23.448  1.00  0.00     0.046 A 
HETATM   19 CL   LIG     1      26.964  19.402  22.214  1.00  0.00    -0.083 Cl
ENDBRANCH   3  11
TORSDOF 1
ENDMDL
