MODEL 1
REMARK VINA RESULT:      -4.8      0.000      0.000
REMARK  1 active torsions:
REMARK  status: ('A' for Active; 'I' for Inactive)
REMARK    1  A    between atoms: C_3  and  C_10 
ROOT
HETATM    1 CL   LIG     1      27.250  21.313  17.507  1.00  0.00    -0.082 Cl
HETATM    2  C   LIG     1      25.536  21.288  17.933  1.00  0.00     0.068 A 
HETATM    3  C   LIG     1      24.990  22.311  18.738  1.00  0.00    -0.001 A 
HETATM    4  C   LIG     1      23.638  22.260  19.102  1.00  0.00     0.016 A 
HETATM    5  C   LIG     1      22.827  21.214  18.661  1.00  0.00     0.026 A 
HETATM    6  C   LIG     1      23.356  20.203  17.855  1.00  0.00     0.057 A 
HETATM    7 CL   LIG     1      22.294  18.906  17.323  1.00  0.00    -0.082 Cl
HETATM    8  C   LIG     1      24.714  20.233  17.489  1.00  0.00     0.078 A 
HETATM    9 CL   LIG     1      25.382  18.950  16.480  1.00  0.00    -0.081 Cl
ENDROOT
BRANCH   3  10
HETATM   10  C   LIG     1      25.818  23.435  19.217  1.00  0.00    -0.001 A 
HETATM   11  C   LIG     1      25.976  24.562  18.396  1.00  0.00     0.014 A 
HETATM   12  C   LIG     1      26.750  25.643  18.824  1.00  0.00     0.003 A 
HETATM   13  C   LIG     1      27.376  25.605  20.071  1.00  0.00     0.026 A 
HETATM   14  C   LIG     1      27.237  24.484  20.897  1.00  0.00     0.056 A 
HETATM   15  C   LIG     1      26.460  23.390  20.473  1.00  0.00     0.066 A 
HETATM   16 CL   LIG     1      28.053  24.478  22.455  1.00  0.00    -0.083 Cl
HETATM   17 CL   LIG     1      26.314  21.962  21.502  1.00  0.00    -0.082 Cl
ENDBRANCH   3  10
TORSDOF 1
ENDMDL
MODEL 2
REMARK VINA RESULT:      -4.8      2.282      5.362
REMARK  1 active torsions:
REMARK  status: ('A' for Active; 'I' for Inactive)
REMARK    1  A    between atoms: C_3  and  C_10 
ROOT
HETATM    1 CL   LIG     1      27.924  21.613  19.444  1.00  0.00    -0.082 Cl
HETATM    2  C   LIG     1      27.677  23.360  19.357  1.00  0.00     0.068 A 
HETATM    3  C   LIG     1      26.370  23.891  19.332  1.00  0.00    -0.001 A 
HETATM    4  C   LIG     1      26.185  25.276  19.222  1.00  0.00     0.016 A 
HETATM    5  C   LIG     1      27.284  26.131  19.155  1.00  0.00     0.026 A 
HETATM    6  C   LIG     1      28.583  25.615  19.190  1.00  0.00     0.057 A 
HETATM    7 CL   LIG     1      29.937  26.734  19.104  1.00  0.00    -0.082 Cl
HETATM    8  C   LIG     1      28.786  24.227  19.289  1.00  0.00     0.078 A 
HETATM    9 CL   LIG     1      30.425  23.577  19.323  1.00  0.00    -0.081 Cl
ENDROOT
BRANCH   3  10
HETATM   10  C   LIG     1      25.183  23.015  19.407  1.00  0.00    -0.001 A 
HETATM   11  C   LIG     1      24.579  22.585  18.216  1.00  0.00     0.014 A 
HETATM   12  C   LIG     1      23.458  21.753  18.254  1.00  0.00     0.003 A 
HETATM   13  C   LIG     1      22.930  21.346  19.481  1.00  0.00     0.026 A 
HETATM   14  C   LIG     1      23.516  21.775  20.678  1.00  0.00     0.056 A 
HETATM   15  C   LIG     1      24.644  22.615  20.648  1.00  0.00     0.066 A 
HETATM   16 CL   LIG     1      22.809  21.246  22.199  1.00  0.00    -0.083 Cl
HETATM   17 CL   LIG     1      25.361  23.183  22.159  1.00  0.00    -0.082 Cl
ENDBRANCH   3  10
TORSDOF 1
ENDMDL
MODEL 3
REMARK VINA RESULT:      -4.7     16.212     18.825
REMARK  1 active torsions:
REMARK  status: ('A' for Active; 'I' for Inactive)
REMARK    1  A    between atoms: C_3  and  C_10 
ROOT
HETATM    1 CL   LIG     1      26.840  29.534  34.072  1.00  0.00    -0.082 Cl
HETATM    2  C   LIG     1      26.997  28.181  35.196  1.00  0.00     0.068 A 
HETATM    3  C   LIG     1      27.235  28.421  36.566  1.00  0.00    -0.001 A 
HETATM    4  C   LIG     1      27.397  27.340  37.442  1.00  0.00     0.016 A 
HETATM    5  C   LIG     1      27.309  26.030  36.970  1.00  0.00     0.026 A 
HETATM    6  C   LIG     1      27.063  25.782  35.617  1.00  0.00     0.057 A 
HETATM    7 CL   LIG     1      26.959  24.114  35.071  1.00  0.00    -0.082 Cl
HETATM    8  C   LIG     1      26.908  26.857  34.722  1.00  0.00     0.078 A 
HETATM    9 CL   LIG     1      26.608  26.542  33.013  1.00  0.00    -0.081 Cl
ENDROOT
BRANCH   3  10
HETATM   10  C   LIG     1      27.328  29.795  37.100  1.00  0.00    -0.001 A 
HETATM   11  C   LIG     1      26.165  30.422  37.570  1.00  0.00     0.014 A 
HETATM   12  C   LIG     1      26.222  31.719  38.084  1.00  0.00     0.003 A 
HETATM   13  C   LIG     1      27.439  32.401  38.129  1.00  0.00     0.026 A 
HETATM   14  C   LIG     1      28.607  31.792  37.655  1.00  0.00     0.056 A 
HETATM   15  C   LIG     1      28.558  30.487  37.134  1.00  0.00     0.066 A 
HETATM   16 CL   LIG     1      30.115  32.695  37.722  1.00  0.00    -0.083 Cl
HETATM   17 CL   LIG     1      30.025  29.733  36.503  1.00  0.00    -0.082 Cl
ENDBRANCH   3  10
TORSDOF 1
ENDMDL
MODEL 4
REMARK VINA RESULT:      -4.7      1.960      5.827
REMARK  1 active torsions:
REMARK  status: ('A' for Active; 'I' for Inactive)
REMARK    1  A    between atoms: C_3  and  C_10 
ROOT
HETATM    1 CL   LIG     1      27.727  22.196  21.389  1.00  0.00    -0.082 Cl
HETATM    2  C   LIG     1      27.563  23.731  20.531  1.00  0.00     0.068 A 
HETATM    3  C   LIG     1      26.296  24.163  20.084  1.00  0.00    -0.001 A 
HETATM    4  C   LIG     1      26.183  25.363  19.370  1.00  0.00     0.016 A 
HETATM    5  C   LIG     1      27.313  26.139  19.114  1.00  0.00     0.026 A 
HETATM    6  C   LIG     1      28.571  25.726  19.562  1.00  0.00     0.057 A 
HETATM    7 CL   LIG     1      29.965  26.740  19.215  1.00  0.00    -0.082 Cl
HETATM    8  C   LIG     1      28.703  24.518  20.271  1.00  0.00     0.078 A 
HETATM    9 CL   LIG     1      30.292  23.993  20.826  1.00  0.00    -0.081 Cl
ENDROOT
BRANCH   3  10
HETATM   10  C   LIG     1      25.079  23.368  20.344  1.00  0.00    -0.001 A 
HETATM   11  C   LIG     1      24.388  23.556  21.550  1.00  0.00     0.014 A 
HETATM   12  C   LIG     1      23.232  22.822  21.823  1.00  0.00     0.003 A 
HETATM   13  C   LIG     1      22.759  21.892  20.895  1.00  0.00     0.026 A 
HETATM   14  C   LIG     1      23.443  21.685  19.691  1.00  0.00     0.056 A 
HETATM   15  C   LIG     1      24.609  22.419  19.410  1.00  0.00     0.066 A 
HETATM   16 CL   LIG     1      22.815  20.495  18.559  1.00  0.00    -0.083 Cl
HETATM   17 CL   LIG     1      25.490  22.133  17.907  1.00  0.00    -0.082 Cl
ENDBRANCH   3  10
TORSDOF 1
ENDMDL
MODEL 5
REMARK VINA RESULT:      -4.7     13.869     16.776
REMARK  1 active torsions:
REMARK  status: ('A' for Active; 'I' for Inactive)
REMARK    1  A    between atoms: C_3  and  C_10 
ROOT
HETATM    1 CL   LIG     1      29.090  30.410  32.565  1.00  0.00    -0.082 Cl
HETATM    2  C   LIG     1      28.093  28.953  32.634  1.00  0.00     0.068 A 
HETATM    3  C   LIG     1      27.313  28.682  33.778  1.00  0.00    -0.001 A 
HETATM    4  C   LIG     1      26.556  27.505  33.838  1.00  0.00     0.016 A 
HETATM    5  C   LIG     1      26.557  26.610  32.769  1.00  0.00     0.026 A 
HETATM    6  C   LIG     1      27.317  26.876  31.627  1.00  0.00     0.057 A 
HETATM    7 CL   LIG     1      27.285  25.717  30.304  1.00  0.00    -0.082 Cl
HETATM    8  C   LIG     1      28.091  28.048  31.555  1.00  0.00     0.078 A 
HETATM    9 CL   LIG     1      29.059  28.377  30.117  1.00  0.00    -0.081 Cl
ENDROOT
BRANCH   3  10
HETATM   10  C   LIG     1      27.284  29.610  34.926  1.00  0.00    -0.001 A 
HETATM   11  C   LIG     1      26.183  30.467  35.080  1.00  0.00     0.014 A 
HETATM   12  C   LIG     1      26.126  31.353  36.158  1.00  0.00     0.003 A 
HETATM   13  C   LIG     1      27.167  31.394  37.087  1.00  0.00     0.026 A 
HETATM   14  C   LIG     1      28.277  30.554  36.941  1.00  0.00     0.056 A 
HETATM   15  C   LIG     1      28.343  29.659  35.857  1.00  0.00     0.066 A 
HETATM   16 CL   LIG     1      29.569  30.649  38.129  1.00  0.00    -0.083 Cl
HETATM   17 CL   LIG     1      29.760  28.624  35.655  1.00  0.00    -0.082 Cl
ENDBRANCH   3  10
TORSDOF 1
ENDMDL
MODEL 6
REMARK VINA RESULT:      -4.6      1.129      5.837
REMARK  1 active torsions:
REMARK  status: ('A' for Active; 'I' for Inactive)
REMARK    1  A    between atoms: C_3  and  C_10 
ROOT
HETATM    1 CL   LIG     1      25.796  21.169  21.158  1.00  0.00    -0.082 Cl
HETATM    2  C   LIG     1      26.017  22.630  20.190  1.00  0.00     0.068 A 
HETATM    3  C   LIG     1      25.480  22.705  18.887  1.00  0.00    -0.001 A 
HETATM    4  C   LIG     1      25.694  23.852  18.113  1.00  0.00     0.016 A 
HETATM    5  C   LIG     1      26.420  24.926  18.629  1.00  0.00     0.026 A 
HETATM    6  C   LIG     1      26.946  24.866  19.922  1.00  0.00     0.057 A 
HETATM    7 CL   LIG     1      27.853  26.245  20.529  1.00  0.00    -0.082 Cl
HETATM    8  C   LIG     1      26.749  23.716  20.709  1.00  0.00     0.078 A 
HETATM    9 CL   LIG     1      27.423  23.638  22.337  1.00  0.00    -0.081 Cl
ENDROOT
BRANCH   3  10
HETATM   10  C   LIG     1      24.702  21.589  18.312  1.00  0.00    -0.001 A 
HETATM   11  C   LIG     1      23.315  21.550  18.518  1.00  0.00     0.014 A 
HETATM   12  C   LIG     1      22.552  20.510  17.983  1.00  0.00     0.003 A 
HETATM   13  C   LIG     1      23.167  19.499  17.243  1.00  0.00     0.026 A 
HETATM   14  C   LIG     1      24.552  19.518  17.037  1.00  0.00     0.056 A 
HETATM   15  C   LIG     1      25.328  20.561  17.574  1.00  0.00     0.066 A 
HETATM   16 CL   LIG     1      25.284  18.217  16.108  1.00  0.00    -0.083 Cl
HETATM   17 CL   LIG     1      27.079  20.565  17.344  1.00  0.00    -0.082 Cl
ENDBRANCH   3  10
TORSDOF 1
ENDMDL
MODEL 7
REMARK VINA RESULT:      -4.5      2.313      4.663
REMARK  1 active torsions:
REMARK  status: ('A' for Active; 'I' for Inactive)
REMARK    1  A    between atoms: C_3  and  C_10 
ROOT
HETATM    1 CL   LIG     1      26.521  21.114  18.772  1.00  0.00    -0.082 Cl
HETATM    2  C   LIG     1      26.727  22.868  18.827  1.00  0.00     0.068 A 
HETATM    3  C   LIG     1      25.961  23.644  19.722  1.00  0.00    -0.001 A 
HETATM    4  C   LIG     1      26.103  25.038  19.731  1.00  0.00     0.016 A 
HETATM    5  C   LIG     1      27.010  25.658  18.871  1.00  0.00     0.026 A 
HETATM    6  C   LIG     1      27.782  24.897  17.990  1.00  0.00     0.057 A 
HETATM    7 CL   LIG     1      28.912  25.726  16.927  1.00  0.00    -0.082 Cl
HETATM    8  C   LIG     1      27.642  23.498  17.961  1.00  0.00     0.078 A 
HETATM    9 CL   LIG     1      28.610  22.540  16.840  1.00  0.00    -0.081 Cl
ENDROOT
BRANCH   3  10
HETATM   10  C   LIG     1      24.996  23.018  20.649  1.00  0.00    -0.001 A 
HETATM   11  C   LIG     1      23.738  22.633  20.163  1.00  0.00     0.014 A 
HETATM   12  C   LIG     1      22.806  22.035  21.014  1.00  0.00     0.003 A 
HETATM   13  C   LIG     1      23.120  21.822  22.357  1.00  0.00     0.026 A 
HETATM   14  C   LIG     1      24.367  22.211  22.860  1.00  0.00     0.056 A 
HETATM   15  C   LIG     1      25.311  22.815  22.010  1.00  0.00     0.066 A 
HETATM   16 CL   LIG     1      24.714  21.932  24.562  1.00  0.00    -0.083 Cl
HETATM   17 CL   LIG     1      26.871  23.337  22.654  1.00  0.00    -0.082 Cl
ENDBRANCH   3  10
TORSDOF 1
ENDMDL
MODEL 8
REMARK VINA RESULT:      -4.4      4.303      5.169
REMARK  1 active torsions:
REMARK  status: ('A' for Active; 'I' for Inactive)
REMARK    1  A    between atoms: C_3  and  C_10 
ROOT
HETATM    1 CL   LIG     1      26.168  20.131  22.387  1.00  0.00    -0.082 Cl
HETATM    2  C   LIG     1      24.798  21.004  21.693  1.00  0.00     0.068 A 
HETATM    3  C   LIG     1      23.991  21.822  22.511  1.00  0.00    -0.001 A 
HETATM    4  C   LIG     1      22.884  22.479  21.959  1.00  0.00     0.016 A 
HETATM    5  C   LIG     1      22.586  22.341  20.603  1.00  0.00     0.026 A 
HETATM    6  C   LIG     1      23.386  21.542  19.783  1.00  0.00     0.057 A 
HETATM    7 CL   LIG     1      22.971  21.400  18.080  1.00  0.00    -0.082 Cl
HETATM    8  C   LIG     1      24.495  20.867  20.324  1.00  0.00     0.078 A 
HETATM    9 CL   LIG     1      25.498  19.850  19.289  1.00  0.00    -0.081 Cl
ENDROOT
BRANCH   3  10
HETATM   10  C   LIG     1      24.282  21.995  23.949  1.00  0.00    -0.001 A 
HETATM   11  C   LIG     1      25.136  23.033  24.350  1.00  0.00     0.014 A 
HETATM   12  C   LIG     1      25.426  23.225  25.703  1.00  0.00     0.003 A 
HETATM   13  C   LIG     1      24.869  22.379  26.664  1.00  0.00     0.026 A 
HETATM   14  C   LIG     1      24.024  21.332  26.279  1.00  0.00     0.056 A 
HETATM   15  C   LIG     1      23.728  21.132  24.918  1.00  0.00     0.066 A 
HETATM   16 CL   LIG     1      23.356  20.286  27.525  1.00  0.00    -0.083 Cl
HETATM   17 CL   LIG     1      22.688  19.790  24.431  1.00  0.00    -0.082 Cl
ENDBRANCH   3  10
TORSDOF 1
ENDMDL
MODEL 9
REMARK VINA RESULT:      -4.4      4.632      5.728
REMARK  1 active torsions:
REMARK  status: ('A' for Active; 'I' for Inactive)
REMARK    1  A    between atoms: C_3  and  C_10 
ROOT
HETATM    1 CL   LIG     1      25.764  19.488  22.500  1.00  0.00    -0.082 Cl
HETATM    2  C   LIG     1      24.619  20.602  21.745  1.00  0.00     0.068 A 
HETATM    3  C   LIG     1      23.546  21.131  22.493  1.00  0.00    -0.001 A 
HETATM    4  C   LIG     1      22.622  21.982  21.874  1.00  0.00     0.016 A 
HETATM    5  C   LIG     1      22.767  22.322  20.529  1.00  0.00     0.026 A 
HETATM    6  C   LIG     1      23.833  21.813  19.783  1.00  0.00     0.057 A 
HETATM    7 CL   LIG     1      23.974  22.272  18.091  1.00  0.00    -0.082 Cl
HETATM    8  C   LIG     1      24.764  20.948  20.387  1.00  0.00     0.078 A 
HETATM    9 CL   LIG     1      26.103  20.298  19.441  1.00  0.00    -0.081 Cl
ENDROOT
BRANCH   3  10
HETATM   10  C   LIG     1      23.366  20.796  23.920  1.00  0.00    -0.001 A 
HETATM   11  C   LIG     1      22.557  19.703  24.265  1.00  0.00     0.014 A 
HETATM   12  C   LIG     1      22.371  19.359  25.606  1.00  0.00     0.003 A 
HETATM   13  C   LIG     1      22.987  20.106  26.612  1.00  0.00     0.026 A 
HETATM   14  C   LIG     1      23.789  21.205  26.284  1.00  0.00     0.056 A 
HETATM   15  C   LIG     1      23.980  21.559  24.936  1.00  0.00     0.066 A 
HETATM   16 CL   LIG     1      24.536  22.122  27.586  1.00  0.00    -0.083 Cl
HETATM   17 CL   LIG     1      24.964  22.967  24.525  1.00  0.00    -0.082 Cl
ENDBRANCH   3  10
TORSDOF 1
ENDMDL
MODEL 10
REMARK VINA RESULT:      -4.3      1.809      2.824
REMARK  1 active torsions:
REMARK  status: ('A' for Active; 'I' for Inactive)
REMARK    1  A    between atoms: C_3  and  C_10 
ROOT
HETATM    1 CL   LIG     1      26.981  21.753  21.128  1.00  0.00    -0.082 Cl
HETATM    2  C   LIG     1      25.624  21.586  20.010  1.00  0.00     0.068 A 
HETATM    3  C   LIG     1      25.410  22.553  19.005  1.00  0.00    -0.001 A 
HETATM    4  C   LIG     1      24.308  22.432  18.148  1.00  0.00     0.016 A 
HETATM    5  C   LIG     1      23.433  21.353  18.274  1.00  0.00     0.026 A 
HETATM    6  C   LIG     1      23.643  20.385  19.259  1.00  0.00     0.057 A 
HETATM    7 CL   LIG     1      22.512  19.043  19.377  1.00  0.00    -0.082 Cl
HETATM    8  C   LIG     1      24.738  20.497  20.134  1.00  0.00     0.078 A 
HETATM    9 CL   LIG     1      24.995  19.279  21.384  1.00  0.00    -0.081 Cl
ENDROOT
BRANCH   3  10
HETATM   10  C   LIG     1      26.321  23.704  18.841  1.00  0.00    -0.001 A 
HETATM   11  C   LIG     1      26.030  24.902  19.510  1.00  0.00     0.014 A 
HETATM   12  C   LIG     1      26.874  26.006  19.378  1.00  0.00     0.003 A 
HETATM   13  C   LIG     1      28.012  25.925  18.573  1.00  0.00     0.026 A 
HETATM   14  C   LIG     1      28.310  24.741  17.890  1.00  0.00     0.056 A 
HETATM   15  C   LIG     1      27.464  23.624  18.017  1.00  0.00     0.066 A 
HETATM   16 CL   LIG     1      29.748  24.689  16.879  1.00  0.00    -0.083 Cl
HETATM   17 CL   LIG     1      27.823  22.141  17.127  1.00  0.00    -0.082 Cl
ENDBRANCH   3  10
TORSDOF 1
ENDMDL
MODEL 11
REMARK VINA RESULT:      -4.3      1.789      2.284
REMARK  1 active torsions:
REMARK  status: ('A' for Active; 'I' for Inactive)
REMARK    1  A    between atoms: C_3  and  C_10 
ROOT
HETATM    1 CL   LIG     1      27.565  21.093  18.811  1.00  0.00    -0.082 Cl
HETATM    2  C   LIG     1      25.854  21.242  19.222  1.00  0.00     0.068 A 
HETATM    3  C   LIG     1      25.396  22.356  19.958  1.00  0.00    -0.001 A 
HETATM    4  C   LIG     1      24.044  22.445  20.313  1.00  0.00     0.016 A 
HETATM    5  C   LIG     1      23.147  21.448  19.929  1.00  0.00     0.026 A 
HETATM    6  C   LIG     1      23.589  20.347  19.190  1.00  0.00     0.057 A 
HETATM    7 CL   LIG     1      22.420  19.117  18.728  1.00  0.00    -0.082 Cl
HETATM    8  C   LIG     1      24.946  20.237  18.835  1.00  0.00     0.078 A 
HETATM    9 CL   LIG     1      25.503  18.842  17.912  1.00  0.00    -0.081 Cl
ENDROOT
BRANCH   3  10
HETATM   10  C   LIG     1      26.317  23.432  20.376  1.00  0.00    -0.001 A 
HETATM   11  C   LIG     1      26.903  23.369  21.649  1.00  0.00     0.014 A 
HETATM   12  C   LIG     1      27.782  24.369  22.071  1.00  0.00     0.003 A 
HETATM   13  C   LIG     1      28.079  25.441  21.228  1.00  0.00     0.026 A 
HETATM   14  C   LIG     1      27.494  25.524  19.959  1.00  0.00     0.056 A 
HETATM   15  C   LIG     1      26.607  24.521  19.527  1.00  0.00     0.066 A 
HETATM   16 CL   LIG     1      27.889  26.899  18.937  1.00  0.00    -0.083 Cl
HETATM   17 CL   LIG     1      25.843  24.645  17.939  1.00  0.00    -0.082 Cl
ENDBRANCH   3  10
TORSDOF 1
ENDMDL
MODEL 12
REMARK VINA RESULT:      -4.3     12.982     16.416
REMARK  1 active torsions:
REMARK  status: ('A' for Active; 'I' for Inactive)
REMARK    1  A    between atoms: C_3  and  C_10 
ROOT
HETATM    1 CL   LIG     1      28.482  25.773  34.194  1.00  0.00    -0.082 Cl
HETATM    2  C   LIG     1      27.734  27.293  34.695  1.00  0.00     0.068 A 
HETATM    3  C   LIG     1      27.474  28.302  33.745  1.00  0.00    -0.001 A 
HETATM    4  C   LIG     1      26.916  29.519  34.159  1.00  0.00     0.016 A 
HETATM    5  C   LIG     1      26.603  29.730  35.501  1.00  0.00     0.026 A 
HETATM    6  C   LIG     1      26.846  28.732  36.449  1.00  0.00     0.057 A 
HETATM    7 CL   LIG     1      26.432  29.045  38.129  1.00  0.00    -0.082 Cl
HETATM    8  C   LIG     1      27.416  27.508  36.051  1.00  0.00     0.078 A 
HETATM    9 CL   LIG     1      27.732  26.254  37.249  1.00  0.00    -0.081 Cl
ENDROOT
BRANCH   3  10
HETATM   10  C   LIG     1      27.788  28.110  32.314  1.00  0.00    -0.001 A 
HETATM   11  C   LIG     1      26.912  27.355  31.521  1.00  0.00     0.014 A 
HETATM   12  C   LIG     1      27.180  27.159  30.165  1.00  0.00     0.003 A 
HETATM   13  C   LIG     1      28.327  27.711  29.591  1.00  0.00     0.026 A 
HETATM   14  C   LIG     1      29.217  28.458  30.372  1.00  0.00     0.056 A 
HETATM   15  C   LIG     1      28.954  28.658  31.739  1.00  0.00     0.066 A 
HETATM   16 CL   LIG     1      30.654  29.124  29.608  1.00  0.00    -0.083 Cl
HETATM   17 CL   LIG     1      30.096  29.572  32.730  1.00  0.00    -0.082 Cl
ENDBRANCH   3  10
TORSDOF 1
ENDMDL
MODEL 13
REMARK VINA RESULT:      -4.3     13.547     17.038
REMARK  1 active torsions:
REMARK  status: ('A' for Active; 'I' for Inactive)
REMARK    1  A    between atoms: C_3  and  C_10 
ROOT
HETATM    1 CL   LIG     1      29.066  27.022  35.239  1.00  0.00    -0.082 Cl
HETATM    2  C   LIG     1      27.992  28.422  35.322  1.00  0.00     0.068 A 
HETATM    3  C   LIG     1      27.732  29.186  34.165  1.00  0.00    -0.001 A 
HETATM    4  C   LIG     1      26.910  30.317  34.250  1.00  0.00     0.016 A 
HETATM    5  C   LIG     1      26.336  30.681  35.468  1.00  0.00     0.026 A 
HETATM    6  C   LIG     1      26.578  29.924  36.617  1.00  0.00     0.057 A 
HETATM    7 CL   LIG     1      25.831  30.422  38.129  1.00  0.00    -0.082 Cl
HETATM    8  C   LIG     1      27.410  28.791  36.551  1.00  0.00     0.078 A 
HETATM    9 CL   LIG     1      27.724  27.843  38.005  1.00  0.00    -0.081 Cl
ENDROOT
BRANCH   3  10
HETATM   10  C   LIG     1      28.319  28.825  32.859  1.00  0.00    -0.001 A 
HETATM   11  C   LIG     1      29.503  29.456  32.448  1.00  0.00     0.014 A 
HETATM   12  C   LIG     1      30.085  29.134  31.220  1.00  0.00     0.003 A 
HETATM   13  C   LIG     1      29.487  28.183  30.391  1.00  0.00     0.026 A 
HETATM   14  C   LIG     1      28.300  27.552  30.782  1.00  0.00     0.056 A 
HETATM   15  C   LIG     1      27.707  27.873  32.017  1.00  0.00     0.066 A 
HETATM   16 CL   LIG     1      27.578  26.369  29.699  1.00  0.00    -0.083 Cl
HETATM   17 CL   LIG     1      26.191  27.102  32.493  1.00  0.00    -0.082 Cl
ENDBRANCH   3  10
TORSDOF 1
ENDMDL
MODEL 14
REMARK VINA RESULT:      -4.3      2.831      4.144
REMARK  1 active torsions:
REMARK  status: ('A' for Active; 'I' for Inactive)
REMARK    1  A    between atoms: C_3  and  C_10 
ROOT
HETATM    1 CL   LIG     1      27.628  23.548  21.415  1.00  0.00    -0.082 Cl
HETATM    2  C   LIG     1      26.109  22.992  20.704  1.00  0.00     0.068 A 
HETATM    3  C   LIG     1      25.972  22.904  19.303  1.00  0.00    -0.001 A 
HETATM    4  C   LIG     1      24.750  22.500  18.749  1.00  0.00     0.016 A 
HETATM    5  C   LIG     1      23.677  22.169  19.575  1.00  0.00     0.026 A 
HETATM    6  C   LIG     1      23.806  22.242  20.965  1.00  0.00     0.057 A 
HETATM    7 CL   LIG     1      22.424  21.813  21.965  1.00  0.00    -0.082 Cl
HETATM    8  C   LIG     1      25.023  22.656  21.537  1.00  0.00     0.078 A 
HETATM    9 CL   LIG     1      25.182  22.758  23.290  1.00  0.00    -0.081 Cl
ENDROOT
BRANCH   3  10
HETATM   10  C   LIG     1      27.090  23.242  18.399  1.00  0.00    -0.001 A 
HETATM   11  C   LIG     1      27.802  22.203  17.780  1.00  0.00     0.014 A 
HETATM   12  C   LIG     1      28.861  22.491  16.917  1.00  0.00     0.003 A 
HETATM   13  C   LIG     1      29.222  23.817  16.670  1.00  0.00     0.026 A 
HETATM   14  C   LIG     1      28.529  24.864  17.288  1.00  0.00     0.056 A 
HETATM   15  C   LIG     1      27.461  24.582  18.160  1.00  0.00     0.066 A 
HETATM   16 CL   LIG     1      29.026  26.517  16.954  1.00  0.00    -0.083 Cl
HETATM   17 CL   LIG     1      26.610  25.903  18.966  1.00  0.00    -0.082 Cl
ENDBRANCH   3  10
TORSDOF 1
ENDMDL
MODEL 15
REMARK VINA RESULT:      -4.2      2.341      3.092
REMARK  1 active torsions:
REMARK  status: ('A' for Active; 'I' for Inactive)
REMARK    1  A    between atoms: C_3  and  C_10 
ROOT
HETATM    1 CL   LIG     1      25.000  22.176  18.027  1.00  0.00    -0.082 Cl
HETATM    2  C   LIG     1      24.756  22.266  19.774  1.00  0.00     0.068 A 
HETATM    3  C   LIG     1      25.536  23.145  20.555  1.00  0.00    -0.001 A 
HETATM    4  C   LIG     1      25.362  23.180  21.944  1.00  0.00     0.016 A 
HETATM    5  C   LIG     1      24.411  22.363  22.556  1.00  0.00     0.026 A 
HETATM    6  C   LIG     1      23.626  21.498  21.790  1.00  0.00     0.057 A 
HETATM    7 CL   LIG     1      22.440  20.489  22.608  1.00  0.00    -0.082 Cl
HETATM    8  C   LIG     1      23.796  21.443  20.395  1.00  0.00     0.078 A 
HETATM    9 CL   LIG     1      22.812  20.342  19.431  1.00  0.00    -0.081 Cl
ENDROOT
BRANCH   3  10
HETATM   10  C   LIG     1      26.547  24.028  19.938  1.00  0.00    -0.001 A 
HETATM   11  C   LIG     1      26.184  25.335  19.584  1.00  0.00     0.014 A 
HETATM   12  C   LIG     1      27.119  26.195  19.004  1.00  0.00     0.003 A 
HETATM   13  C   LIG     1      28.422  25.754  18.768  1.00  0.00     0.026 A 
HETATM   14  C   LIG     1      28.798  24.449  19.106  1.00  0.00     0.056 A 
HETATM   15  C   LIG     1      27.861  23.576  19.690  1.00  0.00     0.066 A 
HETATM   16 CL   LIG     1      30.448  23.935  18.780  1.00  0.00    -0.083 Cl
HETATM   17 CL   LIG     1      28.327  21.919  20.084  1.00  0.00    -0.082 Cl
ENDBRANCH   3  10
TORSDOF 1
ENDMDL
MODEL 16
REMARK VINA RESULT:      -4.2      3.035      4.704
REMARK  1 active torsions:
REMARK  status: ('A' for Active; 'I' for Inactive)
REMARK    1  A    between atoms: C_3  and  C_10 
ROOT
HETATM    1 CL   LIG     1      25.368  24.081  17.995  1.00  0.00    -0.082 Cl
HETATM    2  C   LIG     1      26.054  23.921  19.615  1.00  0.00     0.068 A 
HETATM    3  C   LIG     1      27.302  24.506  19.918  1.00  0.00    -0.001 A 
HETATM    4  C   LIG     1      27.854  24.339  21.195  1.00  0.00     0.016 A 
HETATM    5  C   LIG     1      27.171  23.614  22.170  1.00  0.00     0.026 A 
HETATM    6  C   LIG     1      25.929  23.041  21.883  1.00  0.00     0.057 A 
HETATM    7 CL   LIG     1      25.105  22.136  23.147  1.00  0.00    -0.082 Cl
HETATM    8  C   LIG     1      25.365  23.189  20.603  1.00  0.00     0.078 A 
HETATM    9 CL   LIG     1      23.803  22.456  20.239  1.00  0.00    -0.081 Cl
ENDROOT
BRANCH   3  10
HETATM   10  C   LIG     1      28.049  25.285  18.911  1.00  0.00    -0.001 A 
HETATM   11  C   LIG     1      28.034  26.686  18.986  1.00  0.00     0.014 A 
HETATM   12  C   LIG     1      28.735  27.450  18.051  1.00  0.00     0.003 A 
HETATM   13  C   LIG     1      29.452  26.822  17.031  1.00  0.00     0.026 A 
HETATM   14  C   LIG     1      29.469  25.425  16.936  1.00  0.00     0.056 A 
HETATM   15  C   LIG     1      28.764  24.648  17.874  1.00  0.00     0.066 A 
HETATM   16 CL   LIG     1      30.378  24.680  15.628  1.00  0.00    -0.083 Cl
HETATM   17 CL   LIG     1      28.758  22.888  17.733  1.00  0.00    -0.082 Cl
ENDBRANCH   3  10
TORSDOF 1
ENDMDL
MODEL 17
REMARK VINA RESULT:      -4.2     14.112     17.015
REMARK  1 active torsions:
REMARK  status: ('A' for Active; 'I' for Inactive)
REMARK    1  A    between atoms: C_3  and  C_10 
ROOT
HETATM    1 CL   LIG     1      27.279  26.649  36.289  1.00  0.00    -0.082 Cl
HETATM    2  C   LIG     1      27.489  26.906  34.554  1.00  0.00     0.068 A 
HETATM    3  C   LIG     1      27.497  28.215  34.027  1.00  0.00    -0.001 A 
HETATM    4  C   LIG     1      27.625  28.406  32.645  1.00  0.00     0.016 A 
HETATM    5  C   LIG     1      27.760  27.311  31.791  1.00  0.00     0.026 A 
HETATM    6  C   LIG     1      27.765  26.012  32.305  1.00  0.00     0.057 A 
HETATM    7 CL   LIG     1      27.939  24.664  31.189  1.00  0.00    -0.082 Cl
HETATM    8  C   LIG     1      27.626  25.802  33.689  1.00  0.00     0.078 A 
HETATM    9 CL   LIG     1      27.622  24.161  34.335  1.00  0.00    -0.081 Cl
ENDROOT
BRANCH   3  10
HETATM   10  C   LIG     1      27.361  29.396  34.903  1.00  0.00    -0.001 A 
HETATM   11  C   LIG     1      26.085  29.934  35.126  1.00  0.00     0.014 A 
HETATM   12  C   LIG     1      25.924  31.048  35.952  1.00  0.00     0.003 A 
HETATM   13  C   LIG     1      27.036  31.636  36.558  1.00  0.00     0.026 A 
HETATM   14  C   LIG     1      28.317  31.118  36.337  1.00  0.00     0.056 A 
HETATM   15  C   LIG     1      28.488  29.997  35.504  1.00  0.00     0.066 A 
HETATM   16 CL   LIG     1      29.689  31.899  37.112  1.00  0.00    -0.083 Cl
HETATM   17 CL   LIG     1      30.109  29.365  35.198  1.00  0.00    -0.082 Cl
ENDBRANCH   3  10
TORSDOF 1
ENDMDL
MODEL 18
REMARK VINA RESULT:      -4.1      2.876      4.601
REMARK  1 active torsions:
REMARK  status: ('A' for Active; 'I' for Inactive)
REMARK    1  A    between atoms: C_3  and  C_10 
ROOT
HETATM    1 CL   LIG     1      24.571  22.818  18.090  1.00  0.00    -0.082 Cl
HETATM    2  C   LIG     1      25.389  22.933  19.651  1.00  0.00     0.068 A 
HETATM    3  C   LIG     1      26.774  23.195  19.709  1.00  0.00    -0.001 A 
HETATM    4  C   LIG     1      27.420  23.246  20.951  1.00  0.00     0.016 A 
HETATM    5  C   LIG     1      26.698  23.055  22.129  1.00  0.00     0.026 A 
HETATM    6  C   LIG     1      25.324  22.806  22.083  1.00  0.00     0.057 A 
HETATM    7 CL   LIG     1      24.457  22.573  23.596  1.00  0.00    -0.082 Cl
HETATM    8  C   LIG     1      24.662  22.741  20.843  1.00  0.00     0.078 A 
HETATM    9 CL   LIG     1      22.930  22.416  20.786  1.00  0.00    -0.081 Cl
ENDROOT
BRANCH   3  10
HETATM   10  C   LIG     1      27.567  23.408  18.481  1.00  0.00    -0.001 A 
HETATM   11  C   LIG     1      27.989  22.292  17.743  1.00  0.00     0.014 A 
HETATM   12  C   LIG     1      28.737  22.461  16.576  1.00  0.00     0.003 A 
HETATM   13  C   LIG     1      29.072  23.745  16.139  1.00  0.00     0.026 A 
HETATM   14  C   LIG     1      28.668  24.867  16.871  1.00  0.00     0.056 A 
HETATM   15  C   LIG     1      27.915  24.705  18.048  1.00  0.00     0.066 A 
HETATM   16 CL   LIG     1      29.123  26.463  16.288  1.00  0.00    -0.083 Cl
HETATM   17 CL   LIG     1      27.435  26.121  18.989  1.00  0.00    -0.082 Cl
ENDBRANCH   3  10
TORSDOF 1
ENDMDL
MODEL 19
REMARK VINA RESULT:      -4.0      3.389      4.382
REMARK  1 active torsions:
REMARK  status: ('A' for Active; 'I' for Inactive)
REMARK    1  A    between atoms: C_3  and  C_10 
ROOT
HETATM    1 CL   LIG     1      26.529  20.153  22.814  1.00  0.00    -0.082 Cl
HETATM    2  C   LIG     1      25.214  21.018  22.012  1.00  0.00     0.068 A 
HETATM    3  C   LIG     1      24.718  22.220  22.559  1.00  0.00    -0.001 A 
HETATM    4  C   LIG     1      23.649  22.878  21.937  1.00  0.00     0.016 A 
HETATM    5  C   LIG     1      23.084  22.358  20.773  1.00  0.00     0.026 A 
HETATM    6  C   LIG     1      23.575  21.174  20.217  1.00  0.00     0.057 A 
HETATM    7 CL   LIG     1      22.830  20.560  18.747  1.00  0.00    -0.082 Cl
HETATM    8  C   LIG     1      24.641  20.496  20.835  1.00  0.00     0.078 A 
HETATM    9 CL   LIG     1      25.253  18.996  20.138  1.00  0.00    -0.081 Cl
ENDROOT
BRANCH   3  10
HETATM   10  C   LIG     1      25.297  22.801  23.788  1.00  0.00    -0.001 A 
HETATM   11  C   LIG     1      24.643  22.594  25.011  1.00  0.00     0.014 A 
HETATM   12  C   LIG     1      25.168  23.126  26.191  1.00  0.00     0.003 A 
HETATM   13  C   LIG     1      26.347  23.873  26.157  1.00  0.00     0.026 A 
HETATM   14  C   LIG     1      27.006  24.097  24.943  1.00  0.00     0.056 A 
HETATM   15  C   LIG     1      26.483  23.565  23.750  1.00  0.00     0.066 A 
HETATM   16 CL   LIG     1      28.483  25.053  24.949  1.00  0.00    -0.083 Cl
HETATM   17 CL   LIG     1      27.297  23.878  22.214  1.00  0.00    -0.082 Cl
ENDBRANCH   3  10
TORSDOF 1
ENDMDL
MODEL 20
REMARK VINA RESULT:      -2.4     15.199     18.647
REMARK  1 active torsions:
REMARK  status: ('A' for Active; 'I' for Inactive)
REMARK    1  A    between atoms: C_3  and  C_10 
ROOT
HETATM    1 CL   LIG     1      29.974  29.235  34.982  1.00  0.00    -0.082 Cl
HETATM    2  C   LIG     1      28.579  30.019  35.731  1.00  0.00     0.068 A 
HETATM    3  C   LIG     1      27.279  29.521  35.502  1.00  0.00    -0.001 A 
HETATM    4  C   LIG     1      26.177  30.174  36.068  1.00  0.00     0.016 A 
HETATM    5  C   LIG     1      26.359  31.301  36.869  1.00  0.00     0.026 A 
HETATM    6  C   LIG     1      27.644  31.794  37.112  1.00  0.00     0.057 A 
HETATM    7 CL   LIG     1      27.823  33.217  38.130  1.00  0.00    -0.082 Cl
HETATM    8  C   LIG     1      28.761  31.157  36.541  1.00  0.00     0.078 A 
HETATM    9 CL   LIG     1      30.381  31.787  36.839  1.00  0.00    -0.081 Cl
ENDROOT
BRANCH   3  10
HETATM   10  C   LIG     1      27.050  28.327  34.663  1.00  0.00    -0.001 A 
HETATM   11  C   LIG     1      26.806  28.496  33.292  1.00  0.00     0.014 A 
HETATM   12  C   LIG     1      26.590  27.386  32.472  1.00  0.00     0.003 A 
HETATM   13  C   LIG     1      26.612  26.100  33.016  1.00  0.00     0.026 A 
HETATM   14  C   LIG     1      26.844  25.916  34.384  1.00  0.00     0.056 A 
HETATM   15  C   LIG     1      27.061  27.029  35.216  1.00  0.00     0.066 A 
HETATM   16 CL   LIG     1      26.852  24.278  35.024  1.00  0.00    -0.083 Cl
HETATM   17 CL   LIG     1      27.320  26.797  36.948  1.00  0.00    -0.082 Cl
ENDBRANCH   3  10
TORSDOF 1
ENDMDL
