MODEL 1
REMARK VINA RESULT:      -4.7      0.000      0.000
REMARK  1 active torsions:
REMARK  status: ('A' for Active; 'I' for Inactive)
REMARK    1  A    between atoms: C_3  and  C_4 
ROOT
HETATM    1 CL   LIG     1      22.413  19.774  23.167  1.00  0.00    -0.082 Cl
HETATM    2  C   LIG     1      23.598  20.994  23.644  1.00  0.00     0.068 A 
HETATM    3  C   LIG     1      24.321  21.706  22.664  1.00  0.00     0.023 A 
HETATM    4  C   LIG     1      25.264  22.679  23.057  1.00  0.00     0.068 A 
HETATM    5 CL   LIG     1      26.177  23.580  21.842  1.00  0.00    -0.082 Cl
HETATM    6  C   LIG     1      25.480  22.930  24.422  1.00  0.00     0.058 A 
HETATM    7 CL   LIG     1      26.649  24.131  24.957  1.00  0.00    -0.082 Cl
HETATM    8  C   LIG     1      24.762  22.218  25.385  1.00  0.00     0.051 A 
HETATM    9  C   LIG     1      23.825  21.255  25.005  1.00  0.00     0.058 A 
HETATM   10 CL   LIG     1      22.950  20.389  26.261  1.00  0.00    -0.082 Cl
ENDROOT
BRANCH   3  11
HETATM   11  C   LIG     1      24.090  21.436  21.229  1.00  0.00     0.001 A 
HETATM   12  C   LIG     1      24.953  20.565  20.548  1.00  0.00     0.038 A 
HETATM   13  C   LIG     1      24.754  20.294  19.191  1.00  0.00     0.035 A 
HETATM   14  C   LIG     1      23.690  20.894  18.508  1.00  0.00     0.025 A 
HETATM   15 CL   LIG     1      25.837  19.205  18.344  1.00  0.00    -0.084 Cl
HETATM   16  C   LIG     1      22.827  21.762  19.180  1.00  0.00     0.026 A 
HETATM   17  C   LIG     1      23.020  22.038  20.539  1.00  0.00     0.045 A 
HETATM   18 CL   LIG     1      21.911  23.137  21.350  1.00  0.00    -0.083 Cl
ENDBRANCH   3  11
TORSDOF 1
ENDMDL
MODEL 2
REMARK VINA RESULT:      -4.7      3.198      5.133
REMARK  1 active torsions:
REMARK  status: ('A' for Active; 'I' for Inactive)
REMARK    1  A    between atoms: C_3  and  C_4 
ROOT
HETATM    1 CL   LIG     1      27.162  22.741  23.127  1.00  0.00    -0.082 Cl
HETATM    2  C   LIG     1      27.478  23.926  21.856  1.00  0.00     0.068 A 
HETATM    3  C   LIG     1      26.687  23.947  20.688  1.00  0.00     0.023 A 
HETATM    4  C   LIG     1      26.950  24.898  19.680  1.00  0.00     0.068 A 
HETATM    5 CL   LIG     1      25.968  24.937  18.212  1.00  0.00    -0.082 Cl
HETATM    6  C   LIG     1      27.999  25.818  19.844  1.00  0.00     0.058 A 
HETATM    7 CL   LIG     1      28.363  27.019  18.612  1.00  0.00    -0.082 Cl
HETATM    8  C   LIG     1      28.779  25.788  21.003  1.00  0.00     0.051 A 
HETATM    9  C   LIG     1      28.525  24.851  22.006  1.00  0.00     0.058 A 
HETATM   10 CL   LIG     1      29.538  24.860  23.444  1.00  0.00    -0.082 Cl
ENDROOT
BRANCH   3  11
HETATM   11  C   LIG     1      25.587  22.975  20.521  1.00  0.00     0.001 A 
HETATM   12  C   LIG     1      24.299  23.313  20.963  1.00  0.00     0.038 A 
HETATM   13  C   LIG     1      23.243  22.409  20.815  1.00  0.00     0.035 A 
HETATM   14  C   LIG     1      23.469  21.162  20.225  1.00  0.00     0.025 A 
HETATM   15 CL   LIG     1      21.635  22.838  21.370  1.00  0.00    -0.084 Cl
HETATM   16  C   LIG     1      24.749  20.817  19.782  1.00  0.00     0.026 A 
HETATM   17  C   LIG     1      25.811  21.717  19.927  1.00  0.00     0.045 A 
HETATM   18 CL   LIG     1      27.408  21.247  19.357  1.00  0.00    -0.083 Cl
ENDBRANCH   3  11
TORSDOF 1
ENDMDL
MODEL 3
REMARK VINA RESULT:      -4.7      0.146      2.824
REMARK  1 active torsions:
REMARK  status: ('A' for Active; 'I' for Inactive)
REMARK    1  A    between atoms: C_3  and  C_4 
ROOT
HETATM    1 CL   LIG     1      26.244  23.437  21.700  1.00  0.00    -0.082 Cl
HETATM    2  C   LIG     1      25.313  22.585  22.936  1.00  0.00     0.068 A 
HETATM    3  C   LIG     1      24.331  21.642  22.565  1.00  0.00     0.023 A 
HETATM    4  C   LIG     1      23.595  20.967  23.561  1.00  0.00     0.068 A 
HETATM    5 CL   LIG     1      22.363  19.784  23.113  1.00  0.00    -0.082 Cl
HETATM    6  C   LIG     1      23.842  21.241  24.917  1.00  0.00     0.058 A 
HETATM    7 CL   LIG     1      22.946  20.426  26.192  1.00  0.00    -0.082 Cl
HETATM    8  C   LIG     1      24.814  22.177  25.275  1.00  0.00     0.051 A 
HETATM    9  C   LIG     1      25.549  22.849  24.295  1.00  0.00     0.058 A 
HETATM   10 CL   LIG     1      26.761  24.018  24.804  1.00  0.00    -0.082 Cl
ENDROOT
BRANCH   3  11
HETATM   11  C   LIG     1      24.075  21.361  21.137  1.00  0.00     0.001 A 
HETATM   12  C   LIG     1      24.897  20.448  20.459  1.00  0.00     0.038 A 
HETATM   13  C   LIG     1      24.673  20.168  19.107  1.00  0.00     0.035 A 
HETATM   14  C   LIG     1      23.626  20.799  18.427  1.00  0.00     0.025 A 
HETATM   15 CL   LIG     1      25.704  19.026  18.265  1.00  0.00    -0.084 Cl
HETATM   16  C   LIG     1      22.804  21.709  19.096  1.00  0.00     0.026 A 
HETATM   17  C   LIG     1      23.022  21.995  20.449  1.00  0.00     0.045 A 
HETATM   18 CL   LIG     1      21.965  23.148  21.256  1.00  0.00    -0.083 Cl
ENDBRANCH   3  11
TORSDOF 1
ENDMDL
MODEL 4
REMARK VINA RESULT:      -4.7      3.183      5.381
REMARK  1 active torsions:
REMARK  status: ('A' for Active; 'I' for Inactive)
REMARK    1  A    between atoms: C_3  and  C_4 
ROOT
HETATM    1 CL   LIG     1      26.053  24.819  18.241  1.00  0.00    -0.082 Cl
HETATM    2  C   LIG     1      26.992  24.863  19.736  1.00  0.00     0.068 A 
HETATM    3  C   LIG     1      26.710  23.958  20.781  1.00  0.00     0.023 A 
HETATM    4  C   LIG     1      27.467  24.003  21.971  1.00  0.00     0.068 A 
HETATM    5 CL   LIG     1      27.126  22.876  23.289  1.00  0.00    -0.082 Cl
HETATM    6  C   LIG     1      28.495  24.950  22.109  1.00  0.00     0.058 A 
HETATM    7 CL   LIG     1      29.462  25.043  23.575  1.00  0.00    -0.082 Cl
HETATM    8  C   LIG     1      28.766  25.843  21.070  1.00  0.00     0.051 A 
HETATM    9  C   LIG     1      28.023  25.805  19.888  1.00  0.00     0.058 A 
HETATM   10 CL   LIG     1      28.407  26.953  18.613  1.00  0.00    -0.082 Cl
ENDROOT
BRANCH   3  11
HETATM   11  C   LIG     1      25.625  22.966  20.631  1.00  0.00     0.001 A 
HETATM   12  C   LIG     1      24.320  23.313  21.012  1.00  0.00     0.038 A 
HETATM   13  C   LIG     1      23.278  22.390  20.879  1.00  0.00     0.035 A 
HETATM   14  C   LIG     1      23.536  21.116  20.364  1.00  0.00     0.025 A 
HETATM   15 CL   LIG     1      21.649  22.830  21.357  1.00  0.00    -0.084 Cl
HETATM   16  C   LIG     1      24.833  20.763  19.982  1.00  0.00     0.026 A 
HETATM   17  C   LIG     1      25.881  21.682  20.113  1.00  0.00     0.045 A 
HETATM   18 CL   LIG     1      27.501  21.199  19.622  1.00  0.00    -0.083 Cl
ENDBRANCH   3  11
TORSDOF 1
ENDMDL
MODEL 5
REMARK VINA RESULT:      -4.7      2.850      4.050
REMARK  1 active torsions:
REMARK  status: ('A' for Active; 'I' for Inactive)
REMARK    1  A    between atoms: C_3  and  C_4 
ROOT
HETATM    1 CL   LIG     1      26.334  21.750  22.452  1.00  0.00    -0.082 Cl
HETATM    2  C   LIG     1      26.734  23.174  21.487  1.00  0.00     0.068 A 
HETATM    3  C   LIG     1      26.123  23.379  20.232  1.00  0.00     0.023 A 
HETATM    4  C   LIG     1      26.450  24.521  19.471  1.00  0.00     0.068 A 
HETATM    5 CL   LIG     1      25.693  24.792  17.898  1.00  0.00    -0.082 Cl
HETATM    6  C   LIG     1      27.385  25.445  19.966  1.00  0.00     0.058 A 
HETATM    7 CL   LIG     1      27.825  26.881  19.049  1.00  0.00    -0.082 Cl
HETATM    8  C   LIG     1      27.987  25.234  21.208  1.00  0.00     0.051 A 
HETATM    9  C   LIG     1      27.668  24.107  21.969  1.00  0.00     0.058 A 
HETATM   10 CL   LIG     1      28.456  23.891  23.526  1.00  0.00    -0.082 Cl
ENDROOT
BRANCH   3  11
HETATM   11  C   LIG     1      25.142  22.401  19.717  1.00  0.00     0.001 A 
HETATM   12  C   LIG     1      25.524  21.522  18.692  1.00  0.00     0.038 A 
HETATM   13  C   LIG     1      24.612  20.589  18.189  1.00  0.00     0.035 A 
HETATM   14  C   LIG     1      23.314  20.531  18.708  1.00  0.00     0.025 A 
HETATM   15 CL   LIG     1      25.095  19.492  16.908  1.00  0.00    -0.084 Cl
HETATM   16  C   LIG     1      22.928  21.403  19.728  1.00  0.00     0.026 A 
HETATM   17  C   LIG     1      23.835  22.340  20.237  1.00  0.00     0.045 A 
HETATM   18 CL   LIG     1      23.309  23.422  21.521  1.00  0.00    -0.083 Cl
ENDBRANCH   3  11
TORSDOF 1
ENDMDL
MODEL 6
REMARK VINA RESULT:      -4.6     15.700     17.675
REMARK  1 active torsions:
REMARK  status: ('A' for Active; 'I' for Inactive)
REMARK    1  A    between atoms: C_3  and  C_4 
ROOT
HETATM    1 CL   LIG     1      19.390  38.904  21.818  1.00  0.00    -0.082 Cl
HETATM    2  C   LIG     1      18.365  37.690  21.047  1.00  0.00     0.068 A 
HETATM    3  C   LIG     1      17.513  36.878  21.825  1.00  0.00     0.023 A 
HETATM    4  C   LIG     1      16.699  35.912  21.198  1.00  0.00     0.068 A 
HETATM    5 CL   LIG     1      15.626  34.889  22.158  1.00  0.00    -0.082 Cl
HETATM    6  C   LIG     1      16.745  35.761  19.802  1.00  0.00     0.058 A 
HETATM    7 CL   LIG     1      15.750  34.567  18.978  1.00  0.00    -0.082 Cl
HETATM    8  C   LIG     1      17.593  36.566  19.039  1.00  0.00     0.051 A 
HETATM    9  C   LIG     1      18.401  37.527  19.652  1.00  0.00     0.058 A 
HETATM   10 CL   LIG     1      19.450  38.514  18.642  1.00  0.00    -0.082 Cl
ENDROOT
BRANCH   3  11
HETATM   11  C   LIG     1      17.472  37.041  23.293  1.00  0.00     0.001 A 
HETATM   12  C   LIG     1      17.875  35.976  24.113  1.00  0.00     0.038 A 
HETATM   13  C   LIG     1      17.844  36.108  25.505  1.00  0.00     0.035 A 
HETATM   14  C   LIG     1      17.409  37.305  26.083  1.00  0.00     0.025 A 
HETATM   15 CL   LIG     1      18.349  34.773  26.525  1.00  0.00    -0.084 Cl
HETATM   16  C   LIG     1      17.006  38.369  25.273  1.00  0.00     0.026 A 
HETATM   17  C   LIG     1      17.034  38.245  23.879  1.00  0.00     0.045 A 
HETATM   18 CL   LIG     1      16.518  39.608  22.893  1.00  0.00    -0.083 Cl
ENDBRANCH   3  11
TORSDOF 1
ENDMDL
MODEL 7
REMARK VINA RESULT:      -4.6      2.842      4.488
REMARK  1 active torsions:
REMARK  status: ('A' for Active; 'I' for Inactive)
REMARK    1  A    between atoms: C_3  and  C_4 
ROOT
HETATM    1 CL   LIG     1      25.745  24.756  17.919  1.00  0.00    -0.082 Cl
HETATM    2  C   LIG     1      26.483  24.462  19.496  1.00  0.00     0.068 A 
HETATM    3  C   LIG     1      26.135  23.317  20.244  1.00  0.00     0.023 A 
HETATM    4  C   LIG     1      26.732  23.093  21.502  1.00  0.00     0.068 A 
HETATM    5 CL   LIG     1      26.307  21.663  22.450  1.00  0.00    -0.082 Cl
HETATM    6  C   LIG     1      27.668  24.012  22.005  1.00  0.00     0.058 A 
HETATM    7 CL   LIG     1      28.434  23.774  23.570  1.00  0.00    -0.082 Cl
HETATM    8  C   LIG     1      28.005  25.144  21.259  1.00  0.00     0.051 A 
HETATM    9  C   LIG     1      27.420  25.373  20.012  1.00  0.00     0.058 A 
HETATM   10 CL   LIG     1      27.881  26.815  19.116  1.00  0.00    -0.082 Cl
ENDROOT
BRANCH   3  11
HETATM   11  C   LIG     1      25.149  22.355  19.710  1.00  0.00     0.001 A 
HETATM   12  C   LIG     1      25.530  21.479  18.682  1.00  0.00     0.038 A 
HETATM   13  C   LIG     1      24.613  20.561  18.162  1.00  0.00     0.035 A 
HETATM   14  C   LIG     1      23.309  20.515  18.666  1.00  0.00     0.025 A 
HETATM   15 CL   LIG     1      25.096  19.469  16.878  1.00  0.00    -0.084 Cl
HETATM   16  C   LIG     1      22.922  21.384  19.689  1.00  0.00     0.026 A 
HETATM   17  C   LIG     1      23.835  22.306  20.215  1.00  0.00     0.045 A 
HETATM   18 CL   LIG     1      23.308  23.384  21.502  1.00  0.00    -0.083 Cl
ENDBRANCH   3  11
TORSDOF 1
ENDMDL
MODEL 8
REMARK VINA RESULT:      -4.6     15.700     17.453
REMARK  1 active torsions:
REMARK  status: ('A' for Active; 'I' for Inactive)
REMARK    1  A    between atoms: C_3  and  C_4 
ROOT
HETATM    1 CL   LIG     1      15.641  34.876  22.196  1.00  0.00    -0.082 Cl
HETATM    2  C   LIG     1      16.704  35.900  21.227  1.00  0.00     0.068 A 
HETATM    3  C   LIG     1      17.514  36.875  21.847  1.00  0.00     0.023 A 
HETATM    4  C   LIG     1      18.359  37.687  21.062  1.00  0.00     0.068 A 
HETATM    5 CL   LIG     1      19.379  38.912  21.824  1.00  0.00    -0.082 Cl
HETATM    6  C   LIG     1      18.388  37.522  19.668  1.00  0.00     0.058 A 
HETATM    7 CL   LIG     1      19.425  38.514  18.650  1.00  0.00    -0.082 Cl
HETATM    8  C   LIG     1      17.581  36.556  19.062  1.00  0.00     0.051 A 
HETATM    9  C   LIG     1      16.742  35.747  19.831  1.00  0.00     0.058 A 
HETATM   10 CL   LIG     1      15.749  34.547  19.015  1.00  0.00    -0.082 Cl
ENDROOT
BRANCH   3  11
HETATM   11  C   LIG     1      17.477  37.046  23.315  1.00  0.00     0.001 A 
HETATM   12  C   LIG     1      17.899  35.991  24.139  1.00  0.00     0.038 A 
HETATM   13  C   LIG     1      17.872  36.131  25.530  1.00  0.00     0.035 A 
HETATM   14  C   LIG     1      17.422  37.324  26.104  1.00  0.00     0.025 A 
HETATM   15 CL   LIG     1      18.402  34.809  26.555  1.00  0.00    -0.084 Cl
HETATM   16  C   LIG     1      17.000  38.377  25.290  1.00  0.00     0.026 A 
HETATM   17  C   LIG     1      17.024  38.246  23.896  1.00  0.00     0.045 A 
HETATM   18 CL   LIG     1      16.483  39.596  22.905  1.00  0.00    -0.083 Cl
ENDBRANCH   3  11
TORSDOF 1
ENDMDL
MODEL 9
REMARK VINA RESULT:      -4.6      3.080      6.186
REMARK  1 active torsions:
REMARK  status: ('A' for Active; 'I' for Inactive)
REMARK    1  A    between atoms: C_3  and  C_4 
ROOT
HETATM    1 CL   LIG     1      26.017  25.339  19.346  1.00  0.00    -0.082 Cl
HETATM    2  C   LIG     1      26.762  23.842  18.779  1.00  0.00     0.068 A 
HETATM    3  C   LIG     1      26.311  22.595  19.261  1.00  0.00     0.023 A 
HETATM    4  C   LIG     1      26.914  21.405  18.800  1.00  0.00     0.068 A 
HETATM    5 CL   LIG     1      26.361  19.836  19.393  1.00  0.00    -0.082 Cl
HETATM    6  C   LIG     1      27.962  21.470  17.867  1.00  0.00     0.058 A 
HETATM    7 CL   LIG     1      28.744  20.013  17.268  1.00  0.00    -0.082 Cl
HETATM    8  C   LIG     1      28.404  22.709  17.397  1.00  0.00     0.051 A 
HETATM    9  C   LIG     1      27.811  23.891  17.846  1.00  0.00     0.058 A 
HETATM   10 CL   LIG     1      28.408  25.423  17.220  1.00  0.00    -0.082 Cl
ENDROOT
BRANCH   3  11
HETATM   11  C   LIG     1      25.210  22.534  20.244  1.00  0.00     0.001 A 
HETATM   12  C   LIG     1      25.497  22.703  21.607  1.00  0.00     0.038 A 
HETATM   13  C   LIG     1      24.471  22.650  22.555  1.00  0.00     0.035 A 
HETATM   14  C   LIG     1      23.153  22.425  22.145  1.00  0.00     0.025 A 
HETATM   15 CL   LIG     1      24.836  22.862  24.257  1.00  0.00    -0.084 Cl
HETATM   16  C   LIG     1      22.859  22.256  20.790  1.00  0.00     0.026 A 
HETATM   17  C   LIG     1      23.881  22.308  19.835  1.00  0.00     0.045 A 
HETATM   18 CL   LIG     1      23.471  22.089  18.138  1.00  0.00    -0.083 Cl
ENDBRANCH   3  11
TORSDOF 1
ENDMDL
MODEL 10
REMARK VINA RESULT:      -4.6      3.149      5.819
REMARK  1 active torsions:
REMARK  status: ('A' for Active; 'I' for Inactive)
REMARK    1  A    between atoms: C_3  and  C_4 
ROOT
HETATM    1 CL   LIG     1      26.431  19.893  19.267  1.00  0.00    -0.082 Cl
HETATM    2  C   LIG     1      26.981  21.473  18.701  1.00  0.00     0.068 A 
HETATM    3  C   LIG     1      26.377  22.653  19.183  1.00  0.00     0.023 A 
HETATM    4  C   LIG     1      26.826  23.909  18.724  1.00  0.00     0.068 A 
HETATM    5 CL   LIG     1      26.080  25.396  19.318  1.00  0.00    -0.082 Cl
HETATM    6  C   LIG     1      27.870  23.977  17.786  1.00  0.00     0.058 A 
HETATM    7 CL   LIG     1      28.459  25.521  17.184  1.00  0.00    -0.082 Cl
HETATM    8  C   LIG     1      28.461  22.803  17.313  1.00  0.00     0.051 A 
HETATM    9  C   LIG     1      28.024  21.556  17.763  1.00  0.00     0.058 A 
HETATM   10 CL   LIG     1      28.805  20.111  17.133  1.00  0.00    -0.082 Cl
ENDROOT
BRANCH   3  11
HETATM   11  C   LIG     1      25.277  22.574  20.167  1.00  0.00     0.001 A 
HETATM   12  C   LIG     1      25.562  22.744  21.530  1.00  0.00     0.038 A 
HETATM   13  C   LIG     1      24.537  22.673  22.478  1.00  0.00     0.035 A 
HETATM   14  C   LIG     1      23.222  22.431  22.068  1.00  0.00     0.025 A 
HETATM   15 CL   LIG     1      24.900  22.888  24.181  1.00  0.00    -0.084 Cl
HETATM   16  C   LIG     1      22.931  22.260  20.713  1.00  0.00     0.026 A 
HETATM   17  C   LIG     1      23.952  22.329  19.758  1.00  0.00     0.045 A 
HETATM   18 CL   LIG     1      23.545  22.108  18.060  1.00  0.00    -0.083 Cl
ENDBRANCH   3  11
TORSDOF 1
ENDMDL
MODEL 11
REMARK VINA RESULT:      -4.5     10.502     14.609
REMARK  1 active torsions:
REMARK  status: ('A' for Active; 'I' for Inactive)
REMARK    1  A    between atoms: C_3  and  C_4 
ROOT
HETATM    1 CL   LIG     1      30.157  30.697  32.567  1.00  0.00    -0.082 Cl
HETATM    2  C   LIG     1      29.269  29.499  31.621  1.00  0.00     0.068 A 
HETATM    3  C   LIG     1      28.348  28.636  32.250  1.00  0.00     0.023 A 
HETATM    4  C   LIG     1      27.644  27.683  31.484  1.00  0.00     0.068 A 
HETATM    5 CL   LIG     1      26.486  26.594  32.256  1.00  0.00    -0.082 Cl
HETATM    6  C   LIG     1      27.867  27.598  30.099  1.00  0.00     0.058 A 
HETATM    7 CL   LIG     1      27.014  26.424  29.106  1.00  0.00    -0.082 Cl
HETATM    8  C   LIG     1      28.783  28.456  29.486  1.00  0.00     0.051 A 
HETATM    9  C   LIG     1      29.483  29.403  30.236  1.00  0.00     0.058 A 
HETATM   10 CL   LIG     1      30.623  30.457  29.411  1.00  0.00    -0.082 Cl
ENDROOT
BRANCH   3  11
HETATM   11  C   LIG     1      28.120  28.729  33.707  1.00  0.00     0.001 A 
HETATM   12  C   LIG     1      27.182  29.649  34.198  1.00  0.00     0.038 A 
HETATM   13  C   LIG     1      26.951  29.754  35.573  1.00  0.00     0.035 A 
HETATM   14  C   LIG     1      27.656  28.940  36.464  1.00  0.00     0.025 A 
HETATM   15 CL   LIG     1      25.777  30.907  36.180  1.00  0.00    -0.084 Cl
HETATM   16  C   LIG     1      28.592  28.021  35.983  1.00  0.00     0.026 A 
HETATM   17  C   LIG     1      28.829  27.910  34.608  1.00  0.00     0.045 A 
HETATM   18 CL   LIG     1      30.016  26.741  34.041  1.00  0.00    -0.083 Cl
ENDBRANCH   3  11
TORSDOF 1
ENDMDL
MODEL 12
REMARK VINA RESULT:      -4.4      2.532      3.963
REMARK  1 active torsions:
REMARK  status: ('A' for Active; 'I' for Inactive)
REMARK    1  A    between atoms: C_3  and  C_4 
ROOT
HETATM    1 CL   LIG     1      24.308  22.536  26.389  1.00  0.00    -0.082 Cl
HETATM    2  C   LIG     1      25.716  23.310  25.656  1.00  0.00     0.068 A 
HETATM    3  C   LIG     1      25.997  23.127  24.285  1.00  0.00     0.023 A 
HETATM    4  C   LIG     1      27.124  23.751  23.711  1.00  0.00     0.068 A 
HETATM    5 CL   LIG     1      27.489  23.532  21.996  1.00  0.00    -0.082 Cl
HETATM    6  C   LIG     1      27.963  24.548  24.508  1.00  0.00     0.058 A 
HETATM    7 CL   LIG     1      29.381  25.342  23.834  1.00  0.00    -0.082 Cl
HETATM    8  C   LIG     1      27.679  24.721  25.864  1.00  0.00     0.051 A 
HETATM    9  C   LIG     1      26.564  24.109  26.441  1.00  0.00     0.058 A 
HETATM   10 CL   LIG     1      26.255  24.362  28.154  1.00  0.00    -0.082 Cl
ENDROOT
BRANCH   3  11
HETATM   11  C   LIG     1      25.112  22.285  23.453  1.00  0.00     0.001 A 
HETATM   12  C   LIG     1      24.028  22.878  22.787  1.00  0.00     0.038 A 
HETATM   13  C   LIG     1      23.178  22.100  21.995  1.00  0.00     0.035 A 
HETATM   14  C   LIG     1      23.407  20.726  21.865  1.00  0.00     0.025 A 
HETATM   15 CL   LIG     1      21.825  22.846  21.165  1.00  0.00    -0.084 Cl
HETATM   16  C   LIG     1      24.483  20.130  22.526  1.00  0.00     0.026 A 
HETATM   17  C   LIG     1      25.339  20.902  23.321  1.00  0.00     0.045 A 
HETATM   18 CL   LIG     1      26.684  20.113  24.137  1.00  0.00    -0.083 Cl
ENDBRANCH   3  11
TORSDOF 1
ENDMDL
MODEL 13
REMARK VINA RESULT:      -4.4      3.283      6.612
REMARK  1 active torsions:
REMARK  status: ('A' for Active; 'I' for Inactive)
REMARK    1  A    between atoms: C_3  and  C_4 
ROOT
HETATM    1 CL   LIG     1      26.941  25.811  20.069  1.00  0.00    -0.082 Cl
HETATM    2  C   LIG     1      27.298  24.408  19.056  1.00  0.00     0.068 A 
HETATM    3  C   LIG     1      26.769  23.142  19.382  1.00  0.00     0.023 A 
HETATM    4  C   LIG     1      27.061  22.029  18.566  1.00  0.00     0.068 A 
HETATM    5 CL   LIG     1      26.407  20.436  18.961  1.00  0.00    -0.082 Cl
HETATM    6  C   LIG     1      27.879  22.188  17.435  1.00  0.00     0.058 A 
HETATM    7 CL   LIG     1      28.272  20.828  16.391  1.00  0.00    -0.082 Cl
HETATM    8  C   LIG     1      28.400  23.445  17.121  1.00  0.00     0.051 A 
HETATM    9  C   LIG     1      28.115  24.553  17.923  1.00  0.00     0.058 A 
HETATM   10 CL   LIG     1      28.798  26.112  17.480  1.00  0.00    -0.082 Cl
ENDROOT
BRANCH   3  11
HETATM   11  C   LIG     1      25.912  22.981  20.575  1.00  0.00     0.001 A 
HETATM   12  C   LIG     1      24.518  23.069  20.436  1.00  0.00     0.038 A 
HETATM   13  C   LIG     1      23.688  22.920  21.551  1.00  0.00     0.035 A 
HETATM   14  C   LIG     1      24.247  22.683  22.811  1.00  0.00     0.025 A 
HETATM   15 CL   LIG     1      21.947  23.031  21.370  1.00  0.00    -0.084 Cl
HETATM   16  C   LIG     1      25.633  22.594  22.957  1.00  0.00     0.026 A 
HETATM   17  C   LIG     1      26.471  22.742  21.846  1.00  0.00     0.045 A 
HETATM   18 CL   LIG     1      28.212  22.624  22.071  1.00  0.00    -0.083 Cl
ENDBRANCH   3  11
TORSDOF 1
ENDMDL
MODEL 14
REMARK VINA RESULT:      -4.4      4.722      7.125
REMARK  1 active torsions:
REMARK  status: ('A' for Active; 'I' for Inactive)
REMARK    1  A    between atoms: C_3  and  C_4 
ROOT
HETATM    1 CL   LIG     1      28.308  21.625  16.523  1.00  0.00    -0.082 Cl
HETATM    2  C   LIG     1      28.438  23.327  16.977  1.00  0.00     0.068 A 
HETATM    3  C   LIG     1      27.668  23.842  18.042  1.00  0.00     0.023 A 
HETATM    4  C   LIG     1      27.781  25.203  18.395  1.00  0.00     0.068 A 
HETATM    5 CL   LIG     1      26.825  25.862  19.727  1.00  0.00    -0.082 Cl
HETATM    6  C   LIG     1      28.657  26.039  17.683  1.00  0.00     0.058 A 
HETATM    7 CL   LIG     1      28.827  27.742  18.087  1.00  0.00    -0.082 Cl
HETATM    8  C   LIG     1      29.413  25.522  16.628  1.00  0.00     0.051 A 
HETATM    9  C   LIG     1      29.309  24.175  16.272  1.00  0.00     0.058 A 
HETATM   10 CL   LIG     1      30.285  23.578  14.936  1.00  0.00    -0.082 Cl
ENDROOT
BRANCH   3  11
HETATM   11  C   LIG     1      26.747  22.957  18.786  1.00  0.00     0.001 A 
HETATM   12  C   LIG     1      25.419  22.830  18.353  1.00  0.00     0.038 A 
HETATM   13  C   LIG     1      24.530  21.999  19.043  1.00  0.00     0.035 A 
HETATM   14  C   LIG     1      24.965  21.292  20.167  1.00  0.00     0.025 A 
HETATM   15 CL   LIG     1      22.870  21.845  18.497  1.00  0.00    -0.084 Cl
HETATM   16  C   LIG     1      26.287  21.413  20.604  1.00  0.00     0.026 A 
HETATM   17  C   LIG     1      27.183  22.243  19.919  1.00  0.00     0.045 A 
HETATM   18 CL   LIG     1      28.839  22.370  20.500  1.00  0.00    -0.083 Cl
ENDBRANCH   3  11
TORSDOF 1
ENDMDL
MODEL 15
REMARK VINA RESULT:      -4.3      3.326      6.225
REMARK  1 active torsions:
REMARK  status: ('A' for Active; 'I' for Inactive)
REMARK    1  A    between atoms: C_3  and  C_4 
ROOT
HETATM    1 CL   LIG     1      26.496  20.419  18.924  1.00  0.00    -0.082 Cl
HETATM    2  C   LIG     1      27.137  22.015  18.524  1.00  0.00     0.068 A 
HETATM    3  C   LIG     1      26.837  23.128  19.339  1.00  0.00     0.023 A 
HETATM    4  C   LIG     1      27.355  24.398  19.009  1.00  0.00     0.068 A 
HETATM    5 CL   LIG     1      26.990  25.801  20.019  1.00  0.00    -0.082 Cl
HETATM    6  C   LIG     1      28.163  24.548  17.870  1.00  0.00     0.058 A 
HETATM    7 CL   LIG     1      28.828  26.113  17.419  1.00  0.00    -0.082 Cl
HETATM    8  C   LIG     1      28.453  23.442  17.068  1.00  0.00     0.051 A 
HETATM    9  C   LIG     1      27.945  22.180  17.388  1.00  0.00     0.058 A 
HETATM   10 CL   LIG     1      28.342  20.822  16.342  1.00  0.00    -0.082 Cl
ENDROOT
BRANCH   3  11
HETATM   11  C   LIG     1      25.984  22.964  20.534  1.00  0.00     0.001 A 
HETATM   12  C   LIG     1      24.591  23.054  20.401  1.00  0.00     0.038 A 
HETATM   13  C   LIG     1      23.765  22.902  21.519  1.00  0.00     0.035 A 
HETATM   14  C   LIG     1      24.328  22.660  22.776  1.00  0.00     0.025 A 
HETATM   15 CL   LIG     1      22.023  23.017  21.345  1.00  0.00    -0.084 Cl
HETATM   16  C   LIG     1      25.715  22.568  22.916  1.00  0.00     0.026 A 
HETATM   17  C   LIG     1      26.549  22.719  21.802  1.00  0.00     0.045 A 
HETATM   18 CL   LIG     1      28.291  22.598  22.020  1.00  0.00    -0.083 Cl
ENDBRANCH   3  11
TORSDOF 1
ENDMDL
MODEL 16
REMARK VINA RESULT:      -4.3      4.689      7.189
REMARK  1 active torsions:
REMARK  status: ('A' for Active; 'I' for Inactive)
REMARK    1  A    between atoms: C_3  and  C_4 
ROOT
HETATM    1 CL   LIG     1      26.728  25.810  19.735  1.00  0.00    -0.082 Cl
HETATM    2  C   LIG     1      27.716  25.174  18.416  1.00  0.00     0.068 A 
HETATM    3  C   LIG     1      27.630  23.813  18.053  1.00  0.00     0.023 A 
HETATM    4  C   LIG     1      28.423  23.317  16.998  1.00  0.00     0.068 A 
HETATM    5 CL   LIG     1      28.327  21.616  16.532  1.00  0.00    -0.082 Cl
HETATM    6  C   LIG     1      29.297  24.180  16.316  1.00  0.00     0.058 A 
HETATM    7 CL   LIG     1      30.307  23.604  14.996  1.00  0.00    -0.082 Cl
HETATM    8  C   LIG     1      29.377  25.526  16.683  1.00  0.00     0.051 A 
HETATM    9  C   LIG     1      28.594  26.026  17.725  1.00  0.00     0.058 A 
HETATM   10 CL   LIG     1      28.736  27.728  18.145  1.00  0.00    -0.082 Cl
ENDROOT
BRANCH   3  11
HETATM   11  C   LIG     1      26.711  22.910  18.777  1.00  0.00     0.001 A 
HETATM   12  C   LIG     1      25.392  22.763  18.320  1.00  0.00     0.038 A 
HETATM   13  C   LIG     1      24.506  21.914  18.990  1.00  0.00     0.035 A 
HETATM   14  C   LIG     1      24.933  21.209  20.119  1.00  0.00     0.025 A 
HETATM   15 CL   LIG     1      22.858  21.735  18.414  1.00  0.00    -0.084 Cl
HETATM   16  C   LIG     1      26.244  21.350  20.580  1.00  0.00     0.026 A 
HETATM   17  C   LIG     1      27.138  22.198  19.915  1.00  0.00     0.045 A 
HETATM   18 CL   LIG     1      28.781  22.350  20.526  1.00  0.00    -0.083 Cl
ENDBRANCH   3  11
TORSDOF 1
ENDMDL
MODEL 17
REMARK VINA RESULT:      -4.3      1.519      5.598
REMARK  1 active torsions:
REMARK  status: ('A' for Active; 'I' for Inactive)
REMARK    1  A    between atoms: C_3  and  C_4 
ROOT
HETATM    1 CL   LIG     1      26.970  19.923  22.828  1.00  0.00    -0.082 Cl
HETATM    2  C   LIG     1      25.795  20.503  21.644  1.00  0.00     0.068 A 
HETATM    3  C   LIG     1      24.700  21.293  22.054  1.00  0.00     0.023 A 
HETATM    4  C   LIG     1      23.768  21.750  21.098  1.00  0.00     0.068 A 
HETATM    5 CL   LIG     1      22.392  22.740  21.596  1.00  0.00    -0.082 Cl
HETATM    6  C   LIG     1      23.935  21.413  19.745  1.00  0.00     0.058 A 
HETATM    7 CL   LIG     1      22.796  21.959  18.520  1.00  0.00    -0.082 Cl
HETATM    8  C   LIG     1      25.020  20.629  19.348  1.00  0.00     0.051 A 
HETATM    9  C   LIG     1      25.948  20.174  20.287  1.00  0.00     0.058 A 
HETATM   10 CL   LIG     1      27.296  19.189  19.731  1.00  0.00    -0.082 Cl
ENDROOT
BRANCH   3  11
HETATM   11  C   LIG     1      24.530  21.640  23.480  1.00  0.00     0.001 A 
HETATM   12  C   LIG     1      25.224  22.741  24.005  1.00  0.00     0.038 A 
HETATM   13  C   LIG     1      25.077  23.088  25.352  1.00  0.00     0.035 A 
HETATM   14  C   LIG     1      24.238  22.336  26.180  1.00  0.00     0.025 A 
HETATM   15 CL   LIG     1      25.947  24.465  26.003  1.00  0.00    -0.084 Cl
HETATM   16  C   LIG     1      23.544  21.239  25.664  1.00  0.00     0.026 A 
HETATM   17  C   LIG     1      23.685  20.885  24.316  1.00  0.00     0.045 A 
HETATM   18 CL   LIG     1      22.795  19.496  23.704  1.00  0.00    -0.083 Cl
ENDBRANCH   3  11
TORSDOF 1
ENDMDL
MODEL 18
REMARK VINA RESULT:      -4.3      3.985      5.622
REMARK  1 active torsions:
REMARK  status: ('A' for Active; 'I' for Inactive)
REMARK    1  A    between atoms: C_3  and  C_4 
ROOT
HETATM    1 CL   LIG     1      27.859  23.990  22.778  1.00  0.00    -0.082 Cl
HETATM    2  C   LIG     1      26.421  23.415  21.928  1.00  0.00     0.068 A 
HETATM    3  C   LIG     1      26.343  23.502  20.522  1.00  0.00     0.023 A 
HETATM    4  C   LIG     1      25.190  23.040  19.854  1.00  0.00     0.068 A 
HETATM    5 CL   LIG     1      25.076  23.142  18.094  1.00  0.00    -0.082 Cl
HETATM    6  C   LIG     1      24.125  22.499  20.593  1.00  0.00     0.058 A 
HETATM    7 CL   LIG     1      22.667  21.914  19.802  1.00  0.00    -0.082 Cl
HETATM    8  C   LIG     1      24.209  22.419  21.985  1.00  0.00     0.051 A 
HETATM    9  C   LIG     1      25.348  22.873  22.654  1.00  0.00     0.058 A 
HETATM   10 CL   LIG     1      25.401  22.748  24.408  1.00  0.00    -0.082 Cl
ENDROOT
BRANCH   3  11
HETATM   11  C   LIG     1      27.466  24.075  19.751  1.00  0.00     0.001 A 
HETATM   12  C   LIG     1      27.459  25.444  19.442  1.00  0.00     0.038 A 
HETATM   13  C   LIG     1      28.511  26.006  18.713  1.00  0.00     0.035 A 
HETATM   14  C   LIG     1      29.575  25.204  18.289  1.00  0.00     0.025 A 
HETATM   15 CL   LIG     1      28.497  27.718  18.330  1.00  0.00    -0.084 Cl
HETATM   16  C   LIG     1      29.589  23.840  18.593  1.00  0.00     0.026 A 
HETATM   17  C   LIG     1      28.539  23.269  19.322  1.00  0.00     0.045 A 
HETATM   18 CL   LIG     1      28.592  21.548  19.684  1.00  0.00    -0.083 Cl
ENDBRANCH   3  11
TORSDOF 1
ENDMDL
MODEL 19
REMARK VINA RESULT:      -4.3      3.345      4.773
REMARK  1 active torsions:
REMARK  status: ('A' for Active; 'I' for Inactive)
REMARK    1  A    between atoms: C_3  and  C_4 
ROOT
HETATM    1 CL   LIG     1      28.323  23.436  21.652  1.00  0.00    -0.082 Cl
HETATM    2  C   LIG     1      26.596  23.150  21.414  1.00  0.00     0.068 A 
HETATM    3  C   LIG     1      26.065  23.043  20.112  1.00  0.00     0.023 A 
HETATM    4  C   LIG     1      24.684  22.814  19.934  1.00  0.00     0.068 A 
HETATM    5 CL   LIG     1      24.004  22.676  18.309  1.00  0.00    -0.082 Cl
HETATM    6  C   LIG     1      23.846  22.698  21.055  1.00  0.00     0.058 A 
HETATM    7 CL   LIG     1      22.119  22.415  20.881  1.00  0.00    -0.082 Cl
HETATM    8  C   LIG     1      24.380  22.808  22.341  1.00  0.00     0.051 A 
HETATM    9  C   LIG     1      25.746  23.032  22.526  1.00  0.00     0.058 A 
HETATM   10 CL   LIG     1      26.364  23.162  24.168  1.00  0.00    -0.082 Cl
ENDROOT
BRANCH   3  11
HETATM   11  C   LIG     1      26.952  23.169  18.936  1.00  0.00     0.001 A 
HETATM   12  C   LIG     1      27.538  22.016  18.392  1.00  0.00     0.038 A 
HETATM   13  C   LIG     1      28.381  22.112  17.281  1.00  0.00     0.035 A 
HETATM   14  C   LIG     1      28.642  23.361  16.708  1.00  0.00     0.025 A 
HETATM   15 CL   LIG     1      29.111  20.667  16.605  1.00  0.00    -0.084 Cl
HETATM   16  C   LIG     1      28.062  24.513  17.245  1.00  0.00     0.026 A 
HETATM   17  C   LIG     1      27.217  24.425  18.357  1.00  0.00     0.045 A 
HETATM   18 CL   LIG     1      26.507  25.899  19.004  1.00  0.00    -0.083 Cl
ENDBRANCH   3  11
TORSDOF 1
ENDMDL
MODEL 20
REMARK VINA RESULT:      -4.2      3.281      5.837
REMARK  1 active torsions:
REMARK  status: ('A' for Active; 'I' for Inactive)
REMARK    1  A    between atoms: C_3  and  C_4 
ROOT
HETATM    1 CL   LIG     1      25.964  20.247  16.757  1.00  0.00    -0.082 Cl
HETATM    2  C   LIG     1      24.946  20.970  18.006  1.00  0.00     0.068 A 
HETATM    3  C   LIG     1      25.464  21.971  18.856  1.00  0.00     0.023 A 
HETATM    4  C   LIG     1      24.641  22.542  19.850  1.00  0.00     0.068 A 
HETATM    5 CL   LIG     1      25.274  23.796  20.921  1.00  0.00    -0.082 Cl
HETATM    6  C   LIG     1      23.313  22.108  19.990  1.00  0.00     0.058 A 
HETATM    7 CL   LIG     1      22.253  22.789  21.217  1.00  0.00    -0.082 Cl
HETATM    8  C   LIG     1      22.809  21.115  19.147  1.00  0.00     0.051 A 
HETATM    9  C   LIG     1      23.616  20.546  18.159  1.00  0.00     0.058 A 
HETATM   10 CL   LIG     1      22.929  19.299  17.125  1.00  0.00    -0.082 Cl
ENDROOT
BRANCH   3  11
HETATM   11  C   LIG     1      26.863  22.421  18.704  1.00  0.00     0.001 A 
HETATM   12  C   LIG     1      27.146  23.519  17.877  1.00  0.00     0.038 A 
HETATM   13  C   LIG     1      28.463  23.961  17.719  1.00  0.00     0.035 A 
HETATM   14  C   LIG     1      29.504  23.308  18.387  1.00  0.00     0.025 A 
HETATM   15 CL   LIG     1      28.809  25.334  16.684  1.00  0.00    -0.084 Cl
HETATM   16  C   LIG     1      29.230  22.214  19.211  1.00  0.00     0.026 A 
HETATM   17  C   LIG     1      27.914  21.765  19.375  1.00  0.00     0.045 A 
HETATM   18 CL   LIG     1      27.610  20.384  20.422  1.00  0.00    -0.083 Cl
ENDBRANCH   3  11
TORSDOF 1
ENDMDL
