REMARK  1 active torsions:
REMARK  status: ('A' for Active; 'I' for Inactive)
REMARK    1  A    between atoms: C_9  and  C_10 
ROOT
HETATM    1  C   LIG     1       0.751  -0.033  -0.020  1.00  0.00     0.021 A 
HETATM    2  C   LIG     1       1.456   1.015  -0.649  1.00  0.00     0.070 A 
HETATM    3 CL   LIG     1       0.583   2.409  -1.294  1.00  0.00    -0.081 Cl
HETATM    4  C   LIG     1       2.858   0.950  -0.762  1.00  0.00     0.078 A 
HETATM    5 CL   LIG     1       3.748   2.255  -1.549  1.00  0.00    -0.081 Cl
HETATM    6  C   LIG     1       3.550  -0.159  -0.247  1.00  0.00     0.059 A 
HETATM    7 CL   LIG     1       5.301  -0.282  -0.367  1.00  0.00    -0.082 Cl
HETATM    8  C   LIG     1       2.847  -1.193   0.376  1.00  0.00     0.050 A 
HETATM    9  C   LIG     1       1.457  -1.137   0.493  1.00  0.00     0.048 A 
HETATM   10 CL   LIG     1       0.623  -2.473   1.282  1.00  0.00    -0.083 Cl
ENDROOT
BRANCH   1  11
HETATM   11  C   LIG     1      -0.720   0.025   0.101  1.00  0.00     0.001 A 
HETATM   12  C   LIG     1      -1.556  -0.466  -0.923  1.00  0.00     0.068 A 
HETATM   13 CL   LIG     1      -0.849  -1.170  -2.380  1.00  0.00    -0.082 Cl
HETATM   14  C   LIG     1      -2.955  -0.395  -0.777  1.00  0.00     0.078 A 
HETATM   15 CL   LIG     1      -4.013  -1.005  -2.050  1.00  0.00    -0.081 Cl
HETATM   16  C   LIG     1      -3.509   0.165   0.388  1.00  0.00     0.057 A 
HETATM   17  C   LIG     1      -2.672   0.648   1.397  1.00  0.00     0.026 A 
HETATM   18 CL   LIG     1      -5.251   0.274   0.612  1.00  0.00    -0.082 Cl
HETATM   19  C   LIG     1      -1.286   0.579   1.256  1.00  0.00     0.016 A 
ENDBRANCH   1  11
TORSDOF 1
