REMARK  1 active torsions:
REMARK  status: ('A' for Active; 'I' for Inactive)
REMARK    1  A    between atoms: C_3  and  C_4 
ROOT
HETATM    1 CL   LIG     1      -0.744  -1.319  -2.416  1.00  0.00    -0.083 Cl
HETATM    2  C   LIG     1      -1.511  -0.527  -1.043  1.00  0.00     0.048 A 
HETATM    3  C   LIG     1      -0.750   0.020   0.008  1.00  0.00     0.021 A 
HETATM    4  C   LIG     1      -1.403   0.643   1.092  1.00  0.00     0.070 A 
HETATM    5 CL   LIG     1      -0.460   1.342   2.413  1.00  0.00    -0.081 Cl
HETATM    6  C   LIG     1      -2.809   0.710   1.121  1.00  0.00     0.078 A 
HETATM    7 CL   LIG     1      -3.636   1.484   2.474  1.00  0.00    -0.081 Cl
HETATM    8  C   LIG     1      -3.557   0.158   0.067  1.00  0.00     0.059 A 
HETATM    9 CL   LIG     1      -5.315   0.218   0.062  1.00  0.00    -0.082 Cl
HETATM   10  C   LIG     1      -2.905  -0.455  -1.006  1.00  0.00     0.050 A 
ENDROOT
BRANCH   3  11
HETATM   11  C   LIG     1       0.725  -0.058  -0.029  1.00  0.00     0.001 A 
HETATM   12  C   LIG     1       1.446   0.925  -0.722  1.00  0.00     0.039 A 
HETATM   13  C   LIG     1       2.844   0.875  -0.773  1.00  0.00     0.056 A 
HETATM   14  C   LIG     1       3.529  -0.166  -0.126  1.00  0.00     0.057 A 
HETATM   15 CL   LIG     1       3.708   2.129  -1.652  1.00  0.00    -0.083 Cl
HETATM   16  C   LIG     1       2.811  -1.149   0.565  1.00  0.00     0.050 A 
HETATM   17 CL   LIG     1       5.285  -0.265  -0.166  1.00  0.00    -0.082 Cl
HETATM   18  C   LIG     1       1.414  -1.101   0.617  1.00  0.00     0.046 A 
HETATM   19 CL   LIG     1       0.553  -2.363   1.491  1.00  0.00    -0.083 Cl
ENDBRANCH   3  11
TORSDOF 1
