REMARK  1 active torsions:
REMARK  status: ('A' for Active; 'I' for Inactive)
REMARK    1  A    between atoms: C_3  and  C_4 
ROOT
HETATM    1 CL   LIG     1      -0.573  -1.571  -2.378  1.00  0.00    -0.082 Cl
HETATM    2  C   LIG     1      -1.443  -0.668  -1.134  1.00  0.00     0.068 A 
HETATM    3  C   LIG     1      -0.735   0.011  -0.120  1.00  0.00     0.023 A 
HETATM    4  C   LIG     1      -1.441   0.729   0.868  1.00  0.00     0.068 A 
HETATM    5 CL   LIG     1      -0.569   1.585   2.144  1.00  0.00    -0.082 Cl
HETATM    6  C   LIG     1      -2.845   0.761   0.838  1.00  0.00     0.058 A 
HETATM    7 CL   LIG     1      -3.766   1.641   2.051  1.00  0.00    -0.082 Cl
HETATM    8  C   LIG     1      -3.538   0.084  -0.168  1.00  0.00     0.051 A 
HETATM    9  C   LIG     1      -2.847  -0.628  -1.151  1.00  0.00     0.058 A 
HETATM   10 CL   LIG     1      -3.771  -1.462  -2.394  1.00  0.00    -0.082 Cl
ENDROOT
BRANCH   3  11
HETATM   11  C   LIG     1       0.742  -0.029  -0.093  1.00  0.00     0.001 A 
HETATM   12  C   LIG     1       1.468   0.955  -0.781  1.00  0.00     0.038 A 
HETATM   13  C   LIG     1       2.866   0.936  -0.769  1.00  0.00     0.035 A 
HETATM   14  C   LIG     1       3.545  -0.067  -0.070  1.00  0.00     0.025 A 
HETATM   15 CL   LIG     1       3.768   2.169  -1.631  1.00  0.00    -0.084 Cl
HETATM   16  C   LIG     1       2.829  -1.050   0.617  1.00  0.00     0.026 A 
HETATM   17  C   LIG     1       1.429  -1.038   0.610  1.00  0.00     0.045 A 
HETATM   18 CL   LIG     1       0.563  -2.294   1.487  1.00  0.00    -0.083 Cl
ENDBRANCH   3  11
TORSDOF 1
