MODEL 1
REMARK VINA RESULT:      -5.1      0.000      0.000
REMARK  1 active torsions:
REMARK  status: ('A' for Active; 'I' for Inactive)
REMARK    1  A    between atoms: C_9  and  C_10 
ROOT
HETATM    1  C   LIG     1      25.058  22.149  19.489  1.00  0.00     0.021 A 
HETATM    2  C   LIG     1      25.483  21.327  18.423  1.00  0.00     0.070 A 
HETATM    3 CL   LIG     1      27.158  21.394  17.865  1.00  0.00    -0.081 Cl
HETATM    4  C   LIG     1      24.570  20.452  17.804  1.00  0.00     0.078 A 
HETATM    5 CL   LIG     1      25.091  19.422  16.469  1.00  0.00    -0.081 Cl
HETATM    6  C   LIG     1      23.239  20.399  18.250  1.00  0.00     0.059 A 
HETATM    7 CL   LIG     1      22.065  19.321  17.505  1.00  0.00    -0.082 Cl
HETATM    8  C   LIG     1      22.824  21.214  19.307  1.00  0.00     0.050 A 
HETATM    9  C   LIG     1      23.722  22.085  19.927  1.00  0.00     0.048 A 
HETATM   10 CL   LIG     1      23.142  23.093  21.250  1.00  0.00    -0.083 Cl
ENDROOT
BRANCH   1  11
HETATM   11  C   LIG     1      26.007  23.072  20.143  1.00  0.00     0.001 A 
HETATM   12  C   LIG     1      26.399  24.276  19.522  1.00  0.00     0.068 A 
HETATM   13 CL   LIG     1      25.749  24.705  17.937  1.00  0.00    -0.082 Cl
HETATM   14  C   LIG     1      27.307  25.134  20.172  1.00  0.00     0.078 A 
HETATM   15 CL   LIG     1      27.806  26.643  19.407  1.00  0.00    -0.081 Cl
HETATM   16  C   LIG     1      27.817  24.785  21.435  1.00  0.00     0.057 A 
HETATM   17  C   LIG     1      27.422  23.590  22.042  1.00  0.00     0.026 A 
HETATM   18 CL   LIG     1      28.954  25.827  22.283  1.00  0.00    -0.082 Cl
HETATM   19  C   LIG     1      26.523  22.738  21.401  1.00  0.00     0.016 A 
ENDBRANCH   1  11
TORSDOF 1
ENDMDL
MODEL 2
REMARK VINA RESULT:      -4.9      0.855      6.040
REMARK  1 active torsions:
REMARK  status: ('A' for Active; 'I' for Inactive)
REMARK    1  A    between atoms: C_9  and  C_10 
ROOT
HETATM    1  C   LIG     1      26.005  22.964  20.056  1.00  0.00     0.021 A 
HETATM    2  C   LIG     1      26.424  24.180  19.475  1.00  0.00     0.070 A 
HETATM    3 CL   LIG     1      25.832  24.650  17.878  1.00  0.00    -0.081 Cl
HETATM    4  C   LIG     1      27.314  25.020  20.170  1.00  0.00     0.078 A 
HETATM    5 CL   LIG     1      27.845  26.542  19.452  1.00  0.00    -0.081 Cl
HETATM    6  C   LIG     1      27.782  24.644  21.441  1.00  0.00     0.059 A 
HETATM    7 CL   LIG     1      28.896  25.663  22.344  1.00  0.00    -0.082 Cl
HETATM    8  C   LIG     1      27.363  23.440  22.011  1.00  0.00     0.050 A 
HETATM    9  C   LIG     1      26.480  22.600  21.329  1.00  0.00     0.048 A 
HETATM   10 CL   LIG     1      25.992  21.091  22.095  1.00  0.00    -0.083 Cl
ENDROOT
BRANCH   1  11
HETATM   11  C   LIG     1      25.073  22.074  19.333  1.00  0.00     0.001 A 
HETATM   12  C   LIG     1      25.543  21.136  18.391  1.00  0.00     0.068 A 
HETATM   13 CL   LIG     1      27.273  21.006  18.060  1.00  0.00    -0.082 Cl
HETATM   14  C   LIG     1      24.628  20.303  17.718  1.00  0.00     0.078 A 
HETATM   15 CL   LIG     1      25.202  19.125  16.536  1.00  0.00    -0.081 Cl
HETATM   16  C   LIG     1      23.253  20.412  17.989  1.00  0.00     0.057 A 
HETATM   17  C   LIG     1      22.797  21.345  18.925  1.00  0.00     0.026 A 
HETATM   18 CL   LIG     1      22.074  19.392  17.172  1.00  0.00    -0.082 Cl
HETATM   19  C   LIG     1      23.701  22.171  19.594  1.00  0.00     0.016 A 
ENDBRANCH   1  11
TORSDOF 1
ENDMDL
MODEL 3
REMARK VINA RESULT:      -4.9      2.295      3.969
REMARK  1 active torsions:
REMARK  status: ('A' for Active; 'I' for Inactive)
REMARK    1  A    between atoms: C_9  and  C_10 
ROOT
HETATM    1  C   LIG     1      25.411  22.890  20.538  1.00  0.00     0.021 A 
HETATM    2  C   LIG     1      25.598  22.719  21.926  1.00  0.00     0.070 A 
HETATM    3 CL   LIG     1      26.950  23.512  22.743  1.00  0.00    -0.081 Cl
HETATM    4  C   LIG     1      24.706  21.916  22.662  1.00  0.00     0.078 A 
HETATM    5 CL   LIG     1      24.933  21.694  24.398  1.00  0.00    -0.081 Cl
HETATM    6  C   LIG     1      23.631  21.288  22.010  1.00  0.00     0.059 A 
HETATM    7 CL   LIG     1      22.493  20.275  22.890  1.00  0.00    -0.082 Cl
HETATM    8  C   LIG     1      23.450  21.462  20.636  1.00  0.00     0.050 A 
HETATM    9  C   LIG     1      24.330  22.257  19.898  1.00  0.00     0.048 A 
HETATM   10 CL   LIG     1      24.056  22.434  18.167  1.00  0.00    -0.083 Cl
ENDROOT
BRANCH   1  11
HETATM   11  C   LIG     1      26.344  23.729  19.757  1.00  0.00     0.001 A 
HETATM   12  C   LIG     1      27.474  23.169  19.127  1.00  0.00     0.068 A 
HETATM   13 CL   LIG     1      27.794  21.438  19.258  1.00  0.00    -0.082 Cl
HETATM   14  C   LIG     1      28.344  23.997  18.391  1.00  0.00     0.078 A 
HETATM   15 CL   LIG     1      29.763  23.311  17.597  1.00  0.00    -0.081 Cl
HETATM   16  C   LIG     1      28.080  25.374  18.289  1.00  0.00     0.057 A 
HETATM   17  C   LIG     1      26.957  25.918  18.917  1.00  0.00     0.026 A 
HETATM   18 CL   LIG     1      29.141  26.445  17.380  1.00  0.00    -0.082 Cl
HETATM   19  C   LIG     1      26.093  25.102  19.647  1.00  0.00     0.016 A 
ENDBRANCH   1  11
TORSDOF 1
ENDMDL
MODEL 4
REMARK VINA RESULT:      -4.8      1.163      2.071
REMARK  1 active torsions:
REMARK  status: ('A' for Active; 'I' for Inactive)
REMARK    1  A    between atoms: C_9  and  C_10 
ROOT
HETATM    1  C   LIG     1      25.095  22.212  19.447  1.00  0.00     0.021 A 
HETATM    2  C   LIG     1      25.514  21.441  18.342  1.00  0.00     0.070 A 
HETATM    3 CL   LIG     1      27.181  21.550  17.767  1.00  0.00    -0.081 Cl
HETATM    4  C   LIG     1      24.603  20.583  17.697  1.00  0.00     0.078 A 
HETATM    5 CL   LIG     1      25.118  19.617  16.314  1.00  0.00    -0.081 Cl
HETATM    6  C   LIG     1      23.278  20.498  18.158  1.00  0.00     0.059 A 
HETATM    7 CL   LIG     1      22.106  19.440  17.382  1.00  0.00    -0.082 Cl
HETATM    8  C   LIG     1      22.869  21.262  19.253  1.00  0.00     0.050 A 
HETATM    9  C   LIG     1      23.766  22.115  19.898  1.00  0.00     0.048 A 
HETATM   10 CL   LIG     1      23.191  23.061  21.270  1.00  0.00    -0.083 Cl
ENDROOT
BRANCH   1  11
HETATM   11  C   LIG     1      26.043  23.117  20.128  1.00  0.00     0.001 A 
HETATM   12  C   LIG     1      26.796  22.683  21.239  1.00  0.00     0.068 A 
HETATM   13 CL   LIG     1      26.618  21.031  21.836  1.00  0.00    -0.082 Cl
HETATM   14  C   LIG     1      27.691  23.571  21.866  1.00  0.00     0.078 A 
HETATM   15 CL   LIG     1      28.639  23.042  23.257  1.00  0.00    -0.081 Cl
HETATM   16  C   LIG     1      27.828  24.884  21.382  1.00  0.00     0.057 A 
HETATM   17  C   LIG     1      27.078  25.304  20.281  1.00  0.00     0.026 A 
HETATM   18 CL   LIG     1      28.934  26.027  22.136  1.00  0.00    -0.082 Cl
HETATM   19  C   LIG     1      26.191  24.427  19.656  1.00  0.00     0.016 A 
ENDBRANCH   1  11
TORSDOF 1
ENDMDL
MODEL 5
REMARK VINA RESULT:      -4.8      2.510      5.925
REMARK  1 active torsions:
REMARK  status: ('A' for Active; 'I' for Inactive)
REMARK    1  A    between atoms: C_9  and  C_10 
ROOT
HETATM    1  C   LIG     1      25.692  23.123  20.445  1.00  0.00     0.021 A 
HETATM    2  C   LIG     1      26.659  23.844  21.177  1.00  0.00     0.070 A 
HETATM    3 CL   LIG     1      26.908  23.504  22.893  1.00  0.00    -0.081 Cl
HETATM    4  C   LIG     1      27.427  24.837  20.539  1.00  0.00     0.078 A 
HETATM    5 CL   LIG     1      28.637  25.746  21.447  1.00  0.00    -0.081 Cl
HETATM    6  C   LIG     1      27.228  25.105  19.174  1.00  0.00     0.059 A 
HETATM    7 CL   LIG     1      28.165  26.337  18.337  1.00  0.00    -0.082 Cl
HETATM    8  C   LIG     1      26.271  24.387  18.454  1.00  0.00     0.050 A 
HETATM    9  C   LIG     1      25.505  23.400  19.079  1.00  0.00     0.048 A 
HETATM   10 CL   LIG     1      24.307  22.532  18.122  1.00  0.00    -0.083 Cl
ENDROOT
BRANCH   1  11
HETATM   11  C   LIG     1      24.880  22.082  21.107  1.00  0.00     0.001 A 
HETATM   12  C   LIG     1      25.314  20.741  21.158  1.00  0.00     0.068 A 
HETATM   13 CL   LIG     1      26.854  20.282  20.427  1.00  0.00    -0.082 Cl
HETATM   14  C   LIG     1      24.515  19.772  21.795  1.00  0.00     0.078 A 
HETATM   15 CL   LIG     1      25.045  18.091  21.866  1.00  0.00    -0.081 Cl
HETATM   16  C   LIG     1      23.291  20.147  22.377  1.00  0.00     0.057 A 
HETATM   17  C   LIG     1      22.870  21.479  22.321  1.00  0.00     0.026 A 
HETATM   18 CL   LIG     1      22.261  18.970  23.183  1.00  0.00    -0.082 Cl
HETATM   19  C   LIG     1      23.659  22.441  21.691  1.00  0.00     0.016 A 
ENDBRANCH   1  11
TORSDOF 1
ENDMDL
MODEL 6
REMARK VINA RESULT:      -4.8      3.592      4.939
REMARK  1 active torsions:
REMARK  status: ('A' for Active; 'I' for Inactive)
REMARK    1  A    between atoms: C_9  and  C_10 
ROOT
HETATM    1  C   LIG     1      24.060  21.085  21.629  1.00  0.00     0.021 A 
HETATM    2  C   LIG     1      24.834  20.039  21.082  1.00  0.00     0.070 A 
HETATM    3 CL   LIG     1      26.000  19.176  22.091  1.00  0.00    -0.081 Cl
HETATM    4  C   LIG     1      24.676  19.682  19.729  1.00  0.00     0.078 A 
HETATM    5 CL   LIG     1      25.641  18.377  19.035  1.00  0.00    -0.081 Cl
HETATM    6  C   LIG     1      23.748  20.369  18.929  1.00  0.00     0.059 A 
HETATM    7 CL   LIG     1      23.518  19.957  17.234  1.00  0.00    -0.082 Cl
HETATM    8  C   LIG     1      22.983  21.402  19.476  1.00  0.00     0.050 A 
HETATM    9  C   LIG     1      23.133  21.763  20.816  1.00  0.00     0.048 A 
HETATM   10 CL   LIG     1      22.147  23.078  21.450  1.00  0.00    -0.083 Cl
ENDROOT
BRANCH   1  11
HETATM   11  C   LIG     1      24.221  21.468  23.046  1.00  0.00     0.001 A 
HETATM   12  C   LIG     1      23.487  20.824  24.064  1.00  0.00     0.068 A 
HETATM   13 CL   LIG     1      22.355  19.532  23.654  1.00  0.00    -0.082 Cl
HETATM   14  C   LIG     1      23.662  21.214  25.405  1.00  0.00     0.078 A 
HETATM   15 CL   LIG     1      22.750  20.418  26.688  1.00  0.00    -0.081 Cl
HETATM   16  C   LIG     1      24.568  22.243  25.722  1.00  0.00     0.057 A 
HETATM   17  C   LIG     1      25.291  22.874  24.707  1.00  0.00     0.026 A 
HETATM   18 CL   LIG     1      24.818  22.762  27.385  1.00  0.00    -0.082 Cl
HETATM   19  C   LIG     1      25.120  22.490  23.377  1.00  0.00     0.016 A 
ENDBRANCH   1  11
TORSDOF 1
ENDMDL
MODEL 7
REMARK VINA RESULT:      -4.7      3.245      3.904
REMARK  1 active torsions:
REMARK  status: ('A' for Active; 'I' for Inactive)
REMARK    1  A    between atoms: C_9  and  C_10 
ROOT
HETATM    1  C   LIG     1      24.088  21.374  21.733  1.00  0.00     0.021 A 
HETATM    2  C   LIG     1      24.693  20.227  21.175  1.00  0.00     0.070 A 
HETATM    3 CL   LIG     1      25.878  19.307  22.108  1.00  0.00    -0.081 Cl
HETATM    4  C   LIG     1      24.349  19.814  19.874  1.00  0.00     0.078 A 
HETATM    5 CL   LIG     1      25.102  18.382  19.168  1.00  0.00    -0.081 Cl
HETATM    6  C   LIG     1      23.405  20.546  19.134  1.00  0.00     0.059 A 
HETATM    7 CL   LIG     1      22.948  20.067  17.505  1.00  0.00    -0.082 Cl
HETATM    8  C   LIG     1      22.809  21.680  19.692  1.00  0.00     0.050 A 
HETATM    9  C   LIG     1      23.143  22.097  20.981  1.00  0.00     0.048 A 
HETATM   10 CL   LIG     1      22.365  23.538  21.630  1.00  0.00    -0.083 Cl
ENDROOT
BRANCH   1  11
HETATM   11  C   LIG     1      24.444  21.816  23.096  1.00  0.00     0.001 A 
HETATM   12  C   LIG     1      25.483  22.744  23.314  1.00  0.00     0.068 A 
HETATM   13 CL   LIG     1      26.382  23.403  21.945  1.00  0.00    -0.082 Cl
HETATM   14  C   LIG     1      25.798  23.145  24.627  1.00  0.00     0.078 A 
HETATM   15 CL   LIG     1      27.095  24.305  24.915  1.00  0.00    -0.081 Cl
HETATM   16  C   LIG     1      25.075  22.617  25.712  1.00  0.00     0.057 A 
HETATM   17  C   LIG     1      24.047  21.698  25.485  1.00  0.00     0.026 A 
HETATM   18 CL   LIG     1      25.434  23.089  27.368  1.00  0.00    -0.082 Cl
HETATM   19  C   LIG     1      23.732  21.300  24.186  1.00  0.00     0.016 A 
ENDBRANCH   1  11
TORSDOF 1
ENDMDL
MODEL 8
REMARK VINA RESULT:      -4.6      1.445      6.143
REMARK  1 active torsions:
REMARK  status: ('A' for Active; 'I' for Inactive)
REMARK    1  A    between atoms: C_9  and  C_10 
ROOT
HETATM    1  C   LIG     1      26.600  23.538  20.600  1.00  0.00     0.021 A 
HETATM    2  C   LIG     1      27.259  23.045  21.746  1.00  0.00     0.070 A 
HETATM    3 CL   LIG     1      26.949  21.400  22.310  1.00  0.00    -0.081 Cl
HETATM    4  C   LIG     1      28.167  23.867  22.442  1.00  0.00     0.078 A 
HETATM    5 CL   LIG     1      28.995  23.261  23.878  1.00  0.00    -0.081 Cl
HETATM    6  C   LIG     1      28.413  25.175  21.991  1.00  0.00     0.059 A 
HETATM    7 CL   LIG     1      29.538  26.236  22.829  1.00  0.00    -0.082 Cl
HETATM    8  C   LIG     1      27.759  25.656  20.854  1.00  0.00     0.050 A 
HETATM    9  C   LIG     1      26.857  24.849  20.158  1.00  0.00     0.048 A 
HETATM   10 CL   LIG     1      26.056  25.511  18.736  1.00  0.00    -0.083 Cl
ENDROOT
BRANCH   1  11
HETATM   11  C   LIG     1      25.644  22.684  19.865  1.00  0.00     0.001 A 
HETATM   12  C   LIG     1      26.059  21.901  18.768  1.00  0.00     0.068 A 
HETATM   13 CL   LIG     1      27.748  21.926  18.253  1.00  0.00    -0.082 Cl
HETATM   14  C   LIG     1      25.122  21.099  18.089  1.00  0.00     0.078 A 
HETATM   15 CL   LIG     1      25.627  20.115  16.714  1.00  0.00    -0.081 Cl
HETATM   16  C   LIG     1      23.780  21.083  18.508  1.00  0.00     0.057 A 
HETATM   17  C   LIG     1      23.379  21.862  19.596  1.00  0.00     0.026 A 
HETATM   18 CL   LIG     1      22.577  20.096  17.687  1.00  0.00    -0.082 Cl
HETATM   19  C   LIG     1      24.304  22.658  20.272  1.00  0.00     0.016 A 
ENDBRANCH   1  11
TORSDOF 1
ENDMDL
MODEL 9
REMARK VINA RESULT:      -4.6      3.310      6.767
REMARK  1 active torsions:
REMARK  status: ('A' for Active; 'I' for Inactive)
REMARK    1  A    between atoms: C_9  and  C_10 
ROOT
HETATM    1  C   LIG     1      25.297  22.163  23.461  1.00  0.00     0.021 A 
HETATM    2  C   LIG     1      24.519  21.835  24.592  1.00  0.00     0.070 A 
HETATM    3 CL   LIG     1      23.257  20.605  24.473  1.00  0.00    -0.081 Cl
HETATM    4  C   LIG     1      24.751  22.488  25.818  1.00  0.00     0.078 A 
HETATM    5 CL   LIG     1      23.782  22.085  27.237  1.00  0.00    -0.081 Cl
HETATM    6  C   LIG     1      25.757  23.465  25.910  1.00  0.00     0.059 A 
HETATM    7 CL   LIG     1      26.080  24.306  27.421  1.00  0.00    -0.082 Cl
HETATM    8  C   LIG     1      26.524  23.785  24.788  1.00  0.00     0.050 A 
HETATM    9  C   LIG     1      26.302  23.142  23.569  1.00  0.00     0.048 A 
HETATM   10 CL   LIG     1      27.296  23.592  22.186  1.00  0.00    -0.083 Cl
ENDROOT
BRANCH   1  11
HETATM   11  C   LIG     1      25.060  21.486  22.171  1.00  0.00     0.001 A 
HETATM   12  C   LIG     1      24.110  21.978  21.252  1.00  0.00     0.068 A 
HETATM   13 CL   LIG     1      23.183  23.432  21.633  1.00  0.00    -0.082 Cl
HETATM   14  C   LIG     1      23.907  21.308  20.030  1.00  0.00     0.078 A 
HETATM   15 CL   LIG     1      22.723  21.913  18.871  1.00  0.00    -0.081 Cl
HETATM   16  C   LIG     1      24.652  20.152  19.734  1.00  0.00     0.057 A 
HETATM   17  C   LIG     1      25.591  19.673  20.651  1.00  0.00     0.026 A 
HETATM   18 CL   LIG     1      24.431  19.283  18.220  1.00  0.00    -0.082 Cl
HETATM   19  C   LIG     1      25.795  20.334  21.862  1.00  0.00     0.016 A 
ENDBRANCH   1  11
TORSDOF 1
ENDMDL
MODEL 10
REMARK VINA RESULT:      -4.5      3.512      5.008
REMARK  1 active torsions:
REMARK  status: ('A' for Active; 'I' for Inactive)
REMARK    1  A    between atoms: C_9  and  C_10 
ROOT
HETATM    1  C   LIG     1      25.018  21.381  22.179  1.00  0.00     0.021 A 
HETATM    2  C   LIG     1      24.092  21.906  21.252  1.00  0.00     0.070 A 
HETATM    3 CL   LIG     1      23.194  23.379  21.633  1.00  0.00    -0.081 Cl
HETATM    4  C   LIG     1      23.884  21.254  20.021  1.00  0.00     0.078 A 
HETATM    5 CL   LIG     1      22.727  21.902  18.857  1.00  0.00    -0.081 Cl
HETATM    6  C   LIG     1      24.601  20.084  19.720  1.00  0.00     0.059 A 
HETATM    7 CL   LIG     1      24.372  19.237  18.195  1.00  0.00    -0.082 Cl
HETATM    8  C   LIG     1      25.517  19.570  20.641  1.00  0.00     0.050 A 
HETATM    9  C   LIG     1      25.730  20.209  21.864  1.00  0.00     0.048 A 
HETATM   10 CL   LIG     1      26.892  19.511  22.989  1.00  0.00    -0.083 Cl
ENDROOT
BRANCH   1  11
HETATM   11  C   LIG     1      25.241  22.056  23.474  1.00  0.00     0.001 A 
HETATM   12  C   LIG     1      24.451  21.750  24.602  1.00  0.00     0.068 A 
HETATM   13 CL   LIG     1      23.172  20.538  24.482  1.00  0.00    -0.082 Cl
HETATM   14  C   LIG     1      24.688  22.412  25.822  1.00  0.00     0.078 A 
HETATM   15 CL   LIG     1      23.707  22.039  27.240  1.00  0.00    -0.081 Cl
HETATM   16  C   LIG     1      25.711  23.373  25.908  1.00  0.00     0.057 A 
HETATM   17  C   LIG     1      26.488  23.669  24.785  1.00  0.00     0.026 A 
HETATM   18 CL   LIG     1      26.042  24.225  27.412  1.00  0.00    -0.082 Cl
HETATM   19  C   LIG     1      26.256  23.015  23.575  1.00  0.00     0.016 A 
ENDBRANCH   1  11
TORSDOF 1
ENDMDL
MODEL 11
REMARK VINA RESULT:      -4.5      3.644      4.931
REMARK  1 active torsions:
REMARK  status: ('A' for Active; 'I' for Inactive)
REMARK    1  A    between atoms: C_9  and  C_10 
ROOT
HETATM    1  C   LIG     1      24.471  20.876  21.732  1.00  0.00     0.021 A 
HETATM    2  C   LIG     1      23.648  21.504  20.773  1.00  0.00     0.070 A 
HETATM    3 CL   LIG     1      22.418  22.665  21.284  1.00  0.00    -0.081 Cl
HETATM    4  C   LIG     1      23.807  21.204  19.406  1.00  0.00     0.078 A 
HETATM    5 CL   LIG     1      22.781  21.983  18.200  1.00  0.00    -0.081 Cl
HETATM    6  C   LIG     1      24.787  20.282  19.003  1.00  0.00     0.059 A 
HETATM    7 CL   LIG     1      25.020  19.877  17.306  1.00  0.00    -0.082 Cl
HETATM    8  C   LIG     1      25.600  19.664  19.956  1.00  0.00     0.050 A 
HETATM    9  C   LIG     1      25.449  19.955  21.313  1.00  0.00     0.048 A 
HETATM   10 CL   LIG     1      26.497  19.141  22.471  1.00  0.00    -0.083 Cl
ENDROOT
BRANCH   1  11
HETATM   11  C   LIG     1      24.309  21.182  23.168  1.00  0.00     0.001 A 
HETATM   12  C   LIG     1      25.036  22.224  23.778  1.00  0.00     0.068 A 
HETATM   13 CL   LIG     1      26.161  23.195  22.823  1.00  0.00    -0.082 Cl
HETATM   14  C   LIG     1      24.860  22.490  25.150  1.00  0.00     0.078 A 
HETATM   15 CL   LIG     1      25.763  23.791  25.926  1.00  0.00    -0.081 Cl
HETATM   16  C   LIG     1      23.961  21.713  25.902  1.00  0.00     0.057 A 
HETATM   17  C   LIG     1      23.244  20.683  25.288  1.00  0.00     0.026 A 
HETATM   18 CL   LIG     1      23.709  22.009  27.618  1.00  0.00    -0.082 Cl
HETATM   19  C   LIG     1      23.416  20.417  23.929  1.00  0.00     0.016 A 
ENDBRANCH   1  11
TORSDOF 1
ENDMDL
MODEL 12
REMARK VINA RESULT:      -4.5      3.669      7.013
REMARK  1 active torsions:
REMARK  status: ('A' for Active; 'I' for Inactive)
REMARK    1  A    between atoms: C_9  and  C_10 
ROOT
HETATM    1  C   LIG     1      24.892  22.230  24.002  1.00  0.00     0.021 A 
HETATM    2  C   LIG     1      25.979  23.122  24.119  1.00  0.00     0.070 A 
HETATM    3 CL   LIG     1      26.775  23.745  22.670  1.00  0.00    -0.081 Cl
HETATM    4  C   LIG     1      26.429  23.518  25.393  1.00  0.00     0.078 A 
HETATM    5 CL   LIG     1      27.789  24.632  25.550  1.00  0.00    -0.081 Cl
HETATM    6  C   LIG     1      25.793  23.022  26.544  1.00  0.00     0.059 A 
HETATM    7 CL   LIG     1      26.323  23.489  28.156  1.00  0.00    -0.082 Cl
HETATM    8  C   LIG     1      24.717  22.140  26.422  1.00  0.00     0.050 A 
HETATM    9  C   LIG     1      24.264  21.743  25.163  1.00  0.00     0.048 A 
HETATM   10 CL   LIG     1      22.907  20.623  25.070  1.00  0.00    -0.083 Cl
ENDROOT
BRANCH   1  11
HETATM   11  C   LIG     1      24.415  21.807  22.670  1.00  0.00     0.001 A 
HETATM   12  C   LIG     1      24.949  20.669  22.031  1.00  0.00     0.068 A 
HETATM   13 CL   LIG     1      26.208  19.719  22.825  1.00  0.00    -0.082 Cl
HETATM   14  C   LIG     1      24.473  20.293  20.760  1.00  0.00     0.078 A 
HETATM   15 CL   LIG     1      25.132  18.872  19.949  1.00  0.00    -0.081 Cl
HETATM   16  C   LIG     1      23.468  21.054  20.137  1.00  0.00     0.057 A 
HETATM   17  C   LIG     1      22.945  22.180  20.778  1.00  0.00     0.026 A 
HETATM   18 CL   LIG     1      22.843  20.621  18.549  1.00  0.00    -0.082 Cl
HETATM   19  C   LIG     1      23.414  22.555  22.037  1.00  0.00     0.016 A 
ENDBRANCH   1  11
TORSDOF 1
ENDMDL
MODEL 13
REMARK VINA RESULT:      -4.4      3.567      7.073
REMARK  1 active torsions:
REMARK  status: ('A' for Active; 'I' for Inactive)
REMARK    1  A    between atoms: C_9  and  C_10 
ROOT
HETATM    1  C   LIG     1      25.159  22.442  23.697  1.00  0.00     0.021 A 
HETATM    2  C   LIG     1      24.577  21.963  24.890  1.00  0.00     0.070 A 
HETATM    3 CL   LIG     1      23.185  20.878  24.824  1.00  0.00    -0.081 Cl
HETATM    4  C   LIG     1      25.107  22.352  26.136  1.00  0.00     0.078 A 
HETATM    5 CL   LIG     1      24.383  21.760  27.633  1.00  0.00    -0.081 Cl
HETATM    6  C   LIG     1      26.215  23.214  26.185  1.00  0.00     0.059 A 
HETATM    7 CL   LIG     1      26.908  23.726  27.719  1.00  0.00    -0.082 Cl
HETATM    8  C   LIG     1      26.788  23.683  25.001  1.00  0.00     0.050 A 
HETATM    9  C   LIG     1      26.270  23.303  23.762  1.00  0.00     0.048 A 
HETATM   10 CL   LIG     1      27.029  23.932  22.302  1.00  0.00    -0.083 Cl
ENDROOT
BRANCH   1  11
HETATM   11  C   LIG     1      24.609  22.042  22.386  1.00  0.00     0.001 A 
HETATM   12  C   LIG     1      25.123  20.930  21.688  1.00  0.00     0.068 A 
HETATM   13 CL   LIG     1      26.444  19.985  22.380  1.00  0.00    -0.082 Cl
HETATM   14  C   LIG     1      24.576  20.576  20.439  1.00  0.00     0.078 A 
HETATM   15 CL   LIG     1      25.209  19.187  19.554  1.00  0.00    -0.081 Cl
HETATM   16  C   LIG     1      23.522  21.333  19.897  1.00  0.00     0.057 A 
HETATM   17  C   LIG     1      23.019  22.432  20.597  1.00  0.00     0.026 A 
HETATM   18 CL   LIG     1      22.810  20.926  18.340  1.00  0.00    -0.082 Cl
HETATM   19  C   LIG     1      23.558  22.786  21.834  1.00  0.00     0.016 A 
ENDBRANCH   1  11
TORSDOF 1
ENDMDL
MODEL 14
REMARK VINA RESULT:      -4.4      3.768      4.973
REMARK  1 active torsions:
REMARK  status: ('A' for Active; 'I' for Inactive)
REMARK    1  A    between atoms: C_9  and  C_10 
ROOT
HETATM    1  C   LIG     1      24.841  22.134  22.522  1.00  0.00     0.021 A 
HETATM    2  C   LIG     1      25.508  22.830  21.492  1.00  0.00     0.070 A 
HETATM    3 CL   LIG     1      26.974  23.751  21.848  1.00  0.00    -0.081 Cl
HETATM    4  C   LIG     1      25.006  22.790  20.177  1.00  0.00     0.078 A 
HETATM    5 CL   LIG     1      25.833  23.659  18.882  1.00  0.00    -0.081 Cl
HETATM    6  C   LIG     1      23.841  22.056  19.896  1.00  0.00     0.059 A 
HETATM    7 CL   LIG     1      23.178  21.980  18.268  1.00  0.00    -0.082 Cl
HETATM    8  C   LIG     1      23.186  21.368  20.919  1.00  0.00     0.050 A 
HETATM    9  C   LIG     1      23.677  21.401  22.225  1.00  0.00     0.048 A 
HETATM   10 CL   LIG     1      22.804  20.520  23.477  1.00  0.00    -0.083 Cl
ENDROOT
BRANCH   1  11
HETATM   11  C   LIG     1      25.359  22.172  23.904  1.00  0.00     0.001 A 
HETATM   12  C   LIG     1      26.282  21.210  24.364  1.00  0.00     0.068 A 
HETATM   13 CL   LIG     1      26.843  19.934  23.280  1.00  0.00    -0.082 Cl
HETATM   14  C   LIG     1      26.756  21.274  25.689  1.00  0.00     0.078 A 
HETATM   15 CL   LIG     1      27.911  20.077  26.278  1.00  0.00    -0.081 Cl
HETATM   16  C   LIG     1      26.306  22.295  26.544  1.00  0.00     0.057 A 
HETATM   17  C   LIG     1      25.392  23.244  26.079  1.00  0.00     0.026 A 
HETATM   18 CL   LIG     1      26.871  22.413  28.207  1.00  0.00    -0.082 Cl
HETATM   19  C   LIG     1      24.920  23.184  24.767  1.00  0.00     0.016 A 
ENDBRANCH   1  11
TORSDOF 1
ENDMDL
MODEL 15
REMARK VINA RESULT:      -4.3      3.973      5.816
REMARK  1 active torsions:
REMARK  status: ('A' for Active; 'I' for Inactive)
REMARK    1  A    between atoms: C_9  and  C_10 
ROOT
HETATM    1  C   LIG     1      25.361  22.451  22.723  1.00  0.00     0.021 A 
HETATM    2  C   LIG     1      24.252  22.092  21.928  1.00  0.00     0.070 A 
HETATM    3 CL   LIG     1      22.872  21.262  22.653  1.00  0.00    -0.081 Cl
HETATM    4  C   LIG     1      24.245  22.398  20.553  1.00  0.00     0.078 A 
HETATM    5 CL   LIG     1      22.864  21.952  19.550  1.00  0.00    -0.081 Cl
HETATM    6  C   LIG     1      25.344  23.060  19.979  1.00  0.00     0.059 A 
HETATM    7 CL   LIG     1      25.378  23.461  18.267  1.00  0.00    -0.082 Cl
HETATM    8  C   LIG     1      26.438  23.414  20.772  1.00  0.00     0.050 A 
HETATM    9  C   LIG     1      26.454  23.115  22.136  1.00  0.00     0.048 A 
HETATM   10 CL   LIG     1      27.863  23.579  23.084  1.00  0.00    -0.083 Cl
ENDROOT
BRANCH   1  11
HETATM   11  C   LIG     1      25.378  22.132  24.166  1.00  0.00     0.001 A 
HETATM   12  C   LIG     1      25.898  20.908  24.636  1.00  0.00     0.068 A 
HETATM   13 CL   LIG     1      26.548  19.727  23.495  1.00  0.00    -0.082 Cl
HETATM   14  C   LIG     1      25.899  20.634  26.017  1.00  0.00     0.078 A 
HETATM   15 CL   LIG     1      26.546  19.107  26.619  1.00  0.00    -0.081 Cl
HETATM   16  C   LIG     1      25.382  21.582  26.918  1.00  0.00     0.057 A 
HETATM   17  C   LIG     1      24.870  22.791  26.442  1.00  0.00     0.026 A 
HETATM   18 CL   LIG     1      25.364  21.281  28.652  1.00  0.00    -0.082 Cl
HETATM   19  C   LIG     1      24.868  23.066  25.075  1.00  0.00     0.016 A 
ENDBRANCH   1  11
TORSDOF 1
ENDMDL
MODEL 16
REMARK VINA RESULT:      -4.3      3.489      4.883
REMARK  1 active torsions:
REMARK  status: ('A' for Active; 'I' for Inactive)
REMARK    1  A    between atoms: C_9  and  C_10 
ROOT
HETATM    1  C   LIG     1      24.998  19.783  17.761  1.00  0.00     0.021 A 
HETATM    2  C   LIG     1      26.273  20.297  17.440  1.00  0.00     0.070 A 
HETATM    3 CL   LIG     1      27.213  21.162  18.660  1.00  0.00    -0.081 Cl
HETATM    4  C   LIG     1      26.796  20.120  16.145  1.00  0.00     0.078 A 
HETATM    5 CL   LIG     1      28.388  20.762  15.734  1.00  0.00    -0.081 Cl
HETATM    6  C   LIG     1      26.047  19.430  15.176  1.00  0.00     0.059 A 
HETATM    7 CL   LIG     1      26.662  19.187  13.546  1.00  0.00    -0.082 Cl
HETATM    8  C   LIG     1      24.787  18.922  15.500  1.00  0.00     0.050 A 
HETATM    9  C   LIG     1      24.260  19.092  16.782  1.00  0.00     0.048 A 
HETATM   10 CL   LIG     1      22.663  18.436  17.131  1.00  0.00    -0.083 Cl
ENDROOT
BRANCH   1  11
HETATM   11  C   LIG     1      24.440  19.966  19.116  1.00  0.00     0.001 A 
HETATM   12  C   LIG     1      23.685  21.111  19.445  1.00  0.00     0.068 A 
HETATM   13 CL   LIG     1      23.389  22.355  18.227  1.00  0.00    -0.082 Cl
HETATM   14  C   LIG     1      23.167  21.255  20.747  1.00  0.00     0.078 A 
HETATM   15 CL   LIG     1      22.222  22.683  21.173  1.00  0.00    -0.081 Cl
HETATM   16  C   LIG     1      23.406  20.258  21.709  1.00  0.00     0.057 A 
HETATM   17  C   LIG     1      24.154  19.127  21.373  1.00  0.00     0.026 A 
HETATM   18 CL   LIG     1      22.778  20.398  23.347  1.00  0.00    -0.082 Cl
HETATM   19  C   LIG     1      24.668  18.981  20.084  1.00  0.00     0.016 A 
ENDBRANCH   1  11
TORSDOF 1
ENDMDL
MODEL 17
REMARK VINA RESULT:      -4.2      3.596      5.321
REMARK  1 active torsions:
REMARK  status: ('A' for Active; 'I' for Inactive)
REMARK    1  A    between atoms: C_9  and  C_10 
ROOT
HETATM    1  C   LIG     1      24.871  19.713  17.005  1.00  0.00     0.021 A 
HETATM    2  C   LIG     1      26.139  20.137  16.554  1.00  0.00     0.070 A 
HETATM    3 CL   LIG     1      27.049  21.342  17.472  1.00  0.00    -0.081 Cl
HETATM    4  C   LIG     1      26.681  19.599  15.371  1.00  0.00     0.078 A 
HETATM    5 CL   LIG     1      28.265  20.125  14.799  1.00  0.00    -0.081 Cl
HETATM    6  C   LIG     1      25.956  18.640  14.644  1.00  0.00     0.059 A 
HETATM    7 CL   LIG     1      26.594  17.942  13.160  1.00  0.00    -0.082 Cl
HETATM    8  C   LIG     1      24.702  18.223  15.095  1.00  0.00     0.050 A 
HETATM    9  C   LIG     1      24.157  18.751  16.267  1.00  0.00     0.048 A 
HETATM   10 CL   LIG     1      22.568  18.193  16.784  1.00  0.00    -0.083 Cl
ENDROOT
BRANCH   1  11
HETATM   11  C   LIG     1      24.293  20.274  18.243  1.00  0.00     0.001 A 
HETATM   12  C   LIG     1      24.547  19.684  19.498  1.00  0.00     0.068 A 
HETATM   13 CL   LIG     1      25.575  18.253  19.611  1.00  0.00    -0.082 Cl
HETATM   14  C   LIG     1      23.981  20.243  20.660  1.00  0.00     0.078 A 
HETATM   15 CL   LIG     1      24.289  19.516  22.238  1.00  0.00    -0.081 Cl
HETATM   16  C   LIG     1      23.165  21.385  20.561  1.00  0.00     0.057 A 
HETATM   17  C   LIG     1      22.921  21.962  19.313  1.00  0.00     0.026 A 
HETATM   18 CL   LIG     1      22.437  22.116  21.986  1.00  0.00    -0.082 Cl
HETATM   19  C   LIG     1      23.481  21.411  18.160  1.00  0.00     0.016 A 
ENDBRANCH   1  11
TORSDOF 1
ENDMDL
MODEL 18
REMARK VINA RESULT:      -4.1     11.175     12.914
REMARK  1 active torsions:
REMARK  status: ('A' for Active; 'I' for Inactive)
REMARK    1  A    between atoms: C_9  and  C_10 
ROOT
HETATM    1  C   LIG     1      19.631  19.180  29.300  1.00  0.00     0.021 A 
HETATM    2  C   LIG     1      18.320  18.794  28.949  1.00  0.00     0.070 A 
HETATM    3 CL   LIG     1      17.094  18.576  30.202  1.00  0.00    -0.081 Cl
HETATM    4  C   LIG     1      17.988  18.584  27.597  1.00  0.00     0.078 A 
HETATM    5 CL   LIG     1      16.352  18.098  27.148  1.00  0.00    -0.081 Cl
HETATM    6  C   LIG     1      18.965  18.759  26.602  1.00  0.00     0.059 A 
HETATM    7 CL   LIG     1      18.594  18.506  24.901  1.00  0.00    -0.082 Cl
HETATM    8  C   LIG     1      20.261  19.143  26.955  1.00  0.00     0.050 A 
HETATM    9  C   LIG     1      20.599  19.355  28.293  1.00  0.00     0.048 A 
HETATM   10 CL   LIG     1      22.250  19.831  28.680  1.00  0.00    -0.083 Cl
ENDROOT
BRANCH   1  11
HETATM   11  C   LIG     1      19.989  19.401  30.716  1.00  0.00     0.001 A 
HETATM   12  C   LIG     1      19.802  20.657  31.328  1.00  0.00     0.068 A 
HETATM   13 CL   LIG     1      19.124  22.000  30.403  1.00  0.00    -0.082 Cl
HETATM   14  C   LIG     1      20.154  20.835  32.680  1.00  0.00     0.078 A 
HETATM   15 CL   LIG     1      19.926  22.401  33.459  1.00  0.00    -0.081 Cl
HETATM   16  C   LIG     1      20.691  19.760  33.410  1.00  0.00     0.057 A 
HETATM   17  C   LIG     1      20.872  18.519  32.794  1.00  0.00     0.026 A 
HETATM   18 CL   LIG     1      21.146  19.937  35.101  1.00  0.00    -0.082 Cl
HETATM   19  C   LIG     1      20.524  18.339  31.456  1.00  0.00     0.016 A 
ENDBRANCH   1  11
TORSDOF 1
ENDMDL
MODEL 19
REMARK VINA RESULT:      -4.1      1.441      6.130
REMARK  1 active torsions:
REMARK  status: ('A' for Active; 'I' for Inactive)
REMARK    1  A    between atoms: C_9  and  C_10 
ROOT
HETATM    1  C   LIG     1      26.581  22.264  19.747  1.00  0.00     0.021 A 
HETATM    2  C   LIG     1      26.770  23.637  19.483  1.00  0.00     0.070 A 
HETATM    3 CL   LIG     1      26.337  24.305  17.906  1.00  0.00    -0.081 Cl
HETATM    4  C   LIG     1      27.304  24.477  20.480  1.00  0.00     0.078 A 
HETATM    5 CL   LIG     1      27.546  26.195  20.158  1.00  0.00    -0.081 Cl
HETATM    6  C   LIG     1      27.646  23.943  21.734  1.00  0.00     0.059 A 
HETATM    7 CL   LIG     1      28.316  24.955  23.007  1.00  0.00    -0.082 Cl
HETATM    8  C   LIG     1      27.455  22.583  21.989  1.00  0.00     0.050 A 
HETATM    9  C   LIG     1      26.926  21.743  21.008  1.00  0.00     0.048 A 
HETATM   10 CL   LIG     1      26.715  20.035  21.385  1.00  0.00    -0.083 Cl
ENDROOT
BRANCH   1  11
HETATM   11  C   LIG     1      26.024  21.374  18.707  1.00  0.00     0.001 A 
HETATM   12  C   LIG     1      24.643  21.099  18.647  1.00  0.00     0.068 A 
HETATM   13 CL   LIG     1      23.544  21.824  19.823  1.00  0.00    -0.082 Cl
HETATM   14  C   LIG     1      24.144  20.246  17.643  1.00  0.00     0.078 A 
HETATM   15 CL   LIG     1      22.418  19.891  17.556  1.00  0.00    -0.081 Cl
HETATM   16  C   LIG     1      25.026  19.674  16.709  1.00  0.00     0.057 A 
HETATM   17  C   LIG     1      26.393  19.955  16.777  1.00  0.00     0.026 A 
HETATM   18 CL   LIG     1      24.446  18.603  15.439  1.00  0.00    -0.082 Cl
HETATM   19  C   LIG     1      26.891  20.799  17.769  1.00  0.00     0.016 A 
ENDBRANCH   1  11
TORSDOF 1
ENDMDL
MODEL 20
REMARK VINA RESULT:      -4.1      2.497      3.955
REMARK  1 active torsions:
REMARK  status: ('A' for Active; 'I' for Inactive)
REMARK    1  A    between atoms: C_9  and  C_10 
ROOT
HETATM    1  C   LIG     1      25.854  22.401  19.889  1.00  0.00     0.021 A 
HETATM    2  C   LIG     1      26.265  22.181  21.221  1.00  0.00     0.070 A 
HETATM    3 CL   LIG     1      27.945  22.463  21.688  1.00  0.00    -0.081 Cl
HETATM    4  C   LIG     1      25.334  21.738  22.180  1.00  0.00     0.078 A 
HETATM    5 CL   LIG     1      25.840  21.458  23.848  1.00  0.00    -0.081 Cl
HETATM    6  C   LIG     1      23.998  21.516  21.807  1.00  0.00     0.059 A 
HETATM    7 CL   LIG     1      22.802  20.961  22.971  1.00  0.00    -0.082 Cl
HETATM    8  C   LIG     1      23.596  21.736  20.487  1.00  0.00     0.050 A 
HETATM    9  C   LIG     1      24.512  22.177  19.530  1.00  0.00     0.048 A 
HETATM   10 CL   LIG     1      23.950  22.431  17.880  1.00  0.00    -0.083 Cl
ENDROOT
BRANCH   1  11
HETATM   11  C   LIG     1      26.823  22.864  18.876  1.00  0.00     0.001 A 
HETATM   12  C   LIG     1      27.121  24.234  18.723  1.00  0.00     0.068 A 
HETATM   13 CL   LIG     1      26.334  25.430  19.757  1.00  0.00    -0.082 Cl
HETATM   14  C   LIG     1      28.050  24.642  17.747  1.00  0.00     0.078 A 
HETATM   15 CL   LIG     1      28.432  26.353  17.545  1.00  0.00    -0.081 Cl
HETATM   16  C   LIG     1      28.674  23.682  16.930  1.00  0.00     0.057 A 
HETATM   17  C   LIG     1      28.372  22.327  17.090  1.00  0.00     0.026 A 
HETATM   18 CL   LIG     1      29.840  24.148  15.697  1.00  0.00    -0.082 Cl
HETATM   19  C   LIG     1      27.453  21.919  18.056  1.00  0.00     0.016 A 
ENDBRANCH   1  11
TORSDOF 1
ENDMDL
