REMARK  1 active torsions:
REMARK  status: ('A' for Active; 'I' for Inactive)
REMARK    1  A    between atoms: C_11  and  C_12 
ROOT
HETATM    1 CL   LIG     1       0.529  -1.892  -2.001  1.00  0.00    -0.081 Cl
HETATM    2  C   LIG     1       1.406  -0.947  -0.791  1.00  0.00     0.070 A 
HETATM    3  C   LIG     1       2.801  -1.076  -0.677  1.00  0.00     0.080 A 
HETATM    4 CL   LIG     1       3.675  -2.180  -1.741  1.00  0.00    -0.081 Cl
HETATM    5  C   LIG     1       3.500  -0.325   0.284  1.00  0.00     0.081 A 
HETATM    6 CL   LIG     1       5.252  -0.488   0.427  1.00  0.00    -0.081 Cl
HETATM    7  C   LIG     1       2.805   0.555   1.132  1.00  0.00     0.080 A 
HETATM    8 CL   LIG     1       3.685   1.496   2.339  1.00  0.00    -0.081 Cl
HETATM    9  C   LIG     1       1.411   0.685   1.020  1.00  0.00     0.070 A 
HETATM   10 CL   LIG     1       0.539   1.792   2.087  1.00  0.00    -0.081 Cl
HETATM   11  C   LIG     1       0.709  -0.066   0.058  1.00  0.00     0.025 A 
ENDROOT
BRANCH  11  12
HETATM   12  C   LIG     1      -0.762   0.071  -0.062  1.00  0.00     0.025 A 
HETATM   13  C   LIG     1      -1.314   1.036  -0.930  1.00  0.00     0.068 A 
HETATM   14  C   LIG     1      -2.709   1.160  -1.038  1.00  0.00     0.058 A 
HETATM   15 CL   LIG     1      -0.261   2.088  -1.881  1.00  0.00    -0.082 Cl
HETATM   16  C   LIG     1      -3.545   0.330  -0.288  1.00  0.00     0.051 A 
HETATM   17 CL   LIG     1      -3.441   2.349  -2.108  1.00  0.00    -0.082 Cl
HETATM   18  C   LIG     1      -3.006  -0.628   0.574  1.00  0.00     0.058 A 
HETATM   19  C   LIG     1      -1.613  -0.764   0.692  1.00  0.00     0.068 A 
HETATM   20 CL   LIG     1      -4.106  -1.647   1.495  1.00  0.00    -0.082 Cl
HETATM   21 CL   LIG     1      -0.936  -1.977   1.784  1.00  0.00    -0.082 Cl
ENDBRANCH  11  12
TORSDOF 1
