MODEL 1
REMARK VINA RESULT:      -4.6      0.000      0.000
REMARK  1 active torsions:
REMARK  status: ('A' for Active; 'I' for Inactive)
REMARK    1  A    between atoms: C_11  and  C_12 
ROOT
HETATM    1 CL   LIG     1      26.511  19.339  23.001  1.00  0.00    -0.081 Cl
HETATM    2  C   LIG     1      25.472  20.051  21.760  1.00  0.00     0.070 A 
HETATM    3  C   LIG     1      25.570  19.612  20.428  1.00  0.00     0.080 A 
HETATM    4 CL   LIG     1      26.728  18.351  19.997  1.00  0.00    -0.081 Cl
HETATM    5  C   LIG     1      24.744  20.176  19.440  1.00  0.00     0.081 A 
HETATM    6 CL   LIG     1      24.868  19.624  17.767  1.00  0.00    -0.081 Cl
HETATM    7  C   LIG     1      23.822  21.180  19.782  1.00  0.00     0.080 A 
HETATM    8 CL   LIG     1      22.787  21.888  18.539  1.00  0.00    -0.081 Cl
HETATM    9  C   LIG     1      23.723  21.620  21.112  1.00  0.00     0.070 A 
HETATM   10 CL   LIG     1      22.562  22.882  21.540  1.00  0.00    -0.081 Cl
HETATM   11  C   LIG     1      24.548  21.056  22.103  1.00  0.00     0.025 A 
ENDROOT
BRANCH  11  12
HETATM   12  C   LIG     1      24.444  21.519  23.507  1.00  0.00     0.025 A 
HETATM   13  C   LIG     1      25.253  22.581  23.963  1.00  0.00     0.068 A 
HETATM   14  C   LIG     1      25.149  23.014  25.296  1.00  0.00     0.058 A 
HETATM   15 CL   LIG     1      26.393  23.369  22.869  1.00  0.00    -0.082 Cl
HETATM   16  C   LIG     1      24.248  22.395  26.164  1.00  0.00     0.051 A 
HETATM   17 CL   LIG     1      26.136  24.335  25.907  1.00  0.00    -0.082 Cl
HETATM   18  C   LIG     1      23.444  21.342  25.720  1.00  0.00     0.058 A 
HETATM   19  C   LIG     1      23.537  20.898  24.391  1.00  0.00     0.068 A 
HETATM   20 CL   LIG     1      22.327  20.597  26.857  1.00  0.00    -0.082 Cl
HETATM   21 CL   LIG     1      22.518  19.566  23.834  1.00  0.00    -0.082 Cl
ENDBRANCH  11  12
TORSDOF 1
ENDMDL
MODEL 2
REMARK VINA RESULT:      -4.6      0.059      2.613
REMARK  1 active torsions:
REMARK  status: ('A' for Active; 'I' for Inactive)
REMARK    1  A    between atoms: C_11  and  C_12 
ROOT
HETATM    1 CL   LIG     1      26.579  19.388  22.952  1.00  0.00    -0.081 Cl
HETATM    2  C   LIG     1      25.524  20.085  21.717  1.00  0.00     0.070 A 
HETATM    3  C   LIG     1      25.626  19.653  20.383  1.00  0.00     0.080 A 
HETATM    4 CL   LIG     1      26.806  18.416  19.944  1.00  0.00    -0.081 Cl
HETATM    5  C   LIG     1      24.787  20.205  19.399  1.00  0.00     0.081 A 
HETATM    6 CL   LIG     1      24.916  19.663  17.724  1.00  0.00    -0.081 Cl
HETATM    7  C   LIG     1      23.847  21.190  19.748  1.00  0.00     0.080 A 
HETATM    8 CL   LIG     1      22.796  21.884  18.510  1.00  0.00    -0.081 Cl
HETATM    9  C   LIG     1      23.744  21.624  21.080  1.00  0.00     0.070 A 
HETATM   10 CL   LIG     1      22.560  22.862  21.516  1.00  0.00    -0.081 Cl
HETATM   11  C   LIG     1      24.582  21.072  22.067  1.00  0.00     0.025 A 
ENDROOT
BRANCH  11  12
HETATM   12  C   LIG     1      24.474  21.527  23.473  1.00  0.00     0.025 A 
HETATM   13  C   LIG     1      23.568  20.898  24.352  1.00  0.00     0.068 A 
HETATM   14  C   LIG     1      23.471  21.336  25.683  1.00  0.00     0.058 A 
HETATM   15 CL   LIG     1      22.556  19.564  23.789  1.00  0.00    -0.082 Cl
HETATM   16  C   LIG     1      24.269  22.390  26.133  1.00  0.00     0.051 A 
HETATM   17 CL   LIG     1      22.355  20.581  26.815  1.00  0.00    -0.082 Cl
HETATM   18  C   LIG     1      25.168  23.018  25.268  1.00  0.00     0.058 A 
HETATM   19  C   LIG     1      25.277  22.591  23.935  1.00  0.00     0.068 A 
HETATM   20 CL   LIG     1      26.149  24.341  25.888  1.00  0.00    -0.082 Cl
HETATM   21 CL   LIG     1      26.416  23.389  22.844  1.00  0.00    -0.082 Cl
ENDBRANCH  11  12
TORSDOF 1
ENDMDL
MODEL 3
REMARK VINA RESULT:      -4.6      0.133      3.704
REMARK  1 active torsions:
REMARK  status: ('A' for Active; 'I' for Inactive)
REMARK    1  A    between atoms: C_11  and  C_12 
ROOT
HETATM    1 CL   LIG     1      22.628  22.912  21.571  1.00  0.00    -0.081 Cl
HETATM    2  C   LIG     1      23.719  21.585  21.152  1.00  0.00     0.070 A 
HETATM    3  C   LIG     1      23.780  21.119  19.828  1.00  0.00     0.080 A 
HETATM    4 CL   LIG     1      22.770  21.859  18.584  1.00  0.00    -0.081 Cl
HETATM    5  C   LIG     1      24.648  20.064  19.493  1.00  0.00     0.081 A 
HETATM    6 CL   LIG     1      24.724  19.480  17.829  1.00  0.00    -0.081 Cl
HETATM    7  C   LIG     1      25.453  19.474  20.483  1.00  0.00     0.080 A 
HETATM    8 CL   LIG     1      26.541  18.149  20.060  1.00  0.00    -0.081 Cl
HETATM    9  C   LIG     1      25.393  19.938  21.807  1.00  0.00     0.070 A 
HETATM   10 CL   LIG     1      26.407  19.195  23.050  1.00  0.00    -0.081 Cl
HETATM   11  C   LIG     1      24.525  20.994  22.144  1.00  0.00     0.025 A 
ENDROOT
BRANCH  11  12
HETATM   12  C   LIG     1      24.461  21.485  23.541  1.00  0.00     0.025 A 
HETATM   13  C   LIG     1      23.558  20.903  24.455  1.00  0.00     0.068 A 
HETATM   14  C   LIG     1      23.503  21.374  25.777  1.00  0.00     0.058 A 
HETATM   15 CL   LIG     1      22.497  19.586  23.945  1.00  0.00    -0.082 Cl
HETATM   16  C   LIG     1      24.340  22.415  26.184  1.00  0.00     0.051 A 
HETATM   17 CL   LIG     1      22.393  20.677  26.950  1.00  0.00    -0.082 Cl
HETATM   18  C   LIG     1      25.237  22.997  25.285  1.00  0.00     0.058 A 
HETATM   19  C   LIG     1      25.304  22.536  23.960  1.00  0.00     0.068 A 
HETATM   20 CL   LIG     1      26.268  24.306  25.852  1.00  0.00    -0.082 Cl
HETATM   21 CL   LIG     1      26.440  23.276  22.827  1.00  0.00    -0.082 Cl
ENDBRANCH  11  12
TORSDOF 1
ENDMDL
MODEL 4
REMARK VINA RESULT:      -4.6      0.127      2.626
REMARK  1 active torsions:
REMARK  status: ('A' for Active; 'I' for Inactive)
REMARK    1  A    between atoms: C_11  and  C_12 
ROOT
HETATM    1 CL   LIG     1      22.641  22.892  21.537  1.00  0.00    -0.081 Cl
HETATM    2  C   LIG     1      23.735  21.564  21.128  1.00  0.00     0.070 A 
HETATM    3  C   LIG     1      23.810  21.100  19.804  1.00  0.00     0.080 A 
HETATM    4 CL   LIG     1      22.813  21.842  18.551  1.00  0.00    -0.081 Cl
HETATM    5  C   LIG     1      24.679  20.044  19.477  1.00  0.00     0.081 A 
HETATM    6 CL   LIG     1      24.772  19.461  17.814  1.00  0.00    -0.081 Cl
HETATM    7  C   LIG     1      25.473  19.452  20.475  1.00  0.00     0.080 A 
HETATM    8 CL   LIG     1      26.563  18.125  20.062  1.00  0.00    -0.081 Cl
HETATM    9  C   LIG     1      25.399  19.914  21.799  1.00  0.00     0.070 A 
HETATM   10 CL   LIG     1      26.399  19.168  23.051  1.00  0.00    -0.081 Cl
HETATM   11  C   LIG     1      24.530  20.971  22.128  1.00  0.00     0.025 A 
ENDROOT
BRANCH  11  12
HETATM   12  C   LIG     1      24.452  21.461  23.525  1.00  0.00     0.025 A 
HETATM   13  C   LIG     1      25.285  22.516  23.952  1.00  0.00     0.068 A 
HETATM   14  C   LIG     1      25.205  22.974  25.278  1.00  0.00     0.058 A 
HETATM   15 CL   LIG     1      26.427  23.262  22.830  1.00  0.00    -0.082 Cl
HETATM   16  C   LIG     1      24.304  22.386  26.168  1.00  0.00     0.051 A 
HETATM   17 CL   LIG     1      26.225  24.287  25.854  1.00  0.00    -0.082 Cl
HETATM   18  C   LIG     1      23.475  21.341  25.752  1.00  0.00     0.058 A 
HETATM   19  C   LIG     1      23.543  20.873  24.430  1.00  0.00     0.068 A 
HETATM   20 CL   LIG     1      22.358  20.637  26.916  1.00  0.00    -0.082 Cl
HETATM   21 CL   LIG     1      22.494  19.550  23.909  1.00  0.00    -0.082 Cl
ENDBRANCH  11  12
TORSDOF 1
ENDMDL
MODEL 5
REMARK VINA RESULT:      -4.5      1.177      5.990
REMARK  1 active torsions:
REMARK  status: ('A' for Active; 'I' for Inactive)
REMARK    1  A    between atoms: C_11  and  C_12 
ROOT
HETATM    1 CL   LIG     1      27.191  23.556  22.114  1.00  0.00    -0.081 Cl
HETATM    2  C   LIG     1      26.240  23.130  23.542  1.00  0.00     0.070 A 
HETATM    3  C   LIG     1      26.484  23.778  24.765  1.00  0.00     0.080 A 
HETATM    4 CL   LIG     1      27.738  25.015  24.874  1.00  0.00    -0.081 Cl
HETATM    5  C   LIG     1      25.728  23.441  25.902  1.00  0.00     0.081 A 
HETATM    6 CL   LIG     1      26.036  24.255  27.438  1.00  0.00    -0.081 Cl
HETATM    7  C   LIG     1      24.728  22.457  25.817  1.00  0.00     0.080 A 
HETATM    8 CL   LIG     1      23.782  22.035  27.246  1.00  0.00    -0.081 Cl
HETATM    9  C   LIG     1      24.483  21.808  24.595  1.00  0.00     0.070 A 
HETATM   10 CL   LIG     1      23.226  20.570  24.490  1.00  0.00    -0.081 Cl
HETATM   11  C   LIG     1      25.239  22.144  23.456  1.00  0.00     0.025 A 
ENDROOT
BRANCH  11  12
HETATM   12  C   LIG     1      24.980  21.460  22.166  1.00  0.00     0.025 A 
HETATM   13  C   LIG     1      24.045  21.996  21.257  1.00  0.00     0.068 A 
HETATM   14  C   LIG     1      23.805  21.343  20.037  1.00  0.00     0.058 A 
HETATM   15 CL   LIG     1      23.175  23.484  21.644  1.00  0.00    -0.082 Cl
HETATM   16  C   LIG     1      24.491  20.167  19.727  1.00  0.00     0.051 A 
HETATM   17 CL   LIG     1      22.648  21.976  18.872  1.00  0.00    -0.082 Cl
HETATM   18  C   LIG     1      25.419  19.629  20.622  1.00  0.00     0.058 A 
HETATM   19  C   LIG     1      25.670  20.272  21.846  1.00  0.00     0.068 A 
HETATM   20 CL   LIG     1      26.255  18.145  20.180  1.00  0.00    -0.082 Cl
HETATM   21 CL   LIG     1      26.844  19.588  22.975  1.00  0.00    -0.082 Cl
ENDBRANCH  11  12
TORSDOF 1
ENDMDL
MODEL 6
REMARK VINA RESULT:      -4.5      1.192      6.024
REMARK  1 active torsions:
REMARK  status: ('A' for Active; 'I' for Inactive)
REMARK    1  A    between atoms: C_11  and  C_12 
ROOT
HETATM    1 CL   LIG     1      27.223  23.553  22.133  1.00  0.00    -0.081 Cl
HETATM    2  C   LIG     1      26.264  23.131  23.558  1.00  0.00     0.070 A 
HETATM    3  C   LIG     1      26.491  23.792  24.777  1.00  0.00     0.080 A 
HETATM    4 CL   LIG     1      27.732  25.042  24.885  1.00  0.00    -0.081 Cl
HETATM    5  C   LIG     1      25.729  23.458  25.910  1.00  0.00     0.081 A 
HETATM    6 CL   LIG     1      26.015  24.289  27.441  1.00  0.00    -0.081 Cl
HETATM    7  C   LIG     1      24.740  22.462  25.825  1.00  0.00     0.080 A 
HETATM    8 CL   LIG     1      23.786  22.044  27.250  1.00  0.00    -0.081 Cl
HETATM    9  C   LIG     1      24.512  21.800  24.608  1.00  0.00     0.070 A 
HETATM   10 CL   LIG     1      23.268  20.549  24.503  1.00  0.00    -0.081 Cl
HETATM   11  C   LIG     1      25.274  22.133  23.472  1.00  0.00     0.025 A 
ENDROOT
BRANCH  11  12
HETATM   12  C   LIG     1      25.034  21.436  22.186  1.00  0.00     0.025 A 
HETATM   13  C   LIG     1      25.756  20.266  21.870  1.00  0.00     0.068 A 
HETATM   14  C   LIG     1      25.523  19.611  20.650  1.00  0.00     0.058 A 
HETATM   15 CL   LIG     1      26.950  19.621  23.001  1.00  0.00    -0.082 Cl
HETATM   16  C   LIG     1      24.579  20.117  19.754  1.00  0.00     0.051 A 
HETATM   17 CL   LIG     1      26.400  18.149  20.215  1.00  0.00    -0.082 Cl
HETATM   18  C   LIG     1      23.860  21.275  20.059  1.00  0.00     0.058 A 
HETATM   19  C   LIG     1      24.082  21.941  21.276  1.00  0.00     0.068 A 
HETATM   20 CL   LIG     1      22.684  21.868  18.893  1.00  0.00    -0.082 Cl
HETATM   21 CL   LIG     1      23.170  23.405  21.657  1.00  0.00    -0.082 Cl
ENDBRANCH  11  12
TORSDOF 1
ENDMDL
MODEL 7
REMARK VINA RESULT:      -4.5      1.196      6.057
REMARK  1 active torsions:
REMARK  status: ('A' for Active; 'I' for Inactive)
REMARK    1  A    between atoms: C_11  and  C_12 
ROOT
HETATM    1 CL   LIG     1      23.226  20.593  24.507  1.00  0.00    -0.081 Cl
HETATM    2  C   LIG     1      24.496  21.820  24.595  1.00  0.00     0.070 A 
HETATM    3  C   LIG     1      24.742  22.489  25.806  1.00  0.00     0.080 A 
HETATM    4 CL   LIG     1      23.784  22.103  27.238  1.00  0.00    -0.081 Cl
HETATM    5  C   LIG     1      25.752  23.464  25.878  1.00  0.00     0.081 A 
HETATM    6 CL   LIG     1      26.060  24.304  27.400  1.00  0.00    -0.081 Cl
HETATM    7  C   LIG     1      26.516  23.772  24.739  1.00  0.00     0.080 A 
HETATM    8 CL   LIG     1      27.782  24.998  24.832  1.00  0.00    -0.081 Cl
HETATM    9  C   LIG     1      26.271  23.105  23.527  1.00  0.00     0.070 A 
HETATM   10 CL   LIG     1      27.233  23.494  22.096  1.00  0.00    -0.081 Cl
HETATM   11  C   LIG     1      25.260  22.128  23.453  1.00  0.00     0.025 A 
ENDROOT
BRANCH  11  12
HETATM   12  C   LIG     1      25.002  21.423  22.175  1.00  0.00     0.025 A 
HETATM   13  C   LIG     1      25.684  20.225  21.878  1.00  0.00     0.068 A 
HETATM   14  C   LIG     1      25.434  19.563  20.665  1.00  0.00     0.058 A 
HETATM   15 CL   LIG     1      26.850  19.553  23.022  1.00  0.00    -0.082 Cl
HETATM   16  C   LIG     1      24.513  20.090  19.757  1.00  0.00     0.051 A 
HETATM   17 CL   LIG     1      26.261  18.066  20.252  1.00  0.00    -0.082 Cl
HETATM   18  C   LIG     1      23.833  21.276  20.044  1.00  0.00     0.058 A 
HETATM   19  C   LIG     1      24.073  21.949  21.254  1.00  0.00     0.068 A 
HETATM   20 CL   LIG     1      22.684  21.895  18.865  1.00  0.00    -0.082 Cl
HETATM   21 CL   LIG     1      23.211  23.449  21.612  1.00  0.00    -0.082 Cl
ENDBRANCH  11  12
TORSDOF 1
ENDMDL
MODEL 8
REMARK VINA RESULT:      -4.3      0.844      5.986
REMARK  1 active torsions:
REMARK  status: ('A' for Active; 'I' for Inactive)
REMARK    1  A    between atoms: C_11  and  C_12 
ROOT
HETATM    1 CL   LIG     1      22.460  19.078  23.199  1.00  0.00    -0.081 Cl
HETATM    2  C   LIG     1      23.411  20.385  23.916  1.00  0.00     0.070 A 
HETATM    3  C   LIG     1      23.268  20.688  25.281  1.00  0.00     0.080 A 
HETATM    4 CL   LIG     1      22.140  19.765  26.277  1.00  0.00    -0.081 Cl
HETATM    5  C   LIG     1      24.023  21.726  25.854  1.00  0.00     0.081 A 
HETATM    6 CL   LIG     1      23.843  22.107  27.568  1.00  0.00    -0.081 Cl
HETATM    7  C   LIG     1      24.922  22.463  25.062  1.00  0.00     0.080 A 
HETATM    8 CL   LIG     1      25.869  23.767  25.783  1.00  0.00    -0.081 Cl
HETATM    9  C   LIG     1      25.066  22.162  23.697  1.00  0.00     0.070 A 
HETATM   10 CL   LIG     1      26.197  23.088  22.704  1.00  0.00    -0.081 Cl
HETATM   11  C   LIG     1      24.311  21.122  23.122  1.00  0.00     0.025 A 
ENDROOT
BRANCH  11  12
HETATM   12  C   LIG     1      24.463  20.803  21.683  1.00  0.00     0.025 A 
HETATM   13  C   LIG     1      23.649  21.444  20.726  1.00  0.00     0.068 A 
HETATM   14  C   LIG     1      23.799  21.136  19.364  1.00  0.00     0.058 A 
HETATM   15 CL   LIG     1      22.444  22.633  21.232  1.00  0.00    -0.082 Cl
HETATM   16  C   LIG     1      24.750  20.197  18.960  1.00  0.00     0.051 A 
HETATM   17 CL   LIG     1      22.806  21.912  18.137  1.00  0.00    -0.082 Cl
HETATM   18  C   LIG     1      25.560  19.557  19.901  1.00  0.00     0.058 A 
HETATM   19  C   LIG     1      25.422  19.856  21.267  1.00  0.00     0.068 A 
HETATM   20 CL   LIG     1      26.743  18.383  19.336  1.00  0.00    -0.082 Cl
HETATM   21 CL   LIG     1      26.448  19.043  22.454  1.00  0.00    -0.082 Cl
ENDBRANCH  11  12
TORSDOF 1
ENDMDL
MODEL 9
REMARK VINA RESULT:      -4.3      3.264      5.147
REMARK  1 active torsions:
REMARK  status: ('A' for Active; 'I' for Inactive)
REMARK    1  A    between atoms: C_11  and  C_12 
ROOT
HETATM    1 CL   LIG     1      26.505  25.215  19.194  1.00  0.00    -0.081 Cl
HETATM    2  C   LIG     1      27.039  23.619  18.652  1.00  0.00     0.070 A 
HETATM    3  C   LIG     1      27.894  23.505  17.542  1.00  0.00     0.080 A 
HETATM    4 CL   LIG     1      28.434  24.955  16.692  1.00  0.00    -0.081 Cl
HETATM    5  C   LIG     1      28.320  22.237  17.110  1.00  0.00     0.081 A 
HETATM    6 CL   LIG     1      29.394  22.095  15.716  1.00  0.00    -0.081 Cl
HETATM    7  C   LIG     1      27.891  21.082  17.787  1.00  0.00     0.080 A 
HETATM    8 CL   LIG     1      28.426  19.490  17.241  1.00  0.00    -0.081 Cl
HETATM    9  C   LIG     1      27.036  21.193  18.895  1.00  0.00     0.070 A 
HETATM   10 CL   LIG     1      26.498  19.740  19.745  1.00  0.00    -0.081 Cl
HETATM   11  C   LIG     1      26.609  22.462  19.330  1.00  0.00     0.025 A 
ENDROOT
BRANCH  11  12
HETATM   12  C   LIG     1      25.707  22.581  20.501  1.00  0.00     0.025 A 
HETATM   13  C   LIG     1      24.308  22.579  20.319  1.00  0.00     0.068 A 
HETATM   14  C   LIG     1      23.461  22.693  21.434  1.00  0.00     0.058 A 
HETATM   15 CL   LIG     1      23.618  22.434  18.700  1.00  0.00    -0.082 Cl
HETATM   16  C   LIG     1      24.003  22.807  22.716  1.00  0.00     0.051 A 
HETATM   17 CL   LIG     1      21.711  22.694  21.255  1.00  0.00    -0.082 Cl
HETATM   18  C   LIG     1      25.387  22.811  22.903  1.00  0.00     0.058 A 
HETATM   19  C   LIG     1      26.247  22.697  21.799  1.00  0.00     0.068 A 
HETATM   20 CL   LIG     1      26.015  22.958  24.541  1.00  0.00    -0.082 Cl
HETATM   21 CL   LIG     1      27.997  22.702  22.041  1.00  0.00    -0.082 Cl
ENDBRANCH  11  12
TORSDOF 1
ENDMDL
MODEL 10
REMARK VINA RESULT:      -4.2      4.288      7.395
REMARK  1 active torsions:
REMARK  status: ('A' for Active; 'I' for Inactive)
REMARK    1  A    between atoms: C_11  and  C_12 
ROOT
HETATM    1 CL   LIG     1      24.666  22.935  17.949  1.00  0.00    -0.081 Cl
HETATM    2  C   LIG     1      25.439  22.968  19.539  1.00  0.00     0.070 A 
HETATM    3  C   LIG     1      24.675  22.734  20.695  1.00  0.00     0.080 A 
HETATM    4 CL   LIG     1      22.945  22.408  20.559  1.00  0.00    -0.081 Cl
HETATM    5  C   LIG     1      25.288  22.759  21.960  1.00  0.00     0.081 A 
HETATM    6 CL   LIG     1      24.327  22.466  23.412  1.00  0.00    -0.081 Cl
HETATM    7  C   LIG     1      26.665  23.018  22.070  1.00  0.00     0.080 A 
HETATM    8 CL   LIG     1      27.432  23.051  23.660  1.00  0.00    -0.081 Cl
HETATM    9  C   LIG     1      27.431  23.252  20.916  1.00  0.00     0.070 A 
HETATM   10 CL   LIG     1      29.162  23.578  21.056  1.00  0.00    -0.081 Cl
HETATM   11  C   LIG     1      26.819  23.227  19.648  1.00  0.00     0.025 A 
ENDROOT
BRANCH  11  12
HETATM   12  C   LIG     1      27.626  23.473  18.430  1.00  0.00     0.025 A 
HETATM   13  C   LIG     1      27.936  24.793  18.041  1.00  0.00     0.068 A 
HETATM   14  C   LIG     1      28.701  25.018  16.885  1.00  0.00     0.058 A 
HETATM   15 CL   LIG     1      27.369  26.163  19.001  1.00  0.00    -0.082 Cl
HETATM   16  C   LIG     1      29.152  23.937  16.123  1.00  0.00     0.051 A 
HETATM   17 CL   LIG     1      29.113  26.647  16.364  1.00  0.00    -0.082 Cl
HETATM   18  C   LIG     1      28.848  22.627  16.501  1.00  0.00     0.058 A 
HETATM   19  C   LIG     1      28.085  22.387  17.655  1.00  0.00     0.068 A 
HETATM   20 CL   LIG     1      29.441  21.304  15.505  1.00  0.00    -0.082 Cl
HETATM   21 CL   LIG     1      27.703  20.728  18.129  1.00  0.00    -0.082 Cl
ENDBRANCH  11  12
TORSDOF 1
ENDMDL
MODEL 11
REMARK VINA RESULT:      -4.2      4.293      7.674
REMARK  1 active torsions:
REMARK  status: ('A' for Active; 'I' for Inactive)
REMARK    1  A    between atoms: C_11  and  C_12 
ROOT
HETATM    1 CL   LIG     1      24.667  22.945  17.941  1.00  0.00    -0.081 Cl
HETATM    2  C   LIG     1      25.439  22.971  19.531  1.00  0.00     0.070 A 
HETATM    3  C   LIG     1      24.674  22.736  20.686  1.00  0.00     0.080 A 
HETATM    4 CL   LIG     1      22.944  22.413  20.548  1.00  0.00    -0.081 Cl
HETATM    5  C   LIG     1      25.287  22.756  21.951  1.00  0.00     0.081 A 
HETATM    6 CL   LIG     1      24.325  22.460  23.401  1.00  0.00    -0.081 Cl
HETATM    7  C   LIG     1      26.665  23.012  22.062  1.00  0.00     0.080 A 
HETATM    8 CL   LIG     1      27.432  23.038  23.652  1.00  0.00    -0.081 Cl
HETATM    9  C   LIG     1      27.431  23.248  20.909  1.00  0.00     0.070 A 
HETATM   10 CL   LIG     1      29.163  23.570  21.051  1.00  0.00    -0.081 Cl
HETATM   11  C   LIG     1      26.819  23.228  19.641  1.00  0.00     0.025 A 
ENDROOT
BRANCH  11  12
HETATM   12  C   LIG     1      27.627  23.476  18.423  1.00  0.00     0.025 A 
HETATM   13  C   LIG     1      28.088  22.393  17.647  1.00  0.00     0.068 A 
HETATM   14  C   LIG     1      28.853  22.636  16.494  1.00  0.00     0.058 A 
HETATM   15 CL   LIG     1      27.707  20.733  18.116  1.00  0.00    -0.082 Cl
HETATM   16  C   LIG     1      29.156  23.947  16.120  1.00  0.00     0.051 A 
HETATM   17 CL   LIG     1      29.448  21.315  15.496  1.00  0.00    -0.082 Cl
HETATM   18  C   LIG     1      28.703  25.025  16.883  1.00  0.00     0.058 A 
HETATM   19  C   LIG     1      27.937  24.798  18.038  1.00  0.00     0.068 A 
HETATM   20 CL   LIG     1      29.114  26.656  16.365  1.00  0.00    -0.082 Cl
HETATM   21 CL   LIG     1      27.367  26.166  19.001  1.00  0.00    -0.082 Cl
ENDBRANCH  11  12
TORSDOF 1
ENDMDL
MODEL 12
REMARK VINA RESULT:      -4.0      5.256      7.102
REMARK  1 active torsions:
REMARK  status: ('A' for Active; 'I' for Inactive)
REMARK    1  A    between atoms: C_11  and  C_12 
ROOT
HETATM    1 CL   LIG     1      27.785  26.042  20.142  1.00  0.00    -0.081 Cl
HETATM    2  C   LIG     1      28.270  25.372  18.579  1.00  0.00     0.070 A 
HETATM    3  C   LIG     1      28.764  26.222  17.575  1.00  0.00     0.080 A 
HETATM    4 CL   LIG     1      28.899  27.956  17.875  1.00  0.00    -0.081 Cl
HETATM    5  C   LIG     1      29.151  25.691  16.332  1.00  0.00     0.081 A 
HETATM    6 CL   LIG     1      29.771  26.760  15.071  1.00  0.00    -0.081 Cl
HETATM    7  C   LIG     1      29.044  24.310  16.092  1.00  0.00     0.080 A 
HETATM    8 CL   LIG     1      29.529  23.646  14.530  1.00  0.00    -0.081 Cl
HETATM    9  C   LIG     1      28.550  23.459  17.094  1.00  0.00     0.070 A 
HETATM   10 CL   LIG     1      28.416  21.723  16.790  1.00  0.00    -0.081 Cl
HETATM   11  C   LIG     1      28.162  23.989  18.339  1.00  0.00     0.025 A 
ENDROOT
BRANCH  11  12
HETATM   12  C   LIG     1      27.642  23.091  19.398  1.00  0.00     0.025 A 
HETATM   13  C   LIG     1      26.268  22.774  19.444  1.00  0.00     0.068 A 
HETATM   14  C   LIG     1      25.783  21.923  20.451  1.00  0.00     0.058 A 
HETATM   15 CL   LIG     1      25.157  23.440  18.244  1.00  0.00    -0.082 Cl
HETATM   16  C   LIG     1      26.658  21.394  21.402  1.00  0.00     0.051 A 
HETATM   17 CL   LIG     1      24.078  21.500  20.547  1.00  0.00    -0.082 Cl
HETATM   18  C   LIG     1      28.020  21.703  21.363  1.00  0.00     0.058 A 
HETATM   19  C   LIG     1      28.520  22.552  20.362  1.00  0.00     0.068 A 
HETATM   20 CL   LIG     1      29.077  21.008  22.586  1.00  0.00    -0.082 Cl
HETATM   21 CL   LIG     1      30.243  22.941  20.317  1.00  0.00    -0.082 Cl
ENDBRANCH  11  12
TORSDOF 1
ENDMDL
MODEL 13
REMARK VINA RESULT:      -4.0      4.589      7.550
REMARK  1 active torsions:
REMARK  status: ('A' for Active; 'I' for Inactive)
REMARK    1  A    between atoms: C_11  and  C_12 
ROOT
HETATM    1 CL   LIG     1      24.790  23.647  17.756  1.00  0.00    -0.081 Cl
HETATM    2  C   LIG     1      25.624  22.856  19.100  1.00  0.00     0.070 A 
HETATM    3  C   LIG     1      24.903  22.041  19.990  1.00  0.00     0.080 A 
HETATM    4 CL   LIG     1      23.167  21.810  19.766  1.00  0.00    -0.081 Cl
HETATM    5  C   LIG     1      25.564  21.411  21.058  1.00  0.00     0.081 A 
HETATM    6 CL   LIG     1      24.658  20.389  22.176  1.00  0.00    -0.081 Cl
HETATM    7  C   LIG     1      26.946  21.595  21.238  1.00  0.00     0.080 A 
HETATM    8 CL   LIG     1      27.774  20.803  22.581  1.00  0.00    -0.081 Cl
HETATM    9  C   LIG     1      27.668  22.409  20.350  1.00  0.00     0.070 A 
HETATM   10 CL   LIG     1      29.406  22.638  20.577  1.00  0.00    -0.081 Cl
HETATM   11  C   LIG     1      27.008  23.041  19.279  1.00  0.00     0.025 A 
ENDROOT
BRANCH  11  12
HETATM   12  C   LIG     1      27.769  23.899  18.340  1.00  0.00     0.025 A 
HETATM   13  C   LIG     1      28.310  23.349  17.159  1.00  0.00     0.068 A 
HETATM   14  C   LIG     1      29.031  24.169  16.275  1.00  0.00     0.058 A 
HETATM   15 CL   LIG     1      28.086  21.637  16.787  1.00  0.00    -0.082 Cl
HETATM   16  C   LIG     1      29.210  25.523  16.565  1.00  0.00     0.051 A 
HETATM   17 CL   LIG     1      29.722  23.526  14.790  1.00  0.00    -0.082 Cl
HETATM   18  C   LIG     1      28.677  26.075  17.733  1.00  0.00     0.058 A 
HETATM   19  C   LIG     1      27.954  25.268  18.626  1.00  0.00     0.068 A 
HETATM   20 CL   LIG     1      28.933  27.787  18.048  1.00  0.00    -0.082 Cl
HETATM   21 CL   LIG     1      27.283  25.970  20.102  1.00  0.00    -0.082 Cl
ENDBRANCH  11  12
TORSDOF 1
ENDMDL
MODEL 14
REMARK VINA RESULT:      -3.8      3.483      6.872
REMARK  1 active torsions:
REMARK  status: ('A' for Active; 'I' for Inactive)
REMARK    1  A    between atoms: C_11  and  C_12 
ROOT
HETATM    1 CL   LIG     1      26.156  24.228  17.900  1.00  0.00    -0.081 Cl
HETATM    2  C   LIG     1      26.658  23.602  19.476  1.00  0.00     0.070 A 
HETATM    3  C   LIG     1      27.196  24.474  20.438  1.00  0.00     0.080 A 
HETATM    4 CL   LIG     1      27.370  26.192  20.072  1.00  0.00    -0.081 Cl
HETATM    5  C   LIG     1      27.595  23.978  21.691  1.00  0.00     0.081 A 
HETATM    6 CL   LIG     1      28.272  25.074  22.898  1.00  0.00    -0.081 Cl
HETATM    7  C   LIG     1      27.457  22.610  21.983  1.00  0.00     0.080 A 
HETATM    8 CL   LIG     1      27.960  21.990  23.558  1.00  0.00    -0.081 Cl
HETATM    9  C   LIG     1      26.919  21.737  21.024  1.00  0.00     0.070 A 
HETATM   10 CL   LIG     1      26.746  20.017  21.393  1.00  0.00    -0.081 Cl
HETATM   11  C   LIG     1      26.519  22.232  19.768  1.00  0.00     0.025 A 
ENDROOT
BRANCH  11  12
HETATM   12  C   LIG     1      25.951  21.311  18.754  1.00  0.00     0.025 A 
HETATM   13  C   LIG     1      26.792  20.707  17.797  1.00  0.00     0.068 A 
HETATM   14  C   LIG     1      26.246  19.837  16.839  1.00  0.00     0.058 A 
HETATM   15 CL   LIG     1      28.527  21.040  17.796  1.00  0.00    -0.082 Cl
HETATM   16  C   LIG     1      24.875  19.571  16.837  1.00  0.00     0.051 A 
HETATM   17 CL   LIG     1      27.257  19.061  15.627  1.00  0.00    -0.082 Cl
HETATM   18  C   LIG     1      24.035  20.166  17.782  1.00  0.00     0.058 A 
HETATM   19  C   LIG     1      24.567  21.038  18.746  1.00  0.00     0.068 A 
HETATM   20 CL   LIG     1      22.315  19.796  17.732  1.00  0.00    -0.082 Cl
HETATM   21 CL   LIG     1      23.500  21.788  19.938  1.00  0.00    -0.082 Cl
ENDBRANCH  11  12
TORSDOF 1
ENDMDL
MODEL 15
REMARK VINA RESULT:      -3.6      2.695      7.003
REMARK  1 active torsions:
REMARK  status: ('A' for Active; 'I' for Inactive)
REMARK    1  A    between atoms: C_11  and  C_12 
ROOT
HETATM    1 CL   LIG     1      23.732  22.438  18.252  1.00  0.00    -0.081 Cl
HETATM    2  C   LIG     1      24.115  21.316  19.564  1.00  0.00     0.070 A 
HETATM    3  C   LIG     1      23.431  21.409  20.788  1.00  0.00     0.080 A 
HETATM    4 CL   LIG     1      22.192  22.645  21.015  1.00  0.00    -0.081 Cl
HETATM    5  C   LIG     1      23.734  20.517  21.832  1.00  0.00     0.081 A 
HETATM    6 CL   LIG     1      22.875  20.635  23.370  1.00  0.00    -0.081 Cl
HETATM    7  C   LIG     1      24.721  19.532  21.653  1.00  0.00     0.080 A 
HETATM    8 CL   LIG     1      25.100  18.415  22.965  1.00  0.00    -0.081 Cl
HETATM    9  C   LIG     1      25.406  19.438  20.430  1.00  0.00     0.070 A 
HETATM   10 CL   LIG     1      26.646  18.199  20.207  1.00  0.00    -0.081 Cl
HETATM   11  C   LIG     1      25.104  20.330  19.383  1.00  0.00     0.025 A 
ENDROOT
BRANCH  11  12
HETATM   12  C   LIG     1      25.825  20.231  18.092  1.00  0.00     0.025 A 
HETATM   13  C   LIG     1      27.025  20.946  17.895  1.00  0.00     0.068 A 
HETATM   14  C   LIG     1      27.702  20.847  16.669  1.00  0.00     0.058 A 
HETATM   15 CL   LIG     1      27.678  21.965  19.182  1.00  0.00    -0.082 Cl
HETATM   16  C   LIG     1      27.189  20.043  15.649  1.00  0.00     0.051 A 
HETATM   17 CL   LIG     1      29.201  21.722  16.380  1.00  0.00    -0.082 Cl
HETATM   18  C   LIG     1      26.002  19.331  15.837  1.00  0.00     0.058 A 
HETATM   19  C   LIG     1      25.314  19.420  17.058  1.00  0.00     0.068 A 
HETATM   20 CL   LIG     1      25.401  18.333  14.518  1.00  0.00    -0.082 Cl
HETATM   21 CL   LIG     1      23.812  18.518  17.290  1.00  0.00    -0.082 Cl
ENDBRANCH  11  12
TORSDOF 1
ENDMDL
MODEL 16
REMARK VINA RESULT:      -3.6      2.141      5.471
REMARK  1 active torsions:
REMARK  status: ('A' for Active; 'I' for Inactive)
REMARK    1  A    between atoms: C_11  and  C_12 
ROOT
HETATM    1 CL   LIG     1      23.802  19.464  21.430  1.00  0.00    -0.081 Cl
HETATM    2  C   LIG     1      23.733  20.164  23.052  1.00  0.00     0.070 A 
HETATM    3  C   LIG     1      22.855  19.628  24.010  1.00  0.00     0.080 A 
HETATM    4 CL   LIG     1      21.823  18.259  23.592  1.00  0.00    -0.081 Cl
HETATM    5  C   LIG     1      22.799  20.183  25.300  1.00  0.00     0.081 A 
HETATM    6 CL   LIG     1      21.695  19.509  26.502  1.00  0.00    -0.081 Cl
HETATM    7  C   LIG     1      23.621  21.273  25.634  1.00  0.00     0.080 A 
HETATM    8 CL   LIG     1      23.548  21.969  27.255  1.00  0.00    -0.081 Cl
HETATM    9  C   LIG     1      24.499  21.810  24.679  1.00  0.00     0.070 A 
HETATM   10 CL   LIG     1      25.531  23.182  25.101  1.00  0.00    -0.081 Cl
HETATM   11  C   LIG     1      24.556  21.256  23.386  1.00  0.00     0.025 A 
ENDROOT
BRANCH  11  12
HETATM   12  C   LIG     1      25.483  21.822  22.377  1.00  0.00     0.025 A 
HETATM   13  C   LIG     1      25.049  22.850  21.515  1.00  0.00     0.068 A 
HETATM   14  C   LIG     1      25.933  23.381  20.561  1.00  0.00     0.058 A 
HETATM   15 CL   LIG     1      23.401  23.475  21.630  1.00  0.00    -0.082 Cl
HETATM   16  C   LIG     1      27.238  22.890  20.467  1.00  0.00     0.051 A 
HETATM   17 CL   LIG     1      25.435  24.665  19.467  1.00  0.00    -0.082 Cl
HETATM   18  C   LIG     1      27.675  21.871  21.317  1.00  0.00     0.058 A 
HETATM   19  C   LIG     1      26.802  21.331  22.276  1.00  0.00     0.068 A 
HETATM   20 CL   LIG     1      29.328  21.291  21.155  1.00  0.00    -0.082 Cl
HETATM   21 CL   LIG     1      27.360  20.042  23.348  1.00  0.00    -0.082 Cl
ENDBRANCH  11  12
TORSDOF 1
ENDMDL
MODEL 17
REMARK VINA RESULT:      -3.6      2.608      3.981
REMARK  1 active torsions:
REMARK  status: ('A' for Active; 'I' for Inactive)
REMARK    1  A    between atoms: C_11  and  C_12 
ROOT
HETATM    1 CL   LIG     1      24.384  22.833  23.481  1.00  0.00    -0.081 Cl
HETATM    2  C   LIG     1      24.788  22.303  21.843  1.00  0.00     0.070 A 
HETATM    3  C   LIG     1      23.796  22.283  20.848  1.00  0.00     0.080 A 
HETATM    4 CL   LIG     1      22.149  22.787  21.234  1.00  0.00    -0.081 Cl
HETATM    5  C   LIG     1      24.115  21.863  19.545  1.00  0.00     0.081 A 
HETATM    6 CL   LIG     1      22.868  21.837  18.296  1.00  0.00    -0.081 Cl
HETATM    7  C   LIG     1      25.427  21.462  19.237  1.00  0.00     0.080 A 
HETATM    8 CL   LIG     1      25.825  20.933  17.600  1.00  0.00    -0.081 Cl
HETATM    9  C   LIG     1      26.420  21.481  20.230  1.00  0.00     0.070 A 
HETATM   10 CL   LIG     1      28.068  20.976  19.839  1.00  0.00    -0.081 Cl
HETATM   11  C   LIG     1      26.102  21.902  21.535  1.00  0.00     0.025 A 
ENDROOT
BRANCH  11  12
HETATM   12  C   LIG     1      27.149  21.923  22.584  1.00  0.00     0.025 A 
HETATM   13  C   LIG     1      27.944  23.074  22.766  1.00  0.00     0.068 A 
HETATM   14  C   LIG     1      28.935  23.087  23.762  1.00  0.00     0.058 A 
HETATM   15 CL   LIG     1      27.700  24.498  21.750  1.00  0.00    -0.082 Cl
HETATM   16  C   LIG     1      29.131  21.963  24.567  1.00  0.00     0.051 A 
HETATM   17 CL   LIG     1      29.949  24.500  24.024  1.00  0.00    -0.082 Cl
HETATM   18  C   LIG     1      28.348  20.819  24.393  1.00  0.00     0.058 A 
HETATM   19  C   LIG     1      27.353  20.792  23.402  1.00  0.00     0.068 A 
HETATM   20 CL   LIG     1      28.638  19.432  25.436  1.00  0.00    -0.082 Cl
HETATM   21 CL   LIG     1      26.365  19.343  23.185  1.00  0.00    -0.082 Cl
ENDBRANCH  11  12
TORSDOF 1
ENDMDL
MODEL 18
REMARK VINA RESULT:      -3.6      2.627      4.688
REMARK  1 active torsions:
REMARK  status: ('A' for Active; 'I' for Inactive)
REMARK    1  A    between atoms: C_11  and  C_12 
ROOT
HETATM    1 CL   LIG     1      24.414  22.810  23.460  1.00  0.00    -0.081 Cl
HETATM    2  C   LIG     1      24.792  22.301  21.809  1.00  0.00     0.070 A 
HETATM    3  C   LIG     1      23.781  22.283  20.833  1.00  0.00     0.080 A 
HETATM    4 CL   LIG     1      22.137  22.768  21.255  1.00  0.00    -0.081 Cl
HETATM    5  C   LIG     1      24.080  21.880  19.519  1.00  0.00     0.081 A 
HETATM    6 CL   LIG     1      22.809  21.857  18.294  1.00  0.00    -0.081 Cl
HETATM    7  C   LIG     1      25.388  21.493  19.182  1.00  0.00     0.080 A 
HETATM    8 CL   LIG     1      25.761  20.985  17.533  1.00  0.00    -0.081 Cl
HETATM    9  C   LIG     1      26.400  21.510  20.157  1.00  0.00     0.070 A 
HETATM   10 CL   LIG     1      28.045  21.024  19.730  1.00  0.00    -0.081 Cl
HETATM   11  C   LIG     1      26.103  21.914  21.472  1.00  0.00     0.025 A 
ENDROOT
BRANCH  11  12
HETATM   12  C   LIG     1      27.169  21.933  22.501  1.00  0.00     0.025 A 
HETATM   13  C   LIG     1      27.397  20.797  23.305  1.00  0.00     0.068 A 
HETATM   14  C   LIG     1      28.409  20.823  24.278  1.00  0.00     0.058 A 
HETATM   15 CL   LIG     1      26.417  19.342  23.093  1.00  0.00    -0.082 Cl
HETATM   16  C   LIG     1      29.187  21.970  24.449  1.00  0.00     0.051 A 
HETATM   17 CL   LIG     1      28.729  19.429  25.303  1.00  0.00    -0.082 Cl
HETATM   18  C   LIG     1      28.967  23.100  23.657  1.00  0.00     0.058 A 
HETATM   19  C   LIG     1      27.959  23.089  22.679  1.00  0.00     0.068 A 
HETATM   20 CL   LIG     1      29.976  24.519  23.914  1.00  0.00    -0.082 Cl
HETATM   21 CL   LIG     1      27.685  24.520  21.680  1.00  0.00    -0.082 Cl
ENDBRANCH  11  12
TORSDOF 1
ENDMDL
MODEL 19
REMARK VINA RESULT:      -3.5      5.294     10.053
REMARK  1 active torsions:
REMARK  status: ('A' for Active; 'I' for Inactive)
REMARK    1  A    between atoms: C_11  and  C_12 
ROOT
HETATM    1 CL   LIG     1      26.979  26.837  29.429  1.00  0.00    -0.081 Cl
HETATM    2  C   LIG     1      27.769  25.381  30.048  1.00  0.00     0.070 A 
HETATM    3  C   LIG     1      27.970  25.226  31.430  1.00  0.00     0.080 A 
HETATM    4 CL   LIG     1      27.433  26.483  32.547  1.00  0.00    -0.081 Cl
HETATM    5  C   LIG     1      28.598  24.069  31.924  1.00  0.00     0.081 A 
HETATM    6 CL   LIG     1      28.850  23.876  33.660  1.00  0.00    -0.081 Cl
HETATM    7  C   LIG     1      29.026  23.067  31.036  1.00  0.00     0.080 A 
HETATM    8 CL   LIG     1      29.816  21.616  31.658  1.00  0.00    -0.081 Cl
HETATM    9  C   LIG     1      28.827  23.220  29.654  1.00  0.00     0.070 A 
HETATM   10 CL   LIG     1      29.366  21.959  28.539  1.00  0.00    -0.081 Cl
HETATM   11  C   LIG     1      28.198  24.378  29.158  1.00  0.00     0.025 A 
ENDROOT
BRANCH  11  12
HETATM   12  C   LIG     1      27.986  24.541  27.700  1.00  0.00     0.025 A 
HETATM   13  C   LIG     1      26.861  23.960  27.079  1.00  0.00     0.068 A 
HETATM   14  C   LIG     1      26.667  24.118  25.697  1.00  0.00     0.058 A 
HETATM   15 CL   LIG     1      25.694  23.036  28.031  1.00  0.00    -0.082 Cl
HETATM   16  C   LIG     1      27.587  24.848  24.941  1.00  0.00     0.051 A 
HETATM   17 CL   LIG     1      25.278  23.412  24.882  1.00  0.00    -0.082 Cl
HETATM   18  C   LIG     1      28.704  25.426  25.548  1.00  0.00     0.058 A 
HETATM   19  C   LIG     1      28.911  25.277  26.929  1.00  0.00     0.068 A 
HETATM   20 CL   LIG     1      29.831  26.336  24.548  1.00  0.00    -0.082 Cl
HETATM   21 CL   LIG     1      30.326  26.010  27.692  1.00  0.00    -0.082 Cl
ENDBRANCH  11  12
TORSDOF 1
ENDMDL
