REMARK  1 active torsions:
REMARK  status: ('A' for Active; 'I' for Inactive)
REMARK    1  A    between atoms: C_6  and  C_11 
ROOT
HETATM    1 CL   LIG     1       0.407   2.262  -1.628  1.00  0.00    -0.082 Cl
HETATM    2  C   LIG     1       1.363   1.122  -0.676  1.00  0.00     0.068 A 
HETATM    3  C   LIG     1       2.758   1.274  -0.596  1.00  0.00     0.058 A 
HETATM    4 CL   LIG     1       3.584   2.584  -1.431  1.00  0.00    -0.082 Cl
HETATM    5  C   LIG     1       3.517   0.376   0.157  1.00  0.00     0.051 A 
HETATM    6  C   LIG     1       0.735   0.060   0.008  1.00  0.00     0.023 A 
HETATM    7  C   LIG     1       1.509  -0.843   0.766  1.00  0.00     0.068 A 
HETATM    8 CL   LIG     1       0.736  -2.176   1.628  1.00  0.00    -0.082 Cl
HETATM    9  C   LIG     1       2.903  -0.678   0.836  1.00  0.00     0.058 A 
HETATM   10 CL   LIG     1       3.908  -1.780   1.771  1.00  0.00    -0.082 Cl
ENDROOT
BRANCH   6  11
HETATM   11  C   LIG     1      -0.732  -0.105  -0.069  1.00  0.00     0.001 A 
HETATM   12  C   LIG     1      -1.277  -0.895  -1.091  1.00  0.00     0.014 A 
HETATM   13  C   LIG     1      -2.659  -1.067  -1.186  1.00  0.00     0.003 A 
HETATM   14  C   LIG     1      -3.506  -0.452  -0.262  1.00  0.00     0.026 A 
HETATM   15  C   LIG     1      -2.977   0.339   0.763  1.00  0.00     0.056 A 
HETATM   16  C   LIG     1      -1.585   0.518   0.866  1.00  0.00     0.067 A 
HETATM   17 CL   LIG     1      -4.082   1.094   1.904  1.00  0.00    -0.083 Cl
HETATM   18 CL   LIG     1      -0.913   1.516   2.158  1.00  0.00    -0.082 Cl
ENDBRANCH   6  11
TORSDOF 1
