MODEL 1
REMARK VINA RESULT:      -4.7      0.000      0.000
REMARK  1 active torsions:
REMARK  status: ('A' for Active; 'I' for Inactive)
REMARK    1  A    between atoms: C_6  and  C_11 
ROOT
HETATM    1 CL   LIG     1      27.210  20.477  17.922  1.00  0.00    -0.082 Cl
HETATM    2  C   LIG     1      27.623  22.195  17.905  1.00  0.00     0.068 A 
HETATM    3  C   LIG     1      28.855  22.613  17.372  1.00  0.00     0.058 A 
HETATM    4 CL   LIG     1      30.008  21.457  16.718  1.00  0.00    -0.082 Cl
HETATM    5  C   LIG     1      29.184  23.970  17.355  1.00  0.00     0.051 A 
HETATM    6  C   LIG     1      26.723  23.151  18.420  1.00  0.00     0.023 A 
HETATM    7  C   LIG     1      27.063  24.519  18.399  1.00  0.00     0.068 A 
HETATM    8 CL   LIG     1      25.945  25.727  19.039  1.00  0.00    -0.082 Cl
HETATM    9  C   LIG     1      28.299  24.922  17.864  1.00  0.00     0.058 A 
HETATM   10 CL   LIG     1      28.764  26.619  17.816  1.00  0.00    -0.082 Cl
ENDROOT
BRANCH   6  11
HETATM   11  C   LIG     1      25.424  22.719  18.979  1.00  0.00     0.001 A 
HETATM   12  C   LIG     1      24.374  22.410  18.104  1.00  0.00     0.014 A 
HETATM   13  C   LIG     1      23.137  21.999  18.606  1.00  0.00     0.003 A 
HETATM   14  C   LIG     1      22.942  21.895  19.985  1.00  0.00     0.026 A 
HETATM   15  C   LIG     1      23.981  22.200  20.870  1.00  0.00     0.056 A 
HETATM   16  C   LIG     1      25.230  22.615  20.372  1.00  0.00     0.067 A 
HETATM   17 CL   LIG     1      23.689  22.054  22.598  1.00  0.00    -0.083 Cl
HETATM   18 CL   LIG     1      26.544  23.001  21.486  1.00  0.00    -0.082 Cl
ENDBRANCH   6  11
TORSDOF 1
ENDMDL
MODEL 2
REMARK VINA RESULT:      -4.7      0.094      2.823
REMARK  1 active torsions:
REMARK  status: ('A' for Active; 'I' for Inactive)
REMARK    1  A    between atoms: C_6  and  C_11 
ROOT
HETATM    1 CL   LIG     1      25.885  25.769  19.003  1.00  0.00    -0.082 Cl
HETATM    2  C   LIG     1      27.043  24.582  18.395  1.00  0.00     0.068 A 
HETATM    3  C   LIG     1      28.283  25.008  17.892  1.00  0.00     0.058 A 
HETATM    4 CL   LIG     1      28.716  26.713  17.850  1.00  0.00    -0.082 Cl
HETATM    5  C   LIG     1      29.202  24.073  17.412  1.00  0.00     0.051 A 
HETATM    6  C   LIG     1      26.731  23.206  18.414  1.00  0.00     0.023 A 
HETATM    7  C   LIG     1      27.664  22.267  17.927  1.00  0.00     0.068 A 
HETATM    8 CL   LIG     1      27.288  20.542  17.945  1.00  0.00    -0.082 Cl
HETATM    9  C   LIG     1      28.901  22.710  17.426  1.00  0.00     0.058 A 
HETATM   10 CL   LIG     1      30.096  21.574  16.809  1.00  0.00    -0.082 Cl
ENDROOT
BRANCH   6  11
HETATM   11  C   LIG     1      25.429  22.749  18.944  1.00  0.00     0.001 A 
HETATM   12  C   LIG     1      24.404  22.419  18.046  1.00  0.00     0.014 A 
HETATM   13  C   LIG     1      23.166  21.985  18.521  1.00  0.00     0.003 A 
HETATM   14  C   LIG     1      22.941  21.877  19.895  1.00  0.00     0.026 A 
HETATM   15  C   LIG     1      23.954  22.203  20.803  1.00  0.00     0.056 A 
HETATM   16  C   LIG     1      25.206  22.642  20.333  1.00  0.00     0.067 A 
HETATM   17 CL   LIG     1      23.626  22.053  22.524  1.00  0.00    -0.083 Cl
HETATM   18 CL   LIG     1      26.487  23.055  21.476  1.00  0.00    -0.082 Cl
ENDBRANCH   6  11
TORSDOF 1
ENDMDL
MODEL 3
REMARK VINA RESULT:      -4.6      2.255      3.885
REMARK  1 active torsions:
REMARK  status: ('A' for Active; 'I' for Inactive)
REMARK    1  A    between atoms: C_6  and  C_11 
ROOT
HETATM    1 CL   LIG     1      25.910  25.563  19.061  1.00  0.00    -0.082 Cl
HETATM    2  C   LIG     1      27.047  24.578  19.986  1.00  0.00     0.068 A 
HETATM    3  C   LIG     1      28.393  24.973  20.089  1.00  0.00     0.058 A 
HETATM    4 CL   LIG     1      28.977  26.438  19.309  1.00  0.00    -0.082 Cl
HETATM    5  C   LIG     1      29.295  24.198  20.820  1.00  0.00     0.051 A 
HETATM    6  C   LIG     1      26.615  23.398  20.626  1.00  0.00     0.023 A 
HETATM    7  C   LIG     1      27.532  22.621  21.363  1.00  0.00     0.068 A 
HETATM    8 CL   LIG     1      27.004  21.142  22.169  1.00  0.00    -0.082 Cl
HETATM    9  C   LIG     1      28.874  23.028  21.456  1.00  0.00     0.058 A 
HETATM   10 CL   LIG     1      30.053  22.090  22.366  1.00  0.00    -0.082 Cl
ENDROOT
BRANCH   6  11
HETATM   11  C   LIG     1      25.201  22.977  20.525  1.00  0.00     0.001 A 
HETATM   12  C   LIG     1      24.310  23.329  21.549  1.00  0.00     0.014 A 
HETATM   13  C   LIG     1      22.970  22.944  21.477  1.00  0.00     0.003 A 
HETATM   14  C   LIG     1      22.510  22.206  20.385  1.00  0.00     0.026 A 
HETATM   15  C   LIG     1      23.388  21.848  19.356  1.00  0.00     0.056 A 
HETATM   16  C   LIG     1      24.740  22.232  19.420  1.00  0.00     0.067 A 
HETATM   17 CL   LIG     1      22.765  20.919  17.999  1.00  0.00    -0.083 Cl
HETATM   18 CL   LIG     1      25.851  21.782  18.123  1.00  0.00    -0.082 Cl
ENDBRANCH   6  11
TORSDOF 1
ENDMDL
MODEL 4
REMARK VINA RESULT:      -4.6      2.374      3.362
REMARK  1 active torsions:
REMARK  status: ('A' for Active; 'I' for Inactive)
REMARK    1  A    between atoms: C_6  and  C_11 
ROOT
HETATM    1 CL   LIG     1      26.562  21.188  22.624  1.00  0.00    -0.082 Cl
HETATM    2  C   LIG     1      27.209  22.609  21.798  1.00  0.00     0.068 A 
HETATM    3  C   LIG     1      28.545  22.993  22.008  1.00  0.00     0.058 A 
HETATM    4 CL   LIG     1      29.599  22.085  23.085  1.00  0.00    -0.082 Cl
HETATM    5  C   LIG     1      29.061  24.115  21.355  1.00  0.00     0.051 A 
HETATM    6  C   LIG     1      26.394  23.361  20.926  1.00  0.00     0.023 A 
HETATM    7  C   LIG     1      26.922  24.493  20.271  1.00  0.00     0.068 A 
HETATM    8 CL   LIG     1      25.914  25.442  19.176  1.00  0.00    -0.082 Cl
HETATM    9  C   LIG     1      28.260  24.864  20.491  1.00  0.00     0.058 A 
HETATM   10 CL   LIG     1      28.962  26.268  19.694  1.00  0.00    -0.082 Cl
ENDROOT
BRANCH   6  11
HETATM   11  C   LIG     1      24.989  22.962  20.699  1.00  0.00     0.001 A 
HETATM   12  C   LIG     1      24.008  23.365  21.616  1.00  0.00     0.014 A 
HETATM   13  C   LIG     1      22.674  23.002  21.425  1.00  0.00     0.003 A 
HETATM   14  C   LIG     1      22.310  22.234  20.316  1.00  0.00     0.026 A 
HETATM   15  C   LIG     1      23.277  21.825  19.393  1.00  0.00     0.056 A 
HETATM   16  C   LIG     1      24.624  22.187  19.578  1.00  0.00     0.067 A 
HETATM   17 CL   LIG     1      22.772  20.860  18.012  1.00  0.00    -0.083 Cl
HETATM   18 CL   LIG     1      25.848  21.672  18.415  1.00  0.00    -0.082 Cl
ENDBRANCH   6  11
TORSDOF 1
ENDMDL
MODEL 5
REMARK VINA RESULT:      -4.6      2.488      4.763
REMARK  1 active torsions:
REMARK  status: ('A' for Active; 'I' for Inactive)
REMARK    1  A    between atoms: C_6  and  C_11 
ROOT
HETATM    1 CL   LIG     1      23.135  22.090  19.478  1.00  0.00    -0.082 Cl
HETATM    2  C   LIG     1      24.251  21.221  18.420  1.00  0.00     0.068 A 
HETATM    3  C   LIG     1      23.830  20.048  17.770  1.00  0.00     0.058 A 
HETATM    4 CL   LIG     1      22.203  19.416  17.989  1.00  0.00    -0.082 Cl
HETATM    5  C   LIG     1      24.709  19.360  16.932  1.00  0.00     0.051 A 
HETATM    6  C   LIG     1      25.563  21.699  18.220  1.00  0.00     0.023 A 
HETATM    7  C   LIG     1      26.445  20.997  17.372  1.00  0.00     0.068 A 
HETATM    8 CL   LIG     1      28.090  21.584  17.112  1.00  0.00    -0.082 Cl
HETATM    9  C   LIG     1      26.009  19.825  16.729  1.00  0.00     0.058 A 
HETATM   10 CL   LIG     1      27.075  18.918  15.661  1.00  0.00    -0.082 Cl
ENDROOT
BRANCH   6  11
HETATM   11  C   LIG     1      26.013  22.933  18.898  1.00  0.00     0.001 A 
HETATM   12  C   LIG     1      25.861  24.164  18.244  1.00  0.00     0.014 A 
HETATM   13  C   LIG     1      26.278  25.345  18.862  1.00  0.00     0.003 A 
HETATM   14  C   LIG     1      26.847  25.304  20.136  1.00  0.00     0.026 A 
HETATM   15  C   LIG     1      27.005  24.084  20.801  1.00  0.00     0.056 A 
HETATM   16  C   LIG     1      26.588  22.889  20.185  1.00  0.00     0.067 A 
HETATM   17 CL   LIG     1      27.727  24.082  22.404  1.00  0.00    -0.083 Cl
HETATM   18 CL   LIG     1      26.785  21.346  21.020  1.00  0.00    -0.082 Cl
ENDBRANCH   6  11
TORSDOF 1
ENDMDL
MODEL 6
REMARK VINA RESULT:      -4.4      1.915      5.516
REMARK  1 active torsions:
REMARK  status: ('A' for Active; 'I' for Inactive)
REMARK    1  A    between atoms: C_6  and  C_11 
ROOT
HETATM    1 CL   LIG     1      28.244  22.802  21.815  1.00  0.00    -0.082 Cl
HETATM    2  C   LIG     1      26.491  22.764  21.601  1.00  0.00     0.068 A 
HETATM    3  C   LIG     1      25.648  22.850  22.722  1.00  0.00     0.058 A 
HETATM    4 CL   LIG     1      26.302  22.993  24.349  1.00  0.00    -0.082 Cl
HETATM    5  C   LIG     1      24.262  22.823  22.558  1.00  0.00     0.051 A 
HETATM    6  C   LIG     1      25.931  22.652  20.312  1.00  0.00     0.023 A 
HETATM    7  C   LIG     1      24.530  22.625  20.154  1.00  0.00     0.068 A 
HETATM    8 CL   LIG     1      23.815  22.485  18.545  1.00  0.00    -0.082 Cl
HETATM    9  C   LIG     1      23.700  22.711  21.284  1.00  0.00     0.058 A 
HETATM   10 CL   LIG     1      21.946  22.682  21.135  1.00  0.00    -0.082 Cl
ENDROOT
BRANCH   6  11
HETATM   11  C   LIG     1      26.812  22.564  19.127  1.00  0.00     0.001 A 
HETATM   12  C   LIG     1      27.247  21.304  18.693  1.00  0.00     0.014 A 
HETATM   13  C   LIG     1      28.079  21.193  17.577  1.00  0.00     0.003 A 
HETATM   14  C   LIG     1      28.482  22.339  16.888  1.00  0.00     0.026 A 
HETATM   15  C   LIG     1      28.056  23.603  17.310  1.00  0.00     0.056 A 
HETATM   16  C   LIG     1      27.218  23.723  18.434  1.00  0.00     0.067 A 
HETATM   17 CL   LIG     1      28.589  25.017  16.412  1.00  0.00    -0.083 Cl
HETATM   18 CL   LIG     1      26.678  25.317  18.970  1.00  0.00    -0.082 Cl
ENDBRANCH   6  11
TORSDOF 1
ENDMDL
MODEL 7
REMARK VINA RESULT:      -4.4      1.859      5.490
REMARK  1 active torsions:
REMARK  status: ('A' for Active; 'I' for Inactive)
REMARK    1  A    between atoms: C_6  and  C_11 
ROOT
HETATM    1 CL   LIG     1      24.043  22.472  18.304  1.00  0.00    -0.082 Cl
HETATM    2  C   LIG     1      24.716  22.642  19.929  1.00  0.00     0.068 A 
HETATM    3  C   LIG     1      23.859  22.676  21.042  1.00  0.00     0.058 A 
HETATM    4 CL   LIG     1      22.114  22.554  20.855  1.00  0.00    -0.082 Cl
HETATM    5  C   LIG     1      24.387  22.809  22.327  1.00  0.00     0.051 A 
HETATM    6  C   LIG     1      26.111  22.742  20.117  1.00  0.00     0.023 A 
HETATM    7  C   LIG     1      26.637  22.876  21.419  1.00  0.00     0.068 A 
HETATM    8 CL   LIG     1      28.380  23.000  21.669  1.00  0.00    -0.082 Cl
HETATM    9  C   LIG     1      25.766  22.908  22.522  1.00  0.00     0.058 A 
HETATM   10 CL   LIG     1      26.378  23.073  24.164  1.00  0.00    -0.082 Cl
ENDROOT
BRANCH   6  11
HETATM   11  C   LIG     1      27.020  22.704  18.951  1.00  0.00     0.001 A 
HETATM   12  C   LIG     1      27.497  21.466  18.499  1.00  0.00     0.014 A 
HETATM   13  C   LIG     1      28.357  21.403  17.400  1.00  0.00     0.003 A 
HETATM   14  C   LIG     1      28.744  22.574  16.747  1.00  0.00     0.026 A 
HETATM   15  C   LIG     1      28.276  23.816  17.187  1.00  0.00     0.056 A 
HETATM   16  C   LIG     1      27.410  23.889  18.294  1.00  0.00     0.067 A 
HETATM   17 CL   LIG     1      28.791  25.265  16.333  1.00  0.00    -0.083 Cl
HETATM   18 CL   LIG     1      26.817  25.455  18.853  1.00  0.00    -0.082 Cl
ENDBRANCH   6  11
TORSDOF 1
ENDMDL
MODEL 8
REMARK VINA RESULT:      -4.3      3.936      5.404
REMARK  1 active torsions:
REMARK  status: ('A' for Active; 'I' for Inactive)
REMARK    1  A    between atoms: C_6  and  C_11 
ROOT
HETATM    1 CL   LIG     1      26.812  19.707  22.695  1.00  0.00    -0.082 Cl
HETATM    2  C   LIG     1      25.675  20.340  21.501  1.00  0.00     0.068 A 
HETATM    3  C   LIG     1      25.803  19.974  20.150  1.00  0.00     0.058 A 
HETATM    4 CL   LIG     1      27.083  18.893  19.613  1.00  0.00    -0.082 Cl
HETATM    5  C   LIG     1      24.905  20.471  19.203  1.00  0.00     0.051 A 
HETATM    6  C   LIG     1      24.635  21.208  21.895  1.00  0.00     0.023 A 
HETATM    7  C   LIG     1      23.732  21.706  20.932  1.00  0.00     0.068 A 
HETATM    8 CL   LIG     1      22.426  22.793  21.411  1.00  0.00    -0.082 Cl
HETATM    9  C   LIG     1      23.874  21.331  19.585  1.00  0.00     0.058 A 
HETATM   10 CL   LIG     1      22.770  21.927  18.350  1.00  0.00    -0.082 Cl
ENDROOT
BRANCH   6  11
HETATM   11  C   LIG     1      24.492  21.595  23.314  1.00  0.00     0.001 A 
HETATM   12  C   LIG     1      25.198  22.708  23.793  1.00  0.00     0.014 A 
HETATM   13  C   LIG     1      25.080  23.095  25.129  1.00  0.00     0.003 A 
HETATM   14  C   LIG     1      24.258  22.373  25.996  1.00  0.00     0.026 A 
HETATM   15  C   LIG     1      23.547  21.261  25.534  1.00  0.00     0.056 A 
HETATM   16  C   LIG     1      23.660  20.864  24.188  1.00  0.00     0.067 A 
HETATM   17 CL   LIG     1      22.524  20.383  26.662  1.00  0.00    -0.083 Cl
HETATM   18 CL   LIG     1      22.766  19.460  23.600  1.00  0.00    -0.082 Cl
ENDBRANCH   6  11
TORSDOF 1
ENDMDL
MODEL 9
REMARK VINA RESULT:      -4.3      4.124      6.094
REMARK  1 active torsions:
REMARK  status: ('A' for Active; 'I' for Inactive)
REMARK    1  A    between atoms: C_6  and  C_11 
ROOT
HETATM    1 CL   LIG     1      22.442  22.810  21.591  1.00  0.00    -0.082 Cl
HETATM    2  C   LIG     1      23.685  21.636  21.147  1.00  0.00     0.068 A 
HETATM    3  C   LIG     1      23.814  21.225  19.809  1.00  0.00     0.058 A 
HETATM    4 CL   LIG     1      22.755  21.855  18.553  1.00  0.00    -0.082 Cl
HETATM    5  C   LIG     1      24.796  20.298  19.454  1.00  0.00     0.051 A 
HETATM    6  C   LIG     1      24.553  21.110  22.126  1.00  0.00     0.023 A 
HETATM    7  C   LIG     1      25.542  20.174  21.759  1.00  0.00     0.068 A 
HETATM    8 CL   LIG     1      26.636  19.508  22.975  1.00  0.00    -0.082 Cl
HETATM    9  C   LIG     1      25.658  19.772  20.418  1.00  0.00     0.058 A 
HETATM   10 CL   LIG     1      26.879  18.608  19.914  1.00  0.00    -0.082 Cl
ENDROOT
BRANCH   6  11
HETATM   11  C   LIG     1      24.426  21.540  23.535  1.00  0.00     0.001 A 
HETATM   12  C   LIG     1      25.171  22.640  23.982  1.00  0.00     0.014 A 
HETATM   13  C   LIG     1      25.070  23.066  25.308  1.00  0.00     0.003 A 
HETATM   14  C   LIG     1      24.224  22.398  26.195  1.00  0.00     0.026 A 
HETATM   15  C   LIG     1      23.475  21.299  25.764  1.00  0.00     0.056 A 
HETATM   16  C   LIG     1      23.571  20.862  24.429  1.00  0.00     0.067 A 
HETATM   17 CL   LIG     1      22.423  20.487  26.916  1.00  0.00    -0.083 Cl
HETATM   18 CL   LIG     1      22.628  19.474  23.880  1.00  0.00    -0.082 Cl
ENDBRANCH   6  11
TORSDOF 1
ENDMDL
MODEL 10
REMARK VINA RESULT:      -4.3      1.699      3.588
REMARK  1 active torsions:
REMARK  status: ('A' for Active; 'I' for Inactive)
REMARK    1  A    between atoms: C_6  and  C_11 
ROOT
HETATM    1 CL   LIG     1      26.687  25.330  19.028  1.00  0.00    -0.082 Cl
HETATM    2  C   LIG     1      27.251  23.752  18.470  1.00  0.00     0.068 A 
HETATM    3  C   LIG     1      28.107  23.667  17.358  1.00  0.00     0.058 A 
HETATM    4 CL   LIG     1      28.634  25.108  16.498  1.00  0.00    -0.082 Cl
HETATM    5  C   LIG     1      28.556  22.421  16.916  1.00  0.00     0.051 A 
HETATM    6  C   LIG     1      26.850  22.574  19.136  1.00  0.00     0.023 A 
HETATM    7  C   LIG     1      27.308  21.320  18.682  1.00  0.00     0.068 A 
HETATM    8 CL   LIG     1      26.815  19.838  19.506  1.00  0.00    -0.082 Cl
HETATM    9  C   LIG     1      28.163  21.251  17.568  1.00  0.00     0.058 A 
HETATM   10 CL   LIG     1      28.760  19.708  16.968  1.00  0.00    -0.082 Cl
ENDROOT
BRANCH   6  11
HETATM   11  C   LIG     1      25.952  22.655  20.307  1.00  0.00     0.001 A 
HETATM   12  C   LIG     1      26.511  22.767  21.588  1.00  0.00     0.014 A 
HETATM   13  C   LIG     1      25.686  22.845  22.711  1.00  0.00     0.003 A 
HETATM   14  C   LIG     1      24.298  22.813  22.563  1.00  0.00     0.026 A 
HETATM   15  C   LIG     1      23.726  22.703  21.292  1.00  0.00     0.056 A 
HETATM   16  C   LIG     1      24.551  22.623  20.154  1.00  0.00     0.067 A 
HETATM   17 CL   LIG     1      21.973  22.666  21.153  1.00  0.00    -0.083 Cl
HETATM   18 CL   LIG     1      23.833  22.482  18.547  1.00  0.00    -0.082 Cl
ENDBRANCH   6  11
TORSDOF 1
ENDMDL
MODEL 11
REMARK VINA RESULT:      -4.2      4.013      5.485
REMARK  1 active torsions:
REMARK  status: ('A' for Active; 'I' for Inactive)
REMARK    1  A    between atoms: C_6  and  C_11 
ROOT
HETATM    1 CL   LIG     1      26.349  19.103  22.921  1.00  0.00    -0.082 Cl
HETATM    2  C   LIG     1      25.353  19.891  21.694  1.00  0.00     0.068 A 
HETATM    3  C   LIG     1      25.487  19.527  20.343  1.00  0.00     0.058 A 
HETATM    4 CL   LIG     1      26.637  18.294  19.839  1.00  0.00    -0.082 Cl
HETATM    5  C   LIG     1      24.701  20.147  19.370  1.00  0.00     0.051 A 
HETATM    6  C   LIG     1      24.420  20.884  22.061  1.00  0.00     0.023 A 
HETATM    7  C   LIG     1      23.629  21.505  21.072  1.00  0.00     0.068 A 
HETATM    8 CL   LIG     1      22.457  22.748  21.517  1.00  0.00    -0.082 Cl
HETATM    9  C   LIG     1      23.776  21.130  19.725  1.00  0.00     0.058 A 
HETATM   10 CL   LIG     1      22.809  21.878  18.458  1.00  0.00    -0.082 Cl
ENDROOT
BRANCH   6  11
HETATM   11  C   LIG     1      24.270  21.270  23.480  1.00  0.00     0.001 A 
HETATM   12  C   LIG     1      23.345  20.585  24.280  1.00  0.00     0.014 A 
HETATM   13  C   LIG     1      23.185  20.931  25.623  1.00  0.00     0.003 A 
HETATM   14  C   LIG     1      23.946  21.962  26.176  1.00  0.00     0.026 A 
HETATM   15  C   LIG     1      24.873  22.655  25.390  1.00  0.00     0.056 A 
HETATM   16  C   LIG     1      25.041  22.313  24.035  1.00  0.00     0.067 A 
HETATM   17 CL   LIG     1      25.810  23.946  26.129  1.00  0.00    -0.083 Cl
HETATM   18 CL   LIG     1      26.210  23.185  23.040  1.00  0.00    -0.082 Cl
ENDBRANCH   6  11
TORSDOF 1
ENDMDL
MODEL 12
REMARK VINA RESULT:      -4.2      4.175      6.137
REMARK  1 active torsions:
REMARK  status: ('A' for Active; 'I' for Inactive)
REMARK    1  A    between atoms: C_6  and  C_11 
ROOT
HETATM    1 CL   LIG     1      22.426  22.653  21.591  1.00  0.00    -0.082 Cl
HETATM    2  C   LIG     1      23.569  21.373  21.174  1.00  0.00     0.068 A 
HETATM    3  C   LIG     1      23.701  20.960  19.837  1.00  0.00     0.058 A 
HETATM    4 CL   LIG     1      22.743  21.693  18.556  1.00  0.00    -0.082 Cl
HETATM    5  C   LIG     1      24.605  19.949  19.503  1.00  0.00     0.051 A 
HETATM    6  C   LIG     1      24.355  20.764  22.175  1.00  0.00     0.023 A 
HETATM    7  C   LIG     1      25.265  19.743  21.829  1.00  0.00     0.068 A 
HETATM    8 CL   LIG     1      26.255  18.972  23.072  1.00  0.00    -0.082 Cl
HETATM    9  C   LIG     1      25.385  19.341  20.488  1.00  0.00     0.058 A 
HETATM   10 CL   LIG     1      26.509  18.073  20.011  1.00  0.00    -0.082 Cl
ENDROOT
BRANCH   6  11
HETATM   11  C   LIG     1      24.224  21.195  23.583  1.00  0.00     0.001 A 
HETATM   12  C   LIG     1      23.320  20.526  24.420  1.00  0.00     0.014 A 
HETATM   13  C   LIG     1      23.178  20.913  25.754  1.00  0.00     0.003 A 
HETATM   14  C   LIG     1      23.937  21.970  26.260  1.00  0.00     0.026 A 
HETATM   15  C   LIG     1      24.842  22.647  25.437  1.00  0.00     0.056 A 
HETATM   16  C   LIG     1      24.992  22.263  24.091  1.00  0.00     0.067 A 
HETATM   17 CL   LIG     1      25.777  23.972  26.119  1.00  0.00    -0.083 Cl
HETATM   18 CL   LIG     1      26.134  23.115  23.049  1.00  0.00    -0.082 Cl
ENDBRANCH   6  11
TORSDOF 1
ENDMDL
MODEL 13
REMARK VINA RESULT:      -4.2      1.795      2.496
REMARK  1 active torsions:
REMARK  status: ('A' for Active; 'I' for Inactive)
REMARK    1  A    between atoms: C_6  and  C_11 
ROOT
HETATM    1 CL   LIG     1      26.319  19.612  19.634  1.00  0.00    -0.082 Cl
HETATM    2  C   LIG     1      26.911  21.043  18.784  1.00  0.00     0.068 A 
HETATM    3  C   LIG     1      27.750  20.896  17.666  1.00  0.00     0.058 A 
HETATM    4 CL   LIG     1      28.231  19.305  17.088  1.00  0.00    -0.082 Cl
HETATM    5  C   LIG     1      28.218  22.024  16.990  1.00  0.00     0.051 A 
HETATM    6  C   LIG     1      26.545  22.334  19.219  1.00  0.00     0.023 A 
HETATM    7  C   LIG     1      27.023  23.469  18.531  1.00  0.00     0.068 A 
HETATM    8 CL   LIG     1      26.572  25.091  19.063  1.00  0.00    -0.082 Cl
HETATM    9  C   LIG     1      27.862  23.305  17.415  1.00  0.00     0.058 A 
HETATM   10 CL   LIG     1      28.480  24.693  16.526  1.00  0.00    -0.082 Cl
ENDROOT
BRANCH   6  11
HETATM   11  C   LIG     1      25.661  22.497  20.392  1.00  0.00     0.001 A 
HETATM   12  C   LIG     1      26.233  22.595  21.669  1.00  0.00     0.014 A 
HETATM   13  C   LIG     1      25.420  22.749  22.793  1.00  0.00     0.003 A 
HETATM   14  C   LIG     1      24.033  22.807  22.652  1.00  0.00     0.026 A 
HETATM   15  C   LIG     1      23.448  22.711  21.385  1.00  0.00     0.056 A 
HETATM   16  C   LIG     1      24.259  22.555  20.246  1.00  0.00     0.067 A 
HETATM   17 CL   LIG     1      21.696  22.789  21.254  1.00  0.00    -0.083 Cl
HETATM   18 CL   LIG     1      23.525  22.433  18.645  1.00  0.00    -0.082 Cl
ENDBRANCH   6  11
TORSDOF 1
ENDMDL
MODEL 14
REMARK VINA RESULT:      -4.2     16.121     17.464
REMARK  1 active torsions:
REMARK  status: ('A' for Active; 'I' for Inactive)
REMARK    1  A    between atoms: C_6  and  C_11 
ROOT
HETATM    1 CL   LIG     1      23.736  19.985  33.839  1.00  0.00    -0.082 Cl
HETATM    2  C   LIG     1      24.448  21.088  35.020  1.00  0.00     0.068 A 
HETATM    3  C   LIG     1      25.832  21.337  35.000  1.00  0.00     0.058 A 
HETATM    4 CL   LIG     1      26.882  20.567  33.817  1.00  0.00    -0.082 Cl
HETATM    5  C   LIG     1      26.398  22.210  35.931  1.00  0.00     0.051 A 
HETATM    6  C   LIG     1      23.637  21.725  35.983  1.00  0.00     0.023 A 
HETATM    7  C   LIG     1      24.217  22.605  36.920  1.00  0.00     0.068 A 
HETATM    8 CL   LIG     1      23.214  23.409  38.129  1.00  0.00    -0.082 Cl
HETATM    9  C   LIG     1      25.602  22.843  36.887  1.00  0.00     0.058 A 
HETATM   10 CL   LIG     1      26.369  23.935  38.036  1.00  0.00    -0.082 Cl
ENDROOT
BRANCH   6  11
HETATM   11  C   LIG     1      22.181  21.470  36.008  1.00  0.00     0.001 A 
HETATM   12  C   LIG     1      21.688  20.405  36.775  1.00  0.00     0.014 A 
HETATM   13  C   LIG     1      20.317  20.143  36.816  1.00  0.00     0.003 A 
HETATM   14  C   LIG     1      19.430  20.943  36.093  1.00  0.00     0.026 A 
HETATM   15  C   LIG     1      19.907  22.009  35.324  1.00  0.00     0.056 A 
HETATM   16  C   LIG     1      21.287  22.280  35.276  1.00  0.00     0.067 A 
HETATM   17 CL   LIG     1      18.753  22.989  34.429  1.00  0.00    -0.083 Cl
HETATM   18 CL   LIG     1      21.894  23.625  34.306  1.00  0.00    -0.082 Cl
ENDBRANCH   6  11
TORSDOF 1
ENDMDL
MODEL 15
REMARK VINA RESULT:      -4.2     16.112     17.631
REMARK  1 active torsions:
REMARK  status: ('A' for Active; 'I' for Inactive)
REMARK    1  A    between atoms: C_6  and  C_11 
ROOT
HETATM    1 CL   LIG     1      23.365  23.553  38.129  1.00  0.00    -0.082 Cl
HETATM    2  C   LIG     1      24.391  22.770  36.924  1.00  0.00     0.068 A 
HETATM    3  C   LIG     1      25.764  23.066  36.875  1.00  0.00     0.058 A 
HETATM    4 CL   LIG     1      26.493  24.210  37.995  1.00  0.00    -0.082 Cl
HETATM    5  C   LIG     1      26.579  22.448  35.924  1.00  0.00     0.051 A 
HETATM    6  C   LIG     1      23.842  21.846  36.010  1.00  0.00     0.023 A 
HETATM    7  C   LIG     1      24.671  21.227  35.052  1.00  0.00     0.068 A 
HETATM    8 CL   LIG     1      23.998  20.068  33.903  1.00  0.00    -0.082 Cl
HETATM    9  C   LIG     1      26.043  21.533  35.016  1.00  0.00     0.058 A 
HETATM   10 CL   LIG     1      27.116  20.783  33.839  1.00  0.00    -0.082 Cl
ENDROOT
BRANCH   6  11
HETATM   11  C   LIG     1      22.399  21.528  36.057  1.00  0.00     0.001 A 
HETATM   12  C   LIG     1      21.965  20.438  36.824  1.00  0.00     0.014 A 
HETATM   13  C   LIG     1      20.609  20.116  36.885  1.00  0.00     0.003 A 
HETATM   14  C   LIG     1      19.676  20.879  36.181  1.00  0.00     0.026 A 
HETATM   15  C   LIG     1      20.093  21.970  35.411  1.00  0.00     0.056 A 
HETATM   16  C   LIG     1      21.459  22.301  35.344  1.00  0.00     0.067 A 
HETATM   17 CL   LIG     1      18.882  22.903  34.542  1.00  0.00    -0.083 Cl
HETATM   18 CL   LIG     1      21.990  23.677  34.373  1.00  0.00    -0.082 Cl
ENDBRANCH   6  11
TORSDOF 1
ENDMDL
MODEL 16
REMARK VINA RESULT:      -4.1      2.070      5.607
REMARK  1 active torsions:
REMARK  status: ('A' for Active; 'I' for Inactive)
REMARK    1  A    between atoms: C_6  and  C_11 
ROOT
HETATM    1 CL   LIG     1      24.800  22.759  18.248  1.00  0.00    -0.082 Cl
HETATM    2  C   LIG     1      25.024  22.606  19.994  1.00  0.00     0.068 A 
HETATM    3  C   LIG     1      24.162  21.785  20.741  1.00  0.00     0.058 A 
HETATM    4 CL   LIG     1      22.850  20.899  19.974  1.00  0.00    -0.082 Cl
HETATM    5  C   LIG     1      24.338  21.660  22.121  1.00  0.00     0.051 A 
HETATM    6  C   LIG     1      26.066  23.301  20.643  1.00  0.00     0.023 A 
HETATM    7  C   LIG     1      26.236  23.169  22.037  1.00  0.00     0.068 A 
HETATM    8 CL   LIG     1      27.537  24.032  22.863  1.00  0.00    -0.082 Cl
HETATM    9  C   LIG     1      25.366  22.345  22.771  1.00  0.00     0.058 A 
HETATM   10 CL   LIG     1      25.542  22.151  24.512  1.00  0.00    -0.082 Cl
ENDROOT
BRANCH   6  11
HETATM   11  C   LIG     1      26.979  24.164  19.863  1.00  0.00     0.001 A 
HETATM   12  C   LIG     1      26.655  25.517  19.689  1.00  0.00     0.014 A 
HETATM   13  C   LIG     1      27.500  26.353  18.957  1.00  0.00     0.003 A 
HETATM   14  C   LIG     1      28.672  25.845  18.395  1.00  0.00     0.026 A 
HETATM   15  C   LIG     1      29.008  24.497  18.560  1.00  0.00     0.056 A 
HETATM   16  C   LIG     1      28.162  23.647  19.296  1.00  0.00     0.067 A 
HETATM   17 CL   LIG     1      30.495  23.902  17.833  1.00  0.00    -0.083 Cl
HETATM   18 CL   LIG     1      28.582  21.945  19.507  1.00  0.00    -0.082 Cl
ENDBRANCH   6  11
TORSDOF 1
ENDMDL
MODEL 17
REMARK VINA RESULT:      -4.1      1.675      5.854
REMARK  1 active torsions:
REMARK  status: ('A' for Active; 'I' for Inactive)
REMARK    1  A    between atoms: C_6  and  C_11 
ROOT
HETATM    1 CL   LIG     1      25.282  23.496  21.409  1.00  0.00    -0.082 Cl
HETATM    2  C   LIG     1      24.643  22.373  20.205  1.00  0.00     0.068 A 
HETATM    3  C   LIG     1      23.319  21.912  20.311  1.00  0.00     0.058 A 
HETATM    4 CL   LIG     1      22.274  22.431  21.628  1.00  0.00    -0.082 Cl
HETATM    5  C   LIG     1      22.810  21.025  19.361  1.00  0.00     0.051 A 
HETATM    6  C   LIG     1      25.452  21.936  19.135  1.00  0.00     0.023 A 
HETATM    7  C   LIG     1      24.929  21.039  18.180  1.00  0.00     0.068 A 
HETATM    8 CL   LIG     1      25.930  20.485  16.835  1.00  0.00    -0.082 Cl
HETATM    9  C   LIG     1      23.604  20.588  18.300  1.00  0.00     0.058 A 
HETATM   10 CL   LIG     1      22.910  19.470  17.130  1.00  0.00    -0.082 Cl
ENDROOT
BRANCH   6  11
HETATM   11  C   LIG     1      26.844  22.418  19.015  1.00  0.00     0.001 A 
HETATM   12  C   LIG     1      27.890  21.602  19.469  1.00  0.00     0.014 A 
HETATM   13  C   LIG     1      29.214  22.033  19.367  1.00  0.00     0.003 A 
HETATM   14  C   LIG     1      29.502  23.282  18.812  1.00  0.00     0.026 A 
HETATM   15  C   LIG     1      28.469  24.107  18.355  1.00  0.00     0.056 A 
HETATM   16  C   LIG     1      27.132  23.680  18.454  1.00  0.00     0.067 A 
HETATM   17 CL   LIG     1      28.880  25.670  17.663  1.00  0.00    -0.083 Cl
HETATM   18 CL   LIG     1      25.825  24.718  17.879  1.00  0.00    -0.082 Cl
ENDBRANCH   6  11
TORSDOF 1
ENDMDL
MODEL 18
REMARK VINA RESULT:      -4.1     16.858     18.575
REMARK  1 active torsions:
REMARK  status: ('A' for Active; 'I' for Inactive)
REMARK    1  A    between atoms: C_6  and  C_11 
ROOT
HETATM    1 CL   LIG     1      22.071  23.824  34.346  1.00  0.00    -0.082 Cl
HETATM    2  C   LIG     1      21.229  22.471  35.108  1.00  0.00     0.068 A 
HETATM    3  C   LIG     1      19.942  22.113  34.671  1.00  0.00     0.058 A 
HETATM    4 CL   LIG     1      19.140  22.989  33.373  1.00  0.00    -0.082 Cl
HETATM    5  C   LIG     1      19.273  21.044  35.270  1.00  0.00     0.051 A 
HETATM    6  C   LIG     1      21.841  21.745  36.151  1.00  0.00     0.023 A 
HETATM    7  C   LIG     1      21.158  20.666  36.750  1.00  0.00     0.068 A 
HETATM    8 CL   LIG     1      21.913  19.748  38.056  1.00  0.00    -0.082 Cl
HETATM    9  C   LIG     1      19.872  20.321  36.303  1.00  0.00     0.058 A 
HETATM   10 CL   LIG     1      18.984  18.981  37.021  1.00  0.00    -0.082 Cl
ENDROOT
BRANCH   6  11
HETATM   11  C   LIG     1      23.196  22.114  36.614  1.00  0.00     0.001 A 
HETATM   12  C   LIG     1      23.331  23.024  37.671  1.00  0.00     0.014 A 
HETATM   13  C   LIG     1      24.599  23.389  38.127  1.00  0.00     0.003 A 
HETATM   14  C   LIG     1      25.740  22.848  37.531  1.00  0.00     0.026 A 
HETATM   15  C   LIG     1      25.620  21.939  36.475  1.00  0.00     0.056 A 
HETATM   16  C   LIG     1      24.346  21.566  36.008  1.00  0.00     0.067 A 
HETATM   17 CL   LIG     1      27.085  21.284  35.754  1.00  0.00    -0.083 Cl
HETATM   18 CL   LIG     1      24.191  20.419  34.675  1.00  0.00    -0.082 Cl
ENDBRANCH   6  11
TORSDOF 1
ENDMDL
MODEL 19
REMARK VINA RESULT:      -4.1      4.079      7.750
REMARK  1 active torsions:
REMARK  status: ('A' for Active; 'I' for Inactive)
REMARK    1  A    between atoms: C_6  and  C_11 
ROOT
HETATM    1 CL   LIG     1      25.815  23.395  24.400  1.00  0.00    -0.082 Cl
HETATM    2  C   LIG     1      24.704  22.227  25.122  1.00  0.00     0.068 A 
HETATM    3  C   LIG     1      24.591  22.140  26.520  1.00  0.00     0.058 A 
HETATM    4 CL   LIG     1      25.541  23.175  27.580  1.00  0.00    -0.082 Cl
HETATM    5  C   LIG     1      23.713  21.220  27.095  1.00  0.00     0.051 A 
HETATM    6  C   LIG     1      23.925  21.382  24.304  1.00  0.00     0.023 A 
HETATM    7  C   LIG     1      23.041  20.455  24.892  1.00  0.00     0.068 A 
HETATM    8 CL   LIG     1      22.060  19.391  23.880  1.00  0.00    -0.082 Cl
HETATM    9  C   LIG     1      22.939  20.379  26.292  1.00  0.00     0.058 A 
HETATM   10 CL   LIG     1      21.848  19.238  27.069  1.00  0.00    -0.082 Cl
ENDROOT
BRANCH   6  11
HETATM   11  C   LIG     1      24.036  21.470  22.832  1.00  0.00     0.001 A 
HETATM   12  C   LIG     1      23.179  22.331  22.133  1.00  0.00     0.014 A 
HETATM   13  C   LIG     1      23.263  22.432  20.744  1.00  0.00     0.003 A 
HETATM   14  C   LIG     1      24.203  21.675  20.042  1.00  0.00     0.026 A 
HETATM   15  C   LIG     1      25.065  20.811  20.726  1.00  0.00     0.056 A 
HETATM   16  C   LIG     1      24.987  20.703  22.126  1.00  0.00     0.067 A 
HETATM   17 CL   LIG     1      26.234  19.877  19.801  1.00  0.00    -0.083 Cl
HETATM   18 CL   LIG     1      26.073  19.614  22.993  1.00  0.00    -0.082 Cl
ENDBRANCH   6  11
TORSDOF 1
ENDMDL
MODEL 20
REMARK VINA RESULT:      -2.4     16.605     18.711
REMARK  1 active torsions:
REMARK  status: ('A' for Active; 'I' for Inactive)
REMARK    1  A    between atoms: C_6  and  C_11 
ROOT
HETATM    1 CL   LIG     1      21.855  23.564  34.330  1.00  0.00    -0.082 Cl
HETATM    2  C   LIG     1      21.269  22.234  35.333  1.00  0.00     0.068 A 
HETATM    3  C   LIG     1      19.899  21.918  35.346  1.00  0.00     0.058 A 
HETATM    4 CL   LIG     1      18.742  22.827  34.380  1.00  0.00    -0.082 Cl
HETATM    5  C   LIG     1      19.432  20.866  36.136  1.00  0.00     0.051 A 
HETATM    6  C   LIG     1      22.167  21.482  36.119  1.00  0.00     0.023 A 
HETATM    7  C   LIG     1      21.687  20.421  36.915  1.00  0.00     0.068 A 
HETATM    8 CL   LIG     1      22.800  19.472  37.903  1.00  0.00    -0.082 Cl
HETATM    9  C   LIG     1      20.314  20.118  36.917  1.00  0.00     0.058 A 
HETATM   10 CL   LIG     1      19.671  18.802  37.893  1.00  0.00    -0.082 Cl
ENDROOT
BRANCH   6  11
HETATM   11  C   LIG     1      23.609  21.806  36.109  1.00  0.00     0.001 A 
HETATM   12  C   LIG     1      24.451  21.141  35.207  1.00  0.00     0.014 A 
HETATM   13  C   LIG     1      25.817  21.428  35.177  1.00  0.00     0.003 A 
HETATM   14  C   LIG     1      26.351  22.382  36.046  1.00  0.00     0.026 A 
HETATM   15  C   LIG     1      25.523  23.054  36.951  1.00  0.00     0.056 A 
HETATM   16  C   LIG     1      24.145  22.770  36.988  1.00  0.00     0.067 A 
HETATM   17 CL   LIG     1      26.240  24.247  38.026  1.00  0.00    -0.083 Cl
HETATM   18 CL   LIG     1      23.097  23.616  38.130  1.00  0.00    -0.082 Cl
ENDBRANCH   6  11
TORSDOF 1
ENDMDL
