REMARK  1 active torsions:
REMARK  status: ('A' for Active; 'I' for Inactive)
REMARK    1  A    between atoms: C_3  and  C_4 
ROOT
HETATM    1 CL   LIG     1      -0.784  -1.071  -2.469  1.00  0.00    -0.081 Cl
HETATM    2  C   LIG     1      -1.517  -0.507  -0.963  1.00  0.00     0.070 A 
HETATM    3  C   LIG     1      -0.704  -0.013   0.076  1.00  0.00     0.023 A 
HETATM    4  C   LIG     1      -1.292   0.434   1.275  1.00  0.00     0.070 A 
HETATM    5 CL   LIG     1      -0.277   1.055   2.582  1.00  0.00    -0.081 Cl
HETATM    6  C   LIG     1      -2.688   0.391   1.432  1.00  0.00     0.080 A 
HETATM    7 CL   LIG     1      -3.425   0.954   2.934  1.00  0.00    -0.081 Cl
HETATM    8  C   LIG     1      -3.498  -0.101   0.394  1.00  0.00     0.081 A 
HETATM    9 CL   LIG     1      -5.252  -0.155   0.592  1.00  0.00    -0.081 Cl
HETATM   10  C   LIG     1      -2.913  -0.550  -0.803  1.00  0.00     0.080 A 
HETATM   11 CL   LIG     1      -3.931  -1.167  -2.106  1.00  0.00    -0.081 Cl
ENDROOT
BRANCH   3  12
HETATM   12  C   LIG     1       0.763   0.035  -0.091  1.00  0.00     0.001 A 
HETATM   13  C   LIG     1       1.536  -1.070   0.296  1.00  0.00     0.038 A 
HETATM   14  C   LIG     1       2.926  -1.046   0.146  1.00  0.00     0.035 A 
HETATM   15  C   LIG     1       3.551   0.084  -0.392  1.00  0.00     0.025 A 
HETATM   16 CL   LIG     1       3.885  -2.431   0.633  1.00  0.00    -0.084 Cl
HETATM   17  C   LIG     1       2.788   1.188  -0.780  1.00  0.00     0.026 A 
HETATM   18  C   LIG     1       1.396   1.171  -0.633  1.00  0.00     0.045 A 
HETATM   19 CL   LIG     1       0.471   2.582  -1.134  1.00  0.00    -0.083 Cl
ENDBRANCH   3  12
TORSDOF 1
