MODEL 1
REMARK VINA RESULT:      -4.9      0.000      0.000
REMARK  1 active torsions:
REMARK  status: ('A' for Active; 'I' for Inactive)
REMARK    1  A    between atoms: C_3  and  C_4 
ROOT
HETATM    1 CL   LIG     1      22.315  19.636  23.165  1.00  0.00    -0.081 Cl
HETATM    2  C   LIG     1      23.487  20.851  23.689  1.00  0.00     0.070 A 
HETATM    3  C   LIG     1      24.246  21.556  22.735  1.00  0.00     0.023 A 
HETATM    4  C   LIG     1      25.180  22.522  23.156  1.00  0.00     0.070 A 
HETATM    5 CL   LIG     1      26.136  23.410  21.963  1.00  0.00    -0.081 Cl
HETATM    6  C   LIG     1      25.350  22.785  24.526  1.00  0.00     0.080 A 
HETATM    7 CL   LIG     1      26.518  23.999  25.054  1.00  0.00    -0.081 Cl
HETATM    8  C   LIG     1      24.590  22.082  25.477  1.00  0.00     0.081 A 
HETATM    9 CL   LIG     1      24.804  22.412  27.198  1.00  0.00    -0.081 Cl
HETATM   10  C   LIG     1      23.659  21.115  25.059  1.00  0.00     0.080 A 
HETATM   11 CL   LIG     1      22.706  20.233  26.253  1.00  0.00    -0.081 Cl
ENDROOT
BRANCH   3  12
HETATM   12  C   LIG     1      24.065  21.281  21.294  1.00  0.00     0.001 A 
HETATM   13  C   LIG     1      24.911  20.362  20.657  1.00  0.00     0.038 A 
HETATM   14  C   LIG     1      24.757  20.086  19.295  1.00  0.00     0.035 A 
HETATM   15  C   LIG     1      23.754  20.730  18.562  1.00  0.00     0.025 A 
HETATM   16 CL   LIG     1      25.820  18.936  18.506  1.00  0.00    -0.084 Cl
HETATM   17  C   LIG     1      22.908  21.647  19.189  1.00  0.00     0.026 A 
HETATM   18  C   LIG     1      23.056  21.927  20.553  1.00  0.00     0.045 A 
HETATM   19 CL   LIG     1      21.969  23.089  21.305  1.00  0.00    -0.083 Cl
ENDBRANCH   3  12
TORSDOF 1
ENDMDL
MODEL 2
REMARK VINA RESULT:      -4.9      0.083      2.760
REMARK  1 active torsions:
REMARK  status: ('A' for Active; 'I' for Inactive)
REMARK    1  A    between atoms: C_3  and  C_4 
ROOT
HETATM    1 CL   LIG     1      26.164  23.366  21.952  1.00  0.00    -0.081 Cl
HETATM    2  C   LIG     1      25.208  22.513  23.168  1.00  0.00     0.070 A 
HETATM    3  C   LIG     1      24.262  21.547  22.772  1.00  0.00     0.023 A 
HETATM    4  C   LIG     1      23.501  20.870  23.744  1.00  0.00     0.070 A 
HETATM    5 CL   LIG     1      22.313  19.657  23.253  1.00  0.00    -0.081 Cl
HETATM    6  C   LIG     1      23.688  21.155  25.108  1.00  0.00     0.080 A 
HETATM    7 CL   LIG     1      22.736  20.304  26.326  1.00  0.00    -0.081 Cl
HETATM    8  C   LIG     1      24.633  22.118  25.501  1.00  0.00     0.081 A 
HETATM    9 CL   LIG     1      24.868  22.476  27.215  1.00  0.00    -0.081 Cl
HETATM   10  C   LIG     1      25.393  22.797  24.532  1.00  0.00     0.080 A 
HETATM   11 CL   LIG     1      26.579  24.006  25.028  1.00  0.00    -0.081 Cl
ENDROOT
BRANCH   3  12
HETATM   12  C   LIG     1      24.068  21.245  21.339  1.00  0.00     0.001 A 
HETATM   13  C   LIG     1      24.890  20.292  20.719  1.00  0.00     0.038 A 
HETATM   14  C   LIG     1      24.723  19.991  19.364  1.00  0.00     0.035 A 
HETATM   15  C   LIG     1      23.732  20.641  18.621  1.00  0.00     0.025 A 
HETATM   16 CL   LIG     1      25.756  18.800  18.596  1.00  0.00    -0.084 Cl
HETATM   17  C   LIG     1      22.909  21.591  19.231  1.00  0.00     0.026 A 
HETATM   18  C   LIG     1      23.070  21.897  20.587  1.00  0.00     0.045 A 
HETATM   19 CL   LIG     1      22.013  23.099  21.319  1.00  0.00    -0.083 Cl
ENDBRANCH   3  12
TORSDOF 1
ENDMDL
MODEL 3
REMARK VINA RESULT:      -4.6      3.208      4.284
REMARK  1 active torsions:
REMARK  status: ('A' for Active; 'I' for Inactive)
REMARK    1  A    between atoms: C_3  and  C_4 
ROOT
HETATM    1 CL   LIG     1      26.274  21.081  22.074  1.00  0.00    -0.081 Cl
HETATM    2  C   LIG     1      26.711  22.619  21.320  1.00  0.00     0.070 A 
HETATM    3  C   LIG     1      26.117  23.001  20.101  1.00  0.00     0.023 A 
HETATM    4  C   LIG     1      26.469  24.227  19.503  1.00  0.00     0.070 A 
HETATM    5 CL   LIG     1      25.727  24.712  17.974  1.00  0.00    -0.081 Cl
HETATM    6  C   LIG     1      27.407  25.068  20.125  1.00  0.00     0.080 A 
HETATM    7 CL   LIG     1      27.846  26.606  19.377  1.00  0.00    -0.081 Cl
HETATM    8  C   LIG     1      27.998  24.686  21.342  1.00  0.00     0.081 A 
HETATM    9 CL   LIG     1      29.177  25.744  22.122  1.00  0.00    -0.081 Cl
HETATM   10  C   LIG     1      27.650  23.462  21.939  1.00  0.00     0.080 A 
HETATM   11 CL   LIG     1      28.391  22.983  23.468  1.00  0.00    -0.081 Cl
ENDROOT
BRANCH   3  12
HETATM   12  C   LIG     1      25.128  22.118  19.450  1.00  0.00     0.001 A 
HETATM   13  C   LIG     1      25.533  21.298  18.386  1.00  0.00     0.038 A 
HETATM   14  C   LIG     1      24.614  20.454  17.756  1.00  0.00     0.035 A 
HETATM   15  C   LIG     1      23.283  20.424  18.187  1.00  0.00     0.025 A 
HETATM   16 CL   LIG     1      25.129  19.433  16.426  1.00  0.00    -0.084 Cl
HETATM   17  C   LIG     1      22.873  21.237  19.246  1.00  0.00     0.026 A 
HETATM   18  C   LIG     1      23.787  22.085  19.881  1.00  0.00     0.045 A 
HETATM   19 CL   LIG     1      23.230  23.093  21.212  1.00  0.00    -0.083 Cl
ENDBRANCH   3  12
TORSDOF 1
ENDMDL
MODEL 4
REMARK VINA RESULT:      -4.5      4.059      5.745
REMARK  1 active torsions:
REMARK  status: ('A' for Active; 'I' for Inactive)
REMARK    1  A    between atoms: C_3  and  C_4 
ROOT
HETATM    1 CL   LIG     1      27.687  23.937  22.720  1.00  0.00    -0.081 Cl
HETATM    2  C   LIG     1      26.315  23.321  21.791  1.00  0.00     0.070 A 
HETATM    3  C   LIG     1      26.308  23.428  20.387  1.00  0.00     0.023 A 
HETATM    4  C   LIG     1      25.212  22.937  19.651  1.00  0.00     0.070 A 
HETATM    5 CL   LIG     1      25.198  23.069  17.888  1.00  0.00    -0.081 Cl
HETATM    6  C   LIG     1      24.130  22.338  20.318  1.00  0.00     0.080 A 
HETATM    7 CL   LIG     1      22.757  21.721  19.395  1.00  0.00    -0.081 Cl
HETATM    8  C   LIG     1      24.139  22.231  21.719  1.00  0.00     0.081 A 
HETATM    9 CL   LIG     1      22.778  21.478  22.556  1.00  0.00    -0.081 Cl
HETATM   10  C   LIG     1      25.231  22.722  22.456  1.00  0.00     0.080 A 
HETATM   11 CL   LIG     1      25.241  22.586  24.216  1.00  0.00    -0.081 Cl
ENDROOT
BRANCH   3  12
HETATM   12  C   LIG     1      27.448  24.055  19.686  1.00  0.00     0.001 A 
HETATM   13  C   LIG     1      27.411  25.429  19.406  1.00  0.00     0.038 A 
HETATM   14  C   LIG     1      28.479  26.043  18.745  1.00  0.00     0.035 A 
HETATM   15  C   LIG     1      29.590  25.286  18.360  1.00  0.00     0.025 A 
HETATM   16 CL   LIG     1      28.425  27.761  18.398  1.00  0.00    -0.084 Cl
HETATM   17  C   LIG     1      29.634  23.917  18.636  1.00  0.00     0.026 A 
HETATM   18  C   LIG     1      28.569  23.296  19.298  1.00  0.00     0.045 A 
HETATM   19 CL   LIG     1      28.663  21.569  19.626  1.00  0.00    -0.083 Cl
ENDBRANCH   3  12
TORSDOF 1
ENDMDL
MODEL 5
REMARK VINA RESULT:      -4.5      1.491      5.896
REMARK  1 active torsions:
REMARK  status: ('A' for Active; 'I' for Inactive)
REMARK    1  A    between atoms: C_3  and  C_4 
ROOT
HETATM    1 CL   LIG     1      26.875  19.774  22.906  1.00  0.00    -0.081 Cl
HETATM    2  C   LIG     1      25.740  20.384  21.696  1.00  0.00     0.070 A 
HETATM    3  C   LIG     1      24.664  21.205  22.088  1.00  0.00     0.023 A 
HETATM    4  C   LIG     1      23.761  21.687  21.121  1.00  0.00     0.070 A 
HETATM    5 CL   LIG     1      22.409  22.717  21.607  1.00  0.00    -0.081 Cl
HETATM    6  C   LIG     1      23.936  21.353  19.767  1.00  0.00     0.080 A 
HETATM    7 CL   LIG     1      22.805  21.960  18.555  1.00  0.00    -0.081 Cl
HETATM    8  C   LIG     1      25.011  20.535  19.378  1.00  0.00     0.081 A 
HETATM    9 CL   LIG     1      25.230  20.116  17.676  1.00  0.00    -0.081 Cl
HETATM   10  C   LIG     1      25.912  20.051  20.342  1.00  0.00     0.080 A 
HETATM   11 CL   LIG     1      27.261  19.024  19.851  1.00  0.00    -0.081 Cl
ENDROOT
BRANCH   3  12
HETATM   12  C   LIG     1      24.482  21.558  23.511  1.00  0.00     0.001 A 
HETATM   13  C   LIG     1      25.170  22.660  24.040  1.00  0.00     0.038 A 
HETATM   14  C   LIG     1      25.012  23.013  25.384  1.00  0.00     0.035 A 
HETATM   15  C   LIG     1      24.165  22.264  26.207  1.00  0.00     0.025 A 
HETATM   16 CL   LIG     1      25.876  24.392  26.037  1.00  0.00    -0.084 Cl
HETATM   17  C   LIG     1      23.476  21.164  25.688  1.00  0.00     0.026 A 
HETATM   18  C   LIG     1      23.629  20.806  24.343  1.00  0.00     0.045 A 
HETATM   19 CL   LIG     1      22.744  19.415  23.728  1.00  0.00    -0.083 Cl
ENDBRANCH   3  12
TORSDOF 1
ENDMDL
MODEL 6
REMARK VINA RESULT:      -4.5      3.487      5.590
REMARK  1 active torsions:
REMARK  status: ('A' for Active; 'I' for Inactive)
REMARK    1  A    between atoms: C_3  and  C_4 
ROOT
HETATM    1 CL   LIG     1      27.171  22.602  23.024  1.00  0.00    -0.081 Cl
HETATM    2  C   LIG     1      27.567  23.704  21.701  1.00  0.00     0.070 A 
HETATM    3  C   LIG     1      26.772  23.724  20.537  1.00  0.00     0.023 A 
HETATM    4  C   LIG     1      27.092  24.602  19.484  1.00  0.00     0.070 A 
HETATM    5 CL   LIG     1      26.099  24.631  18.022  1.00  0.00    -0.081 Cl
HETATM    6  C   LIG     1      28.199  25.461  19.596  1.00  0.00     0.080 A 
HETATM    7 CL   LIG     1      28.598  26.564  18.277  1.00  0.00    -0.081 Cl
HETATM    8  C   LIG     1      28.990  25.441  20.758  1.00  0.00     0.081 A 
HETATM    9 CL   LIG     1      30.381  26.520  20.898  1.00  0.00    -0.081 Cl
HETATM   10  C   LIG     1      28.674  24.563  21.810  1.00  0.00     0.080 A 
HETATM   11 CL   LIG     1      29.668  24.539  23.268  1.00  0.00    -0.081 Cl
ENDROOT
BRANCH   3  12
HETATM   12  C   LIG     1      25.607  22.823  20.422  1.00  0.00     0.001 A 
HETATM   13  C   LIG     1      24.355  23.255  20.885  1.00  0.00     0.038 A 
HETATM   14  C   LIG     1      23.239  22.419  20.785  1.00  0.00     0.035 A 
HETATM   15  C   LIG     1      23.368  21.146  20.220  1.00  0.00     0.025 A 
HETATM   16 CL   LIG     1      21.678  22.967  21.368  1.00  0.00    -0.084 Cl
HETATM   17  C   LIG     1      24.611  20.709  19.755  1.00  0.00     0.026 A 
HETATM   18  C   LIG     1      25.733  21.541  19.853  1.00  0.00     0.045 A 
HETATM   19 CL   LIG     1      27.281  20.953  19.256  1.00  0.00    -0.083 Cl
ENDBRANCH   3  12
TORSDOF 1
ENDMDL
MODEL 7
REMARK VINA RESULT:      -4.5      3.976      5.563
REMARK  1 active torsions:
REMARK  status: ('A' for Active; 'I' for Inactive)
REMARK    1  A    between atoms: C_3  and  C_4 
ROOT
HETATM    1 CL   LIG     1      25.361  22.887  17.958  1.00  0.00    -0.081 Cl
HETATM    2  C   LIG     1      25.267  22.801  19.721  1.00  0.00     0.070 A 
HETATM    3  C   LIG     1      26.299  23.347  20.510  1.00  0.00     0.023 A 
HETATM    4  C   LIG     1      26.221  23.275  21.914  1.00  0.00     0.070 A 
HETATM    5 CL   LIG     1      27.512  23.958  22.909  1.00  0.00    -0.081 Cl
HETATM    6  C   LIG     1      25.113  22.663  22.526  1.00  0.00     0.080 A 
HETATM    7 CL   LIG     1      25.015  22.576  24.286  1.00  0.00    -0.081 Cl
HETATM    8  C   LIG     1      24.084  22.120  21.738  1.00  0.00     0.081 A 
HETATM    9 CL   LIG     1      22.693  21.352  22.508  1.00  0.00    -0.081 Cl
HETATM   10  C   LIG     1      24.161  22.189  20.336  1.00  0.00     0.080 A 
HETATM   11 CL   LIG     1      22.868  21.507  19.346  1.00  0.00    -0.081 Cl
ENDROOT
BRANCH   3  12
HETATM   12  C   LIG     1      27.461  23.992  19.865  1.00  0.00     0.001 A 
HETATM   13  C   LIG     1      27.385  25.347  19.508  1.00  0.00     0.038 A 
HETATM   14  C   LIG     1      28.473  25.977  18.897  1.00  0.00     0.035 A 
HETATM   15  C   LIG     1      29.645  25.256  18.641  1.00  0.00     0.025 A 
HETATM   16 CL   LIG     1      28.370  27.670  18.453  1.00  0.00    -0.084 Cl
HETATM   17  C   LIG     1      29.728  23.908  18.995  1.00  0.00     0.026 A 
HETATM   18  C   LIG     1      28.642  23.270  19.606  1.00  0.00     0.045 A 
HETATM   19 CL   LIG     1      28.788  21.569  20.036  1.00  0.00    -0.083 Cl
ENDBRANCH   3  12
TORSDOF 1
ENDMDL
MODEL 8
REMARK VINA RESULT:      -4.4      2.486      4.095
REMARK  1 active torsions:
REMARK  status: ('A' for Active; 'I' for Inactive)
REMARK    1  A    between atoms: C_3  and  C_4 
ROOT
HETATM    1 CL   LIG     1      24.296  22.499  26.407  1.00  0.00    -0.081 Cl
HETATM    2  C   LIG     1      25.712  23.258  25.670  1.00  0.00     0.070 A 
HETATM    3  C   LIG     1      25.977  23.076  24.299  1.00  0.00     0.023 A 
HETATM    4  C   LIG     1      27.107  23.681  23.716  1.00  0.00     0.070 A 
HETATM    5 CL   LIG     1      27.445  23.456  21.996  1.00  0.00    -0.081 Cl
HETATM    6  C   LIG     1      27.966  24.468  24.501  1.00  0.00     0.080 A 
HETATM    7 CL   LIG     1      29.381  25.229  23.770  1.00  0.00    -0.081 Cl
HETATM    8  C   LIG     1      27.700  24.650  25.870  1.00  0.00     0.081 A 
HETATM    9 CL   LIG     1      28.780  25.640  26.856  1.00  0.00    -0.081 Cl
HETATM   10  C   LIG     1      26.574  24.045  26.454  1.00  0.00     0.080 A 
HETATM   11 CL   LIG     1      26.240  24.275  28.172  1.00  0.00    -0.081 Cl
ENDROOT
BRANCH   3  12
HETATM   12  C   LIG     1      25.072  22.250  23.473  1.00  0.00     0.001 A 
HETATM   13  C   LIG     1      24.003  22.863  22.801  1.00  0.00     0.038 A 
HETATM   14  C   LIG     1      23.135  22.100  22.014  1.00  0.00     0.035 A 
HETATM   15  C   LIG     1      23.330  20.720  21.894  1.00  0.00     0.025 A 
HETATM   16 CL   LIG     1      21.801  22.874  21.178  1.00  0.00    -0.084 Cl
HETATM   17  C   LIG     1      24.392  20.103  22.560  1.00  0.00     0.026 A 
HETATM   18  C   LIG     1      25.266  20.860  23.350  1.00  0.00     0.045 A 
HETATM   19 CL   LIG     1      26.591  20.045  24.172  1.00  0.00    -0.083 Cl
ENDBRANCH   3  12
TORSDOF 1
ENDMDL
MODEL 9
REMARK VINA RESULT:      -4.2     12.570     14.195
REMARK  1 active torsions:
REMARK  status: ('A' for Active; 'I' for Inactive)
REMARK    1  A    between atoms: C_3  and  C_4 
ROOT
HETATM    1 CL   LIG     1      22.899  23.569  38.118  1.00  0.00    -0.081 Cl
HETATM    2  C   LIG     1      23.990  22.814  36.950  1.00  0.00     0.070 A 
HETATM    3  C   LIG     1      23.490  21.887  36.014  1.00  0.00     0.023 A 
HETATM    4  C   LIG     1      24.363  21.287  35.086  1.00  0.00     0.070 A 
HETATM    5 CL   LIG     1      23.742  20.123  33.910  1.00  0.00    -0.081 Cl
HETATM    6  C   LIG     1      25.730  21.616  35.092  1.00  0.00     0.080 A 
HETATM    7 CL   LIG     1      26.823  20.865  33.928  1.00  0.00    -0.081 Cl
HETATM    8  C   LIG     1      26.226  22.541  36.026  1.00  0.00     0.081 A 
HETATM    9 CL   LIG     1      27.943  22.954  36.033  1.00  0.00    -0.081 Cl
HETATM   10  C   LIG     1      25.357  23.140  36.955  1.00  0.00     0.080 A 
HETATM   11 CL   LIG     1      25.982  24.303  38.126  1.00  0.00    -0.081 Cl
ENDROOT
BRANCH   3  12
HETATM   12  C   LIG     1      22.053  21.544  36.006  1.00  0.00     0.001 A 
HETATM   13  C   LIG     1      21.589  20.505  36.827  1.00  0.00     0.038 A 
HETATM   14  C   LIG     1      20.233  20.165  36.835  1.00  0.00     0.035 A 
HETATM   15  C   LIG     1      19.333  20.862  36.023  1.00  0.00     0.025 A 
HETATM   16 CL   LIG     1      19.662  18.864  37.863  1.00  0.00    -0.084 Cl
HETATM   17  C   LIG     1      19.787  21.898  35.203  1.00  0.00     0.026 A 
HETATM   18  C   LIG     1      21.143  22.244  35.190  1.00  0.00     0.045 A 
HETATM   19 CL   LIG     1      21.675  23.556  34.143  1.00  0.00    -0.083 Cl
ENDBRANCH   3  12
TORSDOF 1
ENDMDL
MODEL 10
REMARK VINA RESULT:      -4.2      3.942      4.905
REMARK  1 active torsions:
REMARK  status: ('A' for Active; 'I' for Inactive)
REMARK    1  A    between atoms: C_3  and  C_4 
ROOT
HETATM    1 CL   LIG     1      24.507  22.765  18.068  1.00  0.00    -0.081 Cl
HETATM    2  C   LIG     1      25.310  22.837  19.641  1.00  0.00     0.070 A 
HETATM    3  C   LIG     1      26.687  23.127  19.718  1.00  0.00     0.023 A 
HETATM    4  C   LIG     1      27.324  23.181  20.972  1.00  0.00     0.070 A 
HETATM    5 CL   LIG     1      29.050  23.544  21.075  1.00  0.00    -0.081 Cl
HETATM    6  C   LIG     1      26.585  22.952  22.146  1.00  0.00     0.080 A 
HETATM    7 CL   LIG     1      27.383  23.023  23.719  1.00  0.00    -0.081 Cl
HETATM    8  C   LIG     1      25.211  22.664  22.068  1.00  0.00     0.081 A 
HETATM    9 CL   LIG     1      24.284  22.375  23.543  1.00  0.00    -0.081 Cl
HETATM   10  C   LIG     1      24.574  22.607  20.816  1.00  0.00     0.080 A 
HETATM   11 CL   LIG     1      22.849  22.246  20.719  1.00  0.00    -0.081 Cl
ENDROOT
BRANCH   3  12
HETATM   12  C   LIG     1      27.462  23.371  18.484  1.00  0.00     0.001 A 
HETATM   13  C   LIG     1      27.983  22.281  17.771  1.00  0.00     0.038 A 
HETATM   14  C   LIG     1      28.719  22.490  16.601  1.00  0.00     0.035 A 
HETATM   15  C   LIG     1      28.937  23.791  16.136  1.00  0.00     0.025 A 
HETATM   16 CL   LIG     1      29.367  21.121  15.716  1.00  0.00    -0.084 Cl
HETATM   17  C   LIG     1      28.421  24.882  16.840  1.00  0.00     0.026 A 
HETATM   18  C   LIG     1      27.684  24.680  18.013  1.00  0.00     0.045 A 
HETATM   19 CL   LIG     1      27.051  26.081  18.870  1.00  0.00    -0.083 Cl
ENDBRANCH   3  12
TORSDOF 1
ENDMDL
MODEL 11
REMARK VINA RESULT:      -4.2      3.861      5.220
REMARK  1 active torsions:
REMARK  status: ('A' for Active; 'I' for Inactive)
REMARK    1  A    between atoms: C_3  and  C_4 
ROOT
HETATM    1 CL   LIG     1      29.024  23.695  21.185  1.00  0.00    -0.081 Cl
HETATM    2  C   LIG     1      27.313  23.258  21.110  1.00  0.00     0.070 A 
HETATM    3  C   LIG     1      26.673  23.125  19.862  1.00  0.00     0.023 A 
HETATM    4  C   LIG     1      25.309  22.778  19.806  1.00  0.00     0.070 A 
HETATM    5 CL   LIG     1      24.501  22.609  18.244  1.00  0.00    -0.081 Cl
HETATM    6  C   LIG     1      24.590  22.561  20.994  1.00  0.00     0.080 A 
HETATM    7 CL   LIG     1      22.881  22.124  20.924  1.00  0.00    -0.081 Cl
HETATM    8  C   LIG     1      25.230  22.694  22.238  1.00  0.00     0.081 A 
HETATM    9 CL   LIG     1      24.326  22.422  23.731  1.00  0.00    -0.081 Cl
HETATM   10  C   LIG     1      26.591  23.042  22.296  1.00  0.00     0.080 A 
HETATM   11 CL   LIG     1      27.394  23.208  23.859  1.00  0.00    -0.081 Cl
ENDROOT
BRANCH   3  12
HETATM   12  C   LIG     1      27.430  23.349  18.614  1.00  0.00     0.001 A 
HETATM   13  C   LIG     1      27.994  22.253  17.944  1.00  0.00     0.038 A 
HETATM   14  C   LIG     1      28.714  22.443  16.761  1.00  0.00     0.035 A 
HETATM   15  C   LIG     1      28.874  23.731  16.240  1.00  0.00     0.025 A 
HETATM   16 CL   LIG     1      29.416  21.067  15.930  1.00  0.00    -0.084 Cl
HETATM   17  C   LIG     1      28.316  24.828  16.901  1.00  0.00     0.026 A 
HETATM   18  C   LIG     1      27.593  24.645  18.086  1.00  0.00     0.045 A 
HETATM   19 CL   LIG     1      26.906  26.053  18.888  1.00  0.00    -0.083 Cl
ENDBRANCH   3  12
TORSDOF 1
ENDMDL
MODEL 12
REMARK VINA RESULT:      -4.2      4.003      6.914
REMARK  1 active torsions:
REMARK  status: ('A' for Active; 'I' for Inactive)
REMARK    1  A    between atoms: C_3  and  C_4 
ROOT
HETATM    1 CL   LIG     1      24.947  23.902  20.831  1.00  0.00    -0.081 Cl
HETATM    2  C   LIG     1      25.330  22.784  19.517  1.00  0.00     0.070 A 
HETATM    3  C   LIG     1      26.581  22.853  18.874  1.00  0.00     0.023 A 
HETATM    4  C   LIG     1      26.881  21.961  17.826  1.00  0.00     0.070 A 
HETATM    5 CL   LIG     1      28.450  22.043  17.015  1.00  0.00    -0.081 Cl
HETATM    6  C   LIG     1      25.936  21.001  17.427  1.00  0.00     0.080 A 
HETATM    7 CL   LIG     1      26.313  19.882  16.116  1.00  0.00    -0.081 Cl
HETATM    8  C   LIG     1      24.688  20.933  18.071  1.00  0.00     0.081 A 
HETATM    9 CL   LIG     1      23.500  19.727  17.569  1.00  0.00    -0.081 Cl
HETATM   10  C   LIG     1      24.385  21.824  19.116  1.00  0.00     0.080 A 
HETATM   11 CL   LIG     1      22.819  21.737  19.924  1.00  0.00    -0.081 Cl
ENDROOT
BRANCH   3  12
HETATM   12  C   LIG     1      27.576  23.860  19.296  1.00  0.00     0.001 A 
HETATM   13  C   LIG     1      27.596  25.114  18.665  1.00  0.00     0.038 A 
HETATM   14  C   LIG     1      28.529  26.082  19.050  1.00  0.00     0.035 A 
HETATM   15  C   LIG     1      29.448  25.802  20.067  1.00  0.00     0.025 A 
HETATM   16 CL   LIG     1      28.549  27.645  18.256  1.00  0.00    -0.084 Cl
HETATM   17  C   LIG     1      29.433  24.556  20.700  1.00  0.00     0.026 A 
HETATM   18  C   LIG     1      28.502  23.582  20.320  1.00  0.00     0.045 A 
HETATM   19 CL   LIG     1      28.517  22.026  21.142  1.00  0.00    -0.083 Cl
ENDBRANCH   3  12
TORSDOF 1
ENDMDL
MODEL 13
REMARK VINA RESULT:      -4.1      2.955      5.057
REMARK  1 active torsions:
REMARK  status: ('A' for Active; 'I' for Inactive)
REMARK    1  A    between atoms: C_3  and  C_4 
ROOT
HETATM    1 CL   LIG     1      26.631  23.287  23.765  1.00  0.00    -0.081 Cl
HETATM    2  C   LIG     1      26.738  23.620  22.032  1.00  0.00     0.070 A 
HETATM    3  C   LIG     1      25.943  22.894  21.123  1.00  0.00     0.023 A 
HETATM    4  C   LIG     1      26.033  23.162  19.744  1.00  0.00     0.070 A 
HETATM    5 CL   LIG     1      25.037  22.255  18.599  1.00  0.00    -0.081 Cl
HETATM    6  C   LIG     1      26.911  24.154  19.276  1.00  0.00     0.080 A 
HETATM    7 CL   LIG     1      27.022  24.491  17.546  1.00  0.00    -0.081 Cl
HETATM    8  C   LIG     1      27.703  24.877  20.184  1.00  0.00     0.081 A 
HETATM    9 CL   LIG     1      28.808  26.124  19.595  1.00  0.00    -0.081 Cl
HETATM   10  C   LIG     1      27.617  24.611  21.561  1.00  0.00     0.080 A 
HETATM   11 CL   LIG     1      28.612  25.520  22.701  1.00  0.00    -0.081 Cl
ENDROOT
BRANCH   3  12
HETATM   12  C   LIG     1      25.017  21.854  21.616  1.00  0.00     0.001 A 
HETATM   13  C   LIG     1      25.497  20.554  21.837  1.00  0.00     0.038 A 
HETATM   14  C   LIG     1      24.638  19.555  22.304  1.00  0.00     0.035 A 
HETATM   15  C   LIG     1      23.293  19.850  22.553  1.00  0.00     0.025 A 
HETATM   16 CL   LIG     1      25.245  17.933  22.576  1.00  0.00    -0.084 Cl
HETATM   17  C   LIG     1      22.808  21.142  22.336  1.00  0.00     0.026 A 
HETATM   18  C   LIG     1      23.662  22.148  21.869  1.00  0.00     0.045 A 
HETATM   19 CL   LIG     1      23.012  23.762  21.609  1.00  0.00    -0.083 Cl
ENDBRANCH   3  12
TORSDOF 1
ENDMDL
MODEL 14
REMARK VINA RESULT:      -4.0      1.676      2.574
REMARK  1 active torsions:
REMARK  status: ('A' for Active; 'I' for Inactive)
REMARK    1  A    between atoms: C_3  and  C_4 
ROOT
HETATM    1 CL   LIG     1      23.224  20.600  24.417  1.00  0.00    -0.081 Cl
HETATM    2  C   LIG     1      24.497  21.823  24.507  1.00  0.00     0.070 A 
HETATM    3  C   LIG     1      25.279  22.112  23.371  1.00  0.00     0.023 A 
HETATM    4  C   LIG     1      26.293  23.086  23.447  1.00  0.00     0.070 A 
HETATM    5 CL   LIG     1      27.276  23.454  22.025  1.00  0.00    -0.081 Cl
HETATM    6  C   LIG     1      26.521  23.771  24.653  1.00  0.00     0.080 A 
HETATM    7 CL   LIG     1      27.791  24.994  24.747  1.00  0.00    -0.081 Cl
HETATM    8  C   LIG     1      25.740  23.482  25.785  1.00  0.00     0.081 A 
HETATM    9 CL   LIG     1      26.028  24.342  27.300  1.00  0.00    -0.081 Cl
HETATM   10  C   LIG     1      24.728  22.508  25.712  1.00  0.00     0.080 A 
HETATM   11 CL   LIG     1      23.748  22.146  27.134  1.00  0.00    -0.081 Cl
ENDROOT
BRANCH   3  12
HETATM   12  C   LIG     1      25.036  21.395  22.102  1.00  0.00     0.001 A 
HETATM   13  C   LIG     1      24.127  21.925  21.175  1.00  0.00     0.038 A 
HETATM   14  C   LIG     1      23.882  21.263  19.968  1.00  0.00     0.035 A 
HETATM   15  C   LIG     1      24.546  20.065  19.682  1.00  0.00     0.025 A 
HETATM   16 CL   LIG     1      22.744  21.932  18.815  1.00  0.00    -0.084 Cl
HETATM   17  C   LIG     1      25.453  19.531  20.600  1.00  0.00     0.026 A 
HETATM   18  C   LIG     1      25.703  20.189  21.811  1.00  0.00     0.045 A 
HETATM   19 CL   LIG     1      26.853  19.482  22.941  1.00  0.00    -0.083 Cl
ENDBRANCH   3  12
TORSDOF 1
ENDMDL
MODEL 15
REMARK VINA RESULT:      -4.0     10.097     12.079
REMARK  1 active torsions:
REMARK  status: ('A' for Active; 'I' for Inactive)
REMARK    1  A    between atoms: C_3  and  C_4 
ROOT
HETATM    1 CL   LIG     1      19.269  22.420  34.741  1.00  0.00    -0.081 Cl
HETATM    2  C   LIG     1      20.976  21.961  34.698  1.00  0.00     0.070 A 
HETATM    3  C   LIG     1      21.396  20.881  33.898  1.00  0.00     0.023 A 
HETATM    4  C   LIG     1      22.756  20.518  33.868  1.00  0.00     0.070 A 
HETATM    5 CL   LIG     1      23.290  19.163  32.866  1.00  0.00    -0.081 Cl
HETATM    6  C   LIG     1      23.693  21.236  34.632  1.00  0.00     0.080 A 
HETATM    7 CL   LIG     1      25.398  20.782  34.592  1.00  0.00    -0.081 Cl
HETATM    8  C   LIG     1      23.272  22.314  35.429  1.00  0.00     0.081 A 
HETATM    9 CL   LIG     1      24.449  23.216  36.388  1.00  0.00    -0.081 Cl
HETATM   10  C   LIG     1      21.914  22.677  35.462  1.00  0.00     0.080 A 
HETATM   11 CL   LIG     1      21.387  24.032  36.463  1.00  0.00    -0.081 Cl
ENDROOT
BRANCH   3  12
HETATM   12  C   LIG     1      20.412  20.129  33.093  1.00  0.00     0.001 A 
HETATM   13  C   LIG     1      20.148  20.532  31.776  1.00  0.00     0.038 A 
HETATM   14  C   LIG     1      19.221  19.834  30.996  1.00  0.00     0.035 A 
HETATM   15  C   LIG     1      18.552  18.728  31.530  1.00  0.00     0.025 A 
HETATM   16 CL   LIG     1      18.897  20.346  29.351  1.00  0.00    -0.084 Cl
HETATM   17  C   LIG     1      18.809  18.320  32.841  1.00  0.00     0.026 A 
HETATM   18  C   LIG     1      19.736  19.014  33.627  1.00  0.00     0.045 A 
HETATM   19 CL   LIG     1      20.032  18.467  35.274  1.00  0.00    -0.083 Cl
ENDBRANCH   3  12
TORSDOF 1
ENDMDL
MODEL 16
REMARK VINA RESULT:      -4.0      1.681      3.787
REMARK  1 active torsions:
REMARK  status: ('A' for Active; 'I' for Inactive)
REMARK    1  A    between atoms: C_3  and  C_4 
ROOT
HETATM    1 CL   LIG     1      27.329  23.521  22.246  1.00  0.00    -0.081 Cl
HETATM    2  C   LIG     1      26.339  23.126  23.656  1.00  0.00     0.070 A 
HETATM    3  C   LIG     1      25.323  22.156  23.554  1.00  0.00     0.023 A 
HETATM    4  C   LIG     1      24.535  21.845  24.679  1.00  0.00     0.070 A 
HETATM    5 CL   LIG     1      23.259  20.628  24.558  1.00  0.00    -0.081 Cl
HETATM    6  C   LIG     1      24.765  22.499  25.901  1.00  0.00     0.080 A 
HETATM    7 CL   LIG     1      23.779  22.108  27.312  1.00  0.00    -0.081 Cl
HETATM    8  C   LIG     1      25.780  23.467  26.001  1.00  0.00     0.081 A 
HETATM    9 CL   LIG     1      26.068  24.289  27.537  1.00  0.00    -0.081 Cl
HETATM   10  C   LIG     1      26.566  23.780  24.879  1.00  0.00     0.080 A 
HETATM   11 CL   LIG     1      27.841  24.995  25.005  1.00  0.00    -0.081 Cl
ENDROOT
BRANCH   3  12
HETATM   12  C   LIG     1      25.084  21.466  22.270  1.00  0.00     0.001 A 
HETATM   13  C   LIG     1      24.133  21.983  21.378  1.00  0.00     0.038 A 
HETATM   14  C   LIG     1      23.892  21.347  20.156  1.00  0.00     0.035 A 
HETATM   15  C   LIG     1      24.599  20.187  19.821  1.00  0.00     0.025 A 
HETATM   16 CL   LIG     1      22.702  22.000  19.047  1.00  0.00    -0.084 Cl
HETATM   17  C   LIG     1      25.547  19.666  20.705  1.00  0.00     0.026 A 
HETATM   18  C   LIG     1      25.795  20.298  21.929  1.00  0.00     0.045 A 
HETATM   19 CL   LIG     1      26.997  19.609  23.014  1.00  0.00    -0.083 Cl
ENDBRANCH   3  12
TORSDOF 1
ENDMDL
MODEL 17
REMARK VINA RESULT:      -4.0      5.434      7.205
REMARK  1 active torsions:
REMARK  status: ('A' for Active; 'I' for Inactive)
REMARK    1  A    between atoms: C_3  and  C_4 
ROOT
HETATM    1 CL   LIG     1      25.271  24.613  17.736  1.00  0.00    -0.081 Cl
HETATM    2  C   LIG     1      26.350  23.349  18.338  1.00  0.00     0.070 A 
HETATM    3  C   LIG     1      27.732  23.595  18.451  1.00  0.00     0.023 A 
HETATM    4  C   LIG     1      28.588  22.585  18.929  1.00  0.00     0.070 A 
HETATM    5 CL   LIG     1      30.324  22.888  19.073  1.00  0.00    -0.081 Cl
HETATM    6  C   LIG     1      28.063  21.334  19.297  1.00  0.00     0.080 A 
HETATM    7 CL   LIG     1      29.136  20.069  19.900  1.00  0.00    -0.081 Cl
HETATM    8  C   LIG     1      26.683  21.090  19.185  1.00  0.00     0.081 A 
HETATM    9 CL   LIG     1      26.023  19.519  19.648  1.00  0.00    -0.081 Cl
HETATM   10  C   LIG     1      25.827  22.097  18.706  1.00  0.00     0.080 A 
HETATM   11 CL   LIG     1      24.094  21.790  18.566  1.00  0.00    -0.081 Cl
ENDROOT
BRANCH   3  12
HETATM   12  C   LIG     1      28.283  24.911  18.067  1.00  0.00     0.001 A 
HETATM   13  C   LIG     1      28.746  25.107  16.757  1.00  0.00     0.038 A 
HETATM   14  C   LIG     1      29.271  26.345  16.372  1.00  0.00     0.035 A 
HETATM   15  C   LIG     1      29.336  27.393  17.296  1.00  0.00     0.025 A 
HETATM   16 CL   LIG     1      29.847  26.582  14.733  1.00  0.00    -0.084 Cl
HETATM   17  C   LIG     1      28.878  27.205  18.602  1.00  0.00     0.026 A 
HETATM   18  C   LIG     1      28.351  25.969  18.994  1.00  0.00     0.045 A 
HETATM   19 CL   LIG     1      27.784  25.774  20.649  1.00  0.00    -0.083 Cl
ENDBRANCH   3  12
TORSDOF 1
ENDMDL
MODEL 18
REMARK VINA RESULT:      -4.0     11.249     13.942
REMARK  1 active torsions:
REMARK  status: ('A' for Active; 'I' for Inactive)
REMARK    1  A    between atoms: C_3  and  C_4 
ROOT
HETATM    1 CL   LIG     1      24.965  20.256  34.186  1.00  0.00    -0.081 Cl
HETATM    2  C   LIG     1      23.362  20.999  34.243  1.00  0.00     0.070 A 
HETATM    3  C   LIG     1      23.108  22.061  35.134  1.00  0.00     0.023 A 
HETATM    4  C   LIG     1      21.830  22.650  35.177  1.00  0.00     0.070 A 
HETATM    5 CL   LIG     1      21.505  23.982  36.292  1.00  0.00    -0.081 Cl
HETATM    6  C   LIG     1      20.811  22.181  34.330  1.00  0.00     0.080 A 
HETATM    7 CL   LIG     1      19.209  22.921  34.383  1.00  0.00    -0.081 Cl
HETATM    8  C   LIG     1      21.066  21.123  33.441  1.00  0.00     0.081 A 
HETATM    9 CL   LIG     1      19.786  20.534  32.377  1.00  0.00    -0.081 Cl
HETATM   10  C   LIG     1      22.341  20.532  33.398  1.00  0.00     0.080 A 
HETATM   11 CL   LIG     1      22.661  19.203  32.281  1.00  0.00    -0.081 Cl
ENDROOT
BRANCH   3  12
HETATM   12  C   LIG     1      24.181  22.555  36.022  1.00  0.00     0.001 A 
HETATM   13  C   LIG     1      25.027  23.580  35.573  1.00  0.00     0.038 A 
HETATM   14  C   LIG     1      26.048  24.063  36.398  1.00  0.00     0.035 A 
HETATM   15  C   LIG     1      26.228  23.524  37.676  1.00  0.00     0.025 A 
HETATM   16 CL   LIG     1      27.103  25.344  35.829  1.00  0.00    -0.084 Cl
HETATM   17  C   LIG     1      25.389  22.503  38.129  1.00  0.00     0.026 A 
HETATM   18  C   LIG     1      24.365  22.015  37.310  1.00  0.00     0.045 A 
HETATM   19 CL   LIG     1      23.329  20.729  37.919  1.00  0.00    -0.083 Cl
ENDBRANCH   3  12
TORSDOF 1
ENDMDL
MODEL 19
REMARK VINA RESULT:      -4.0      1.496      5.954
REMARK  1 active torsions:
REMARK  status: ('A' for Active; 'I' for Inactive)
REMARK    1  A    between atoms: C_3  and  C_4 
ROOT
HETATM    1 CL   LIG     1      27.294  20.133  22.618  1.00  0.00    -0.081 Cl
HETATM    2  C   LIG     1      26.053  20.629  21.461  1.00  0.00     0.070 A 
HETATM    3  C   LIG     1      24.948  21.388  21.894  1.00  0.00     0.023 A 
HETATM    4  C   LIG     1      23.960  21.779  20.969  1.00  0.00     0.070 A 
HETATM    5 CL   LIG     1      22.571  22.731  21.506  1.00  0.00    -0.081 Cl
HETATM    6  C   LIG     1      24.081  21.417  19.616  1.00  0.00     0.080 A 
HETATM    7 CL   LIG     1      22.845  21.911  18.457  1.00  0.00    -0.081 Cl
HETATM    8  C   LIG     1      25.185  20.662  19.186  1.00  0.00     0.081 A 
HETATM    9 CL   LIG     1      25.336  20.207  17.486  1.00  0.00    -0.081 Cl
HETATM   10  C   LIG     1      26.171  20.267  20.108  1.00  0.00     0.080 A 
HETATM   11 CL   LIG     1      27.557  19.319  19.566  1.00  0.00    -0.081 Cl
ENDROOT
BRANCH   3  12
HETATM   12  C   LIG     1      24.823  21.771  23.315  1.00  0.00     0.001 A 
HETATM   13  C   LIG     1      23.921  21.079  24.137  1.00  0.00     0.038 A 
HETATM   14  C   LIG     1      23.788  21.425  25.485  1.00  0.00     0.035 A 
HETATM   15  C   LIG     1      24.557  22.465  26.019  1.00  0.00     0.025 A 
HETATM   16 CL   LIG     1      22.657  20.557  26.506  1.00  0.00    -0.084 Cl
HETATM   17  C   LIG     1      25.458  23.157  25.207  1.00  0.00     0.026 A 
HETATM   18  C   LIG     1      25.596  22.817  23.856  1.00  0.00     0.045 A 
HETATM   19 CL   LIG     1      26.743  23.714  22.867  1.00  0.00    -0.083 Cl
ENDBRANCH   3  12
TORSDOF 1
ENDMDL
MODEL 20
REMARK VINA RESULT:      -3.9      3.190      5.805
REMARK  1 active torsions:
REMARK  status: ('A' for Active; 'I' for Inactive)
REMARK    1  A    between atoms: C_3  and  C_4 
ROOT
HETATM    1 CL   LIG     1      25.029  23.013  22.900  1.00  0.00    -0.081 Cl
HETATM    2  C   LIG     1      25.113  22.278  21.294  1.00  0.00     0.070 A 
HETATM    3  C   LIG     1      26.199  22.564  20.443  1.00  0.00     0.023 A 
HETATM    4  C   LIG     1      26.261  21.978  19.164  1.00  0.00     0.070 A 
HETATM    5 CL   LIG     1      27.621  22.332  18.092  1.00  0.00    -0.081 Cl
HETATM    6  C   LIG     1      25.243  21.106  18.741  1.00  0.00     0.080 A 
HETATM    7 CL   LIG     1      25.323  20.369  17.139  1.00  0.00    -0.081 Cl
HETATM    8  C   LIG     1      24.161  20.821  19.591  1.00  0.00     0.081 A 
HETATM    9 CL   LIG     1      22.883  19.725  19.058  1.00  0.00    -0.081 Cl
HETATM   10  C   LIG     1      24.096  21.407  20.868  1.00  0.00     0.080 A 
HETATM   11 CL   LIG     1      22.737  21.048  21.935  1.00  0.00    -0.081 Cl
ENDROOT
BRANCH   3  12
HETATM   12  C   LIG     1      27.269  23.478  20.891  1.00  0.00     0.001 A 
HETATM   13  C   LIG     1      28.311  22.979  21.688  1.00  0.00     0.038 A 
HETATM   14  C   LIG     1      29.335  23.827  22.122  1.00  0.00     0.035 A 
HETATM   15  C   LIG     1      29.323  25.178  21.761  1.00  0.00     0.025 A 
HETATM   16 CL   LIG     1      30.633  23.196  23.118  1.00  0.00    -0.084 Cl
HETATM   17  C   LIG     1      28.290  25.682  20.967  1.00  0.00     0.026 A 
HETATM   18  C   LIG     1      27.261  24.839  20.529  1.00  0.00     0.045 A 
HETATM   19 CL   LIG     1      25.978  25.513  19.531  1.00  0.00    -0.083 Cl
ENDBRANCH   3  12
TORSDOF 1
ENDMDL
