REMARK  1 active torsions:
REMARK  status: ('A' for Active; 'I' for Inactive)
REMARK    1  A    between atoms: C_7  and  C_8 
ROOT
HETATM    1  C   LIG     1       0.697   0.024   0.256  1.00  0.00     0.001 A 
HETATM    2  C   LIG     1       1.422  -1.170   0.155  1.00  0.00     0.040 A 
HETATM    3  C   LIG     1       2.817  -1.153   0.089  1.00  0.00     0.058 A 
HETATM    4 CL   LIG     1       3.674  -2.685  -0.036  1.00  0.00    -0.082 Cl
HETATM    5  C   LIG     1       3.507   0.069   0.122  1.00  0.00     0.079 A 
HETATM    6 CL   LIG     1       5.269   0.087   0.038  1.00  0.00    -0.081 Cl
HETATM    7  C   LIG     1       2.789   1.276   0.224  1.00  0.00     0.080 A 
HETATM    8 CL   LIG     1       3.653   2.814   0.271  1.00  0.00    -0.081 Cl
HETATM    9  C   LIG     1       1.382   1.255   0.291  1.00  0.00     0.068 A 
HETATM   10 CL   LIG     1       0.485   2.768   0.454  1.00  0.00    -0.082 Cl
ENDROOT
BRANCH   1  11
HETATM   11  C   LIG     1      -0.780  -0.037   0.308  1.00  0.00    -0.001 A 
HETATM   12  C   LIG     1      -1.452  -0.567   1.429  1.00  0.00     0.045 A 
HETATM   13  C   LIG     1      -2.850  -0.623   1.440  1.00  0.00     0.026 A 
HETATM   14 CL   LIG     1      -0.574  -1.137   2.844  1.00  0.00    -0.083 Cl
HETATM   15  C   LIG     1      -3.584  -0.157   0.346  1.00  0.00     0.025 A 
HETATM   16  C   LIG     1      -2.923   0.369  -0.767  1.00  0.00     0.035 A 
HETATM   17 CL   LIG     1      -3.846   0.953  -2.140  1.00  0.00    -0.084 Cl
HETATM   18  C   LIG     1      -1.526   0.428  -0.787  1.00  0.00     0.038 A 
ENDBRANCH   1  11
TORSDOF 1
