MODEL 1
REMARK VINA RESULT:      -5.9      0.000      0.000
REMARK  1 active torsions:
REMARK  status: ('A' for Active; 'I' for Inactive)
REMARK    1  A    between atoms: C_7  and  C_8 
ROOT
HETATM    1  C   LIG     1      16.796  35.872  22.222  1.00  0.00     0.001 A 
HETATM    2  C   LIG     1      15.892  34.812  22.080  1.00  0.00     0.040 A 
HETATM    3  C   LIG     1      15.568  34.317  20.815  1.00  0.00     0.058 A 
HETATM    4 CL   LIG     1      14.426  32.983  20.698  1.00  0.00    -0.082 Cl
HETATM    5  C   LIG     1      16.148  34.883  19.669  1.00  0.00     0.079 A 
HETATM    6 CL   LIG     1      15.737  34.256  18.073  1.00  0.00    -0.081 Cl
HETATM    7  C   LIG     1      17.059  35.949  19.800  1.00  0.00     0.080 A 
HETATM    8 CL   LIG     1      17.796  36.660  18.362  1.00  0.00    -0.081 Cl
HETATM    9  C   LIG     1      17.384  36.445  21.078  1.00  0.00     0.068 A 
HETATM   10 CL   LIG     1      18.554  37.759  21.241  1.00  0.00    -0.082 Cl
ENDROOT
BRANCH   1  11
HETATM   11  C   LIG     1      17.100  36.377  23.579  1.00  0.00    -0.001 A 
HETATM   12  C   LIG     1      16.825  37.711  23.943  1.00  0.00     0.045 A 
HETATM   13  C   LIG     1      17.138  38.161  25.230  1.00  0.00     0.026 A 
HETATM   14 CL   LIG     1      16.060  38.832  22.822  1.00  0.00    -0.083 Cl
HETATM   15  C   LIG     1      17.723  37.294  26.158  1.00  0.00     0.025 A 
HETATM   16  C   LIG     1      17.998  35.971  25.802  1.00  0.00     0.035 A 
HETATM   17 CL   LIG     1      18.733  34.885  26.968  1.00  0.00    -0.084 Cl
HETATM   18  C   LIG     1      17.689  35.514  24.517  1.00  0.00     0.038 A 
ENDBRANCH   1  11
TORSDOF 1
ENDMDL
MODEL 2
REMARK VINA RESULT:      -5.8      7.682     11.468
REMARK  1 active torsions:
REMARK  status: ('A' for Active; 'I' for Inactive)
REMARK    1  A    between atoms: C_7  and  C_8 
ROOT
HETATM    1  C   LIG     1      14.700  30.672  14.495  1.00  0.00     0.001 A 
HETATM    2  C   LIG     1      15.615  31.218  13.585  1.00  0.00     0.040 A 
HETATM    3  C   LIG     1      16.375  32.339  13.925  1.00  0.00     0.058 A 
HETATM    4 CL   LIG     1      17.508  32.980  12.741  1.00  0.00    -0.082 Cl
HETATM    5  C   LIG     1      16.226  32.932  15.188  1.00  0.00     0.079 A 
HETATM    6 CL   LIG     1      17.187  34.349  15.614  1.00  0.00    -0.081 Cl
HETATM    7  C   LIG     1      15.310  32.392  16.112  1.00  0.00     0.080 A 
HETATM    8 CL   LIG     1      15.123  33.131  17.703  1.00  0.00    -0.081 Cl
HETATM    9  C   LIG     1      14.546  31.260  15.766  1.00  0.00     0.068 A 
HETATM   10 CL   LIG     1      13.423  30.563  16.938  1.00  0.00    -0.082 Cl
ENDROOT
BRANCH   1  11
HETATM   11  C   LIG     1      13.904  29.493  14.090  1.00  0.00    -0.001 A 
HETATM   12  C   LIG     1      14.503  28.227  13.924  1.00  0.00     0.045 A 
HETATM   13  C   LIG     1      13.723  27.135  13.526  1.00  0.00     0.026 A 
HETATM   14 CL   LIG     1      16.216  27.970  14.236  1.00  0.00    -0.083 Cl
HETATM   15  C   LIG     1      12.354  27.293  13.293  1.00  0.00     0.025 A 
HETATM   16  C   LIG     1      11.756  28.545  13.456  1.00  0.00     0.035 A 
HETATM   17 CL   LIG     1      10.038  28.741  13.162  1.00  0.00    -0.084 Cl
HETATM   18  C   LIG     1      12.528  29.642  13.852  1.00  0.00     0.038 A 
ENDBRANCH   1  11
TORSDOF 1
ENDMDL
MODEL 3
REMARK VINA RESULT:      -5.5     15.278     17.285
REMARK  1 active torsions:
REMARK  status: ('A' for Active; 'I' for Inactive)
REMARK    1  A    between atoms: C_7  and  C_8 
ROOT
HETATM    1  C   LIG     1      24.247  21.645  22.739  1.00  0.00     0.001 A 
HETATM    2  C   LIG     1      25.117  22.634  23.216  1.00  0.00     0.040 A 
HETATM    3  C   LIG     1      25.267  22.850  24.587  1.00  0.00     0.058 A 
HETATM    4 CL   LIG     1      26.375  24.107  25.127  1.00  0.00    -0.082 Cl
HETATM    5  C   LIG     1      24.541  22.074  25.504  1.00  0.00     0.079 A 
HETATM    6 CL   LIG     1      24.732  22.350  27.236  1.00  0.00    -0.081 Cl
HETATM    7  C   LIG     1      23.664  21.076  25.037  1.00  0.00     0.080 A 
HETATM    8 CL   LIG     1      22.754  20.095  26.187  1.00  0.00    -0.081 Cl
HETATM    9  C   LIG     1      23.516  20.860  23.653  1.00  0.00     0.068 A 
HETATM   10 CL   LIG     1      22.442  19.585  23.070  1.00  0.00    -0.082 Cl
ENDROOT
BRANCH   1  11
HETATM   11  C   LIG     1      24.106  21.458  21.279  1.00  0.00    -0.001 A 
HETATM   12  C   LIG     1      23.042  22.046  20.565  1.00  0.00     0.045 A 
HETATM   13  C   LIG     1      22.929  21.838  19.186  1.00  0.00     0.026 A 
HETATM   14 CL   LIG     1      21.855  23.073  21.362  1.00  0.00    -0.083 Cl
HETATM   15  C   LIG     1      23.866  21.050  18.512  1.00  0.00     0.025 A 
HETATM   16  C   LIG     1      24.923  20.465  19.215  1.00  0.00     0.035 A 
HETATM   17 CL   LIG     1      26.098  19.476  18.367  1.00  0.00    -0.084 Cl
HETATM   18  C   LIG     1      25.042  20.667  20.593  1.00  0.00     0.038 A 
ENDBRANCH   1  11
TORSDOF 1
ENDMDL
MODEL 4
REMARK VINA RESULT:      -5.5     15.307     16.373
REMARK  1 active torsions:
REMARK  status: ('A' for Active; 'I' for Inactive)
REMARK    1  A    between atoms: C_7  and  C_8 
ROOT
HETATM    1  C   LIG     1      26.837  24.051  19.592  1.00  0.00     0.001 A 
HETATM    2  C   LIG     1      27.157  25.413  19.524  1.00  0.00     0.040 A 
HETATM    3  C   LIG     1      27.953  25.907  18.488  1.00  0.00     0.058 A 
HETATM    4 CL   LIG     1      28.320  27.628  18.454  1.00  0.00    -0.082 Cl
HETATM    5  C   LIG     1      28.443  25.036  17.502  1.00  0.00     0.079 A 
HETATM    6 CL   LIG     1      29.448  25.664  16.195  1.00  0.00    -0.081 Cl
HETATM    7  C   LIG     1      28.128  23.665  17.560  1.00  0.00     0.080 A 
HETATM    8 CL   LIG     1      28.738  22.568  16.320  1.00  0.00    -0.081 Cl
HETATM    9  C   LIG     1      27.324  23.170  18.606  1.00  0.00     0.068 A 
HETATM   10 CL   LIG     1      26.902  21.456  18.657  1.00  0.00    -0.082 Cl
ENDROOT
BRANCH   1  11
HETATM   11  C   LIG     1      26.004  23.566  20.714  1.00  0.00    -0.001 A 
HETATM   12  C   LIG     1      26.582  23.176  21.940  1.00  0.00     0.045 A 
HETATM   13  C   LIG     1      25.766  22.709  22.976  1.00  0.00     0.026 A 
HETATM   14 CL   LIG     1      28.316  23.293  22.219  1.00  0.00    -0.083 Cl
HETATM   15  C   LIG     1      24.382  22.625  22.803  1.00  0.00     0.025 A 
HETATM   16  C   LIG     1      23.805  23.010  21.590  1.00  0.00     0.035 A 
HETATM   17 CL   LIG     1      22.067  22.903  21.373  1.00  0.00    -0.084 Cl
HETATM   18  C   LIG     1      24.613  23.477  20.548  1.00  0.00     0.038 A 
ENDBRANCH   1  11
TORSDOF 1
ENDMDL
MODEL 5
REMARK VINA RESULT:      -5.3     15.400     16.682
REMARK  1 active torsions:
REMARK  status: ('A' for Active; 'I' for Inactive)
REMARK    1  A    between atoms: C_7  and  C_8 
ROOT
HETATM    1  C   LIG     1      26.307  23.529  19.468  1.00  0.00     0.001 A 
HETATM    2  C   LIG     1      25.254  22.979  18.728  1.00  0.00     0.040 A 
HETATM    3  C   LIG     1      24.174  22.369  19.371  1.00  0.00     0.058 A 
HETATM    4 CL   LIG     1      22.878  21.696  18.388  1.00  0.00    -0.082 Cl
HETATM    5  C   LIG     1      24.138  22.301  20.772  1.00  0.00     0.079 A 
HETATM    6 CL   LIG     1      22.773  21.530  21.581  1.00  0.00    -0.081 Cl
HETATM    7  C   LIG     1      25.192  22.852  21.527  1.00  0.00     0.080 A 
HETATM    8 CL   LIG     1      25.147  22.774  23.289  1.00  0.00    -0.081 Cl
HETATM    9  C   LIG     1      26.279  23.467  20.875  1.00  0.00     0.068 A 
HETATM   10 CL   LIG     1      27.582  24.188  21.825  1.00  0.00    -0.082 Cl
ENDROOT
BRANCH   1  11
HETATM   11  C   LIG     1      27.439  24.152  18.748  1.00  0.00    -0.001 A 
HETATM   12  C   LIG     1      28.419  23.368  18.104  1.00  0.00     0.045 A 
HETATM   13  C   LIG     1      29.485  23.989  17.444  1.00  0.00     0.026 A 
HETATM   14 CL   LIG     1      28.321  21.611  18.080  1.00  0.00    -0.083 Cl
HETATM   15  C   LIG     1      29.584  25.383  17.419  1.00  0.00     0.025 A 
HETATM   16  C   LIG     1      28.616  26.164  18.055  1.00  0.00     0.035 A 
HETATM   17 CL   LIG     1      28.742  27.914  18.023  1.00  0.00    -0.084 Cl
HETATM   18  C   LIG     1      27.548  25.552  18.718  1.00  0.00     0.038 A 
ENDBRANCH   1  11
TORSDOF 1
ENDMDL
MODEL 6
REMARK VINA RESULT:      -5.2      7.533     10.102
REMARK  1 active torsions:
REMARK  status: ('A' for Active; 'I' for Inactive)
REMARK    1  A    between atoms: C_7  and  C_8 
ROOT
HETATM    1  C   LIG     1      17.037  33.132  13.863  1.00  0.00     0.001 A 
HETATM    2  C   LIG     1      16.469  31.908  13.488  1.00  0.00     0.040 A 
HETATM    3  C   LIG     1      15.510  31.291  14.294  1.00  0.00     0.058 A 
HETATM    4 CL   LIG     1      14.831  29.754  13.771  1.00  0.00    -0.082 Cl
HETATM    5  C   LIG     1      15.105  31.897  15.494  1.00  0.00     0.079 A 
HETATM    6 CL   LIG     1      13.893  31.116  16.510  1.00  0.00    -0.081 Cl
HETATM    7  C   LIG     1      15.668  33.129  15.881  1.00  0.00     0.080 A 
HETATM    8 CL   LIG     1      15.158  33.897  17.386  1.00  0.00    -0.081 Cl
HETATM    9  C   LIG     1      16.635  33.748  15.065  1.00  0.00     0.068 A 
HETATM   10 CL   LIG     1      17.315  35.310  15.535  1.00  0.00    -0.082 Cl
ENDROOT
BRANCH   1  11
HETATM   11  C   LIG     1      18.061  33.744  12.989  1.00  0.00    -0.001 A 
HETATM   12  C   LIG     1      17.699  34.512  11.863  1.00  0.00     0.045 A 
HETATM   13  C   LIG     1      18.693  35.066  11.049  1.00  0.00     0.026 A 
HETATM   14 CL   LIG     1      16.013  34.825  11.466  1.00  0.00    -0.083 Cl
HETATM   15  C   LIG     1      20.043  34.861  11.345  1.00  0.00     0.025 A 
HETATM   16  C   LIG     1      20.407  34.101  12.459  1.00  0.00     0.035 A 
HETATM   17 CL   LIG     1      22.103  33.844  12.830  1.00  0.00    -0.084 Cl
HETATM   18  C   LIG     1      19.420  33.543  13.278  1.00  0.00     0.038 A 
ENDBRANCH   1  11
TORSDOF 1
ENDMDL
MODEL 7
REMARK VINA RESULT:      -5.2     15.426     17.235
REMARK  1 active torsions:
REMARK  status: ('A' for Active; 'I' for Inactive)
REMARK    1  A    between atoms: C_7  and  C_8 
ROOT
HETATM    1  C   LIG     1      23.916  21.243  22.738  1.00  0.00     0.001 A 
HETATM    2  C   LIG     1      23.105  20.449  23.560  1.00  0.00     0.040 A 
HETATM    3  C   LIG     1      23.175  20.560  24.950  1.00  0.00     0.058 A 
HETATM    4 CL   LIG     1      22.131  19.537  25.931  1.00  0.00    -0.082 Cl
HETATM    5  C   LIG     1      24.065  21.472  25.538  1.00  0.00     0.079 A 
HETATM    6 CL   LIG     1      24.151  21.610  27.295  1.00  0.00    -0.081 Cl
HETATM    7  C   LIG     1      24.885  22.276  24.723  1.00  0.00     0.080 A 
HETATM    8 CL   LIG     1      26.001  23.428  25.458  1.00  0.00    -0.081 Cl
HETATM    9  C   LIG     1      24.811  22.162  23.320  1.00  0.00     0.068 A 
HETATM   10 CL   LIG     1      25.815  23.196  22.298  1.00  0.00    -0.082 Cl
ENDROOT
BRANCH   1  11
HETATM   11  C   LIG     1      23.822  21.083  21.271  1.00  0.00    -0.001 A 
HETATM   12  C   LIG     1      22.928  21.861  20.505  1.00  0.00     0.045 A 
HETATM   13  C   LIG     1      22.854  21.675  19.120  1.00  0.00     0.026 A 
HETATM   14 CL   LIG     1      21.915  23.095  21.246  1.00  0.00    -0.083 Cl
HETATM   15  C   LIG     1      23.661  20.723  18.492  1.00  0.00     0.025 A 
HETATM   16  C   LIG     1      24.548  19.950  19.245  1.00  0.00     0.035 A 
HETATM   17 CL   LIG     1      25.559  18.754  18.455  1.00  0.00    -0.084 Cl
HETATM   18  C   LIG     1      24.628  20.128  20.630  1.00  0.00     0.038 A 
ENDBRANCH   1  11
TORSDOF 1
ENDMDL
MODEL 8
REMARK VINA RESULT:      -5.1     15.323     16.994
REMARK  1 active torsions:
REMARK  status: ('A' for Active; 'I' for Inactive)
REMARK    1  A    between atoms: C_7  and  C_8 
ROOT
HETATM    1  C   LIG     1      26.026  23.202  20.087  1.00  0.00     0.001 A 
HETATM    2  C   LIG     1      26.381  24.377  19.413  1.00  0.00     0.040 A 
HETATM    3  C   LIG     1      27.301  25.268  19.972  1.00  0.00     0.058 A 
HETATM    4 CL   LIG     1      27.709  26.729  19.079  1.00  0.00    -0.082 Cl
HETATM    5  C   LIG     1      27.877  24.991  21.221  1.00  0.00     0.079 A 
HETATM    6 CL   LIG     1      29.037  26.119  21.924  1.00  0.00    -0.081 Cl
HETATM    7  C   LIG     1      27.528  23.812  21.908  1.00  0.00     0.080 A 
HETATM    8 CL   LIG     1      28.255  23.458  23.476  1.00  0.00    -0.081 Cl
HETATM    9  C   LIG     1      26.601  22.916  21.341  1.00  0.00     0.068 A 
HETATM   10 CL   LIG     1      26.191  21.420  22.187  1.00  0.00    -0.082 Cl
ENDROOT
BRANCH   1  11
HETATM   11  C   LIG     1      25.037  22.293  19.467  1.00  0.00    -0.001 A 
HETATM   12  C   LIG     1      23.716  22.208  19.953  1.00  0.00     0.045 A 
HETATM   13  C   LIG     1      22.809  21.327  19.353  1.00  0.00     0.026 A 
HETATM   14 CL   LIG     1      23.158  23.213  21.286  1.00  0.00    -0.083 Cl
HETATM   15  C   LIG     1      23.207  20.530  18.275  1.00  0.00     0.025 A 
HETATM   16  C   LIG     1      24.515  20.610  17.791  1.00  0.00     0.035 A 
HETATM   17 CL   LIG     1      25.012  19.609  16.439  1.00  0.00    -0.084 Cl
HETATM   18  C   LIG     1      25.428  21.488  18.385  1.00  0.00     0.038 A 
ENDBRANCH   1  11
TORSDOF 1
ENDMDL
MODEL 9
REMARK VINA RESULT:      -5.1     15.606     16.653
REMARK  1 active torsions:
REMARK  status: ('A' for Active; 'I' for Inactive)
REMARK    1  A    between atoms: C_7  and  C_8 
ROOT
HETATM    1  C   LIG     1      24.704  21.387  22.037  1.00  0.00     0.001 A 
HETATM    2  C   LIG     1      25.806  20.622  21.638  1.00  0.00     0.040 A 
HETATM    3  C   LIG     1      25.997  20.295  20.294  1.00  0.00     0.058 A 
HETATM    4 CL   LIG     1      27.402  19.332  19.851  1.00  0.00    -0.082 Cl
HETATM    5  C   LIG     1      25.078  20.732  19.327  1.00  0.00     0.079 A 
HETATM    6 CL   LIG     1      25.321  20.316  17.630  1.00  0.00    -0.081 Cl
HETATM    7  C   LIG     1      23.965  21.502  19.717  1.00  0.00     0.080 A 
HETATM    8 CL   LIG     1      22.810  22.058  18.504  1.00  0.00    -0.081 Cl
HETATM    9  C   LIG     1      23.776  21.831  21.073  1.00  0.00     0.068 A 
HETATM   10 CL   LIG     1      22.399  22.827  21.555  1.00  0.00    -0.082 Cl
ENDROOT
BRANCH   1  11
HETATM   11  C   LIG     1      24.530  21.699  23.473  1.00  0.00    -0.001 A 
HETATM   12  C   LIG     1      23.673  20.933  24.290  1.00  0.00     0.045 A 
HETATM   13  C   LIG     1      23.521  21.264  25.641  1.00  0.00     0.026 A 
HETATM   14 CL   LIG     1      22.804  19.538  23.661  1.00  0.00    -0.083 Cl
HETATM   15  C   LIG     1      24.213  22.349  26.185  1.00  0.00     0.025 A 
HETATM   16  C   LIG     1      25.064  23.111  25.380  1.00  0.00     0.035 A 
HETATM   17 CL   LIG     1      25.932  24.473  26.064  1.00  0.00    -0.084 Cl
HETATM   18  C   LIG     1      25.221  22.788  24.028  1.00  0.00     0.038 A 
ENDBRANCH   1  11
TORSDOF 1
ENDMDL
MODEL 10
REMARK VINA RESULT:      -5.1     15.342     16.176
REMARK  1 active torsions:
REMARK  status: ('A' for Active; 'I' for Inactive)
REMARK    1  A    between atoms: C_7  and  C_8 
ROOT
HETATM    1  C   LIG     1      26.052  23.145  20.456  1.00  0.00     0.001 A 
HETATM    2  C   LIG     1      24.748  23.221  20.962  1.00  0.00     0.040 A 
HETATM    3  C   LIG     1      23.711  22.495  20.371  1.00  0.00     0.058 A 
HETATM    4 CL   LIG     1      22.094  22.630  21.052  1.00  0.00    -0.082 Cl
HETATM    5  C   LIG     1      23.969  21.681  19.258  1.00  0.00     0.079 A 
HETATM    6 CL   LIG     1      22.657  20.766  18.513  1.00  0.00    -0.081 Cl
HETATM    7  C   LIG     1      25.276  21.596  18.740  1.00  0.00     0.080 A 
HETATM    8 CL   LIG     1      25.606  20.569  17.344  1.00  0.00    -0.081 Cl
HETATM    9  C   LIG     1      26.320  22.329  19.339  1.00  0.00     0.068 A 
HETATM   10 CL   LIG     1      27.965  22.194  18.711  1.00  0.00    -0.082 Cl
ENDROOT
BRANCH   1  11
HETATM   11  C   LIG     1      27.118  23.941  21.102  1.00  0.00    -0.001 A 
HETATM   12  C   LIG     1      27.520  25.188  20.579  1.00  0.00     0.045 A 
HETATM   13  C   LIG     1      28.542  25.909  21.206  1.00  0.00     0.026 A 
HETATM   14 CL   LIG     1      26.742  25.886  19.163  1.00  0.00    -0.083 Cl
HETATM   15  C   LIG     1      29.167  25.400  22.348  1.00  0.00     0.025 A 
HETATM   16  C   LIG     1      28.773  24.165  22.870  1.00  0.00     0.035 A 
HETATM   17 CL   LIG     1      29.559  23.528  24.303  1.00  0.00    -0.084 Cl
HETATM   18  C   LIG     1      27.753  23.437  22.249  1.00  0.00     0.038 A 
ENDBRANCH   1  11
TORSDOF 1
ENDMDL
MODEL 11
REMARK VINA RESULT:      -5.0     15.385     16.781
REMARK  1 active torsions:
REMARK  status: ('A' for Active; 'I' for Inactive)
REMARK    1  A    between atoms: C_7  and  C_8 
ROOT
HETATM    1  C   LIG     1      26.592  23.598  20.108  1.00  0.00     0.001 A 
HETATM    2  C   LIG     1      27.030  23.533  21.437  1.00  0.00     0.040 A 
HETATM    3  C   LIG     1      26.209  22.995  22.431  1.00  0.00     0.058 A 
HETATM    4 CL   LIG     1      26.813  22.939  24.083  1.00  0.00    -0.082 Cl
HETATM    5  C   LIG     1      24.932  22.515  22.104  1.00  0.00     0.079 A 
HETATM    6 CL   LIG     1      23.898  21.836  23.362  1.00  0.00    -0.081 Cl
HETATM    7  C   LIG     1      24.482  22.574  20.771  1.00  0.00     0.080 A 
HETATM    8 CL   LIG     1      22.878  21.966  20.355  1.00  0.00    -0.081 Cl
HETATM    9  C   LIG     1      25.312  23.117  19.771  1.00  0.00     0.068 A 
HETATM   10 CL   LIG     1      24.759  23.158  18.093  1.00  0.00    -0.082 Cl
ENDROOT
BRANCH   1  11
HETATM   11  C   LIG     1      27.486  24.189  19.088  1.00  0.00    -0.001 A 
HETATM   12  C   LIG     1      28.180  23.380  18.164  1.00  0.00     0.045 A 
HETATM   13  C   LIG     1      29.028  23.970  17.221  1.00  0.00     0.026 A 
HETATM   14 CL   LIG     1      27.982  21.631  18.143  1.00  0.00    -0.083 Cl
HETATM   15  C   LIG     1      29.192  25.357  17.190  1.00  0.00     0.025 A 
HETATM   16  C   LIG     1      28.507  26.164  18.102  1.00  0.00     0.035 A 
HETATM   17 CL   LIG     1      28.715  27.905  18.061  1.00  0.00    -0.084 Cl
HETATM   18  C   LIG     1      27.658  25.582  19.049  1.00  0.00     0.038 A 
ENDBRANCH   1  11
TORSDOF 1
ENDMDL
MODEL 12
REMARK VINA RESULT:      -4.8     15.076     16.153
REMARK  1 active torsions:
REMARK  status: ('A' for Active; 'I' for Inactive)
REMARK    1  A    between atoms: C_7  and  C_8 
ROOT
HETATM    1  C   LIG     1      25.483  22.725  23.709  1.00  0.00     0.001 A 
HETATM    2  C   LIG     1      24.179  22.764  23.202  1.00  0.00     0.040 A 
HETATM    3  C   LIG     1      23.951  22.785  21.824  1.00  0.00     0.058 A 
HETATM    4 CL   LIG     1      22.289  22.834  21.245  1.00  0.00    -0.082 Cl
HETATM    5  C   LIG     1      25.034  22.768  20.932  1.00  0.00     0.079 A 
HETATM    6 CL   LIG     1      24.743  22.795  19.192  1.00  0.00    -0.081 Cl
HETATM    7  C   LIG     1      26.351  22.728  21.430  1.00  0.00     0.080 A 
HETATM    8 CL   LIG     1      27.716  22.702  20.312  1.00  0.00    -0.081 Cl
HETATM    9  C   LIG     1      26.577  22.706  22.821  1.00  0.00     0.068 A 
HETATM   10 CL   LIG     1      28.228  22.621  23.443  1.00  0.00    -0.082 Cl
ENDROOT
BRANCH   1  11
HETATM   11  C   LIG     1      25.682  22.719  25.175  1.00  0.00    -0.001 A 
HETATM   12  C   LIG     1      25.579  21.528  25.923  1.00  0.00     0.045 A 
HETATM   13  C   LIG     1      25.759  21.560  27.310  1.00  0.00     0.026 A 
HETATM   14 CL   LIG     1      25.260  19.979  25.149  1.00  0.00    -0.083 Cl
HETATM   15  C   LIG     1      26.039  22.766  27.958  1.00  0.00     0.025 A 
HETATM   16  C   LIG     1      26.142  23.949  27.222  1.00  0.00     0.035 A 
HETATM   17 CL   LIG     1      26.492  25.462  28.037  1.00  0.00    -0.084 Cl
HETATM   18  C   LIG     1      25.963  23.926  25.835  1.00  0.00     0.038 A 
ENDBRANCH   1  11
TORSDOF 1
ENDMDL
MODEL 13
REMARK VINA RESULT:      -4.7     15.759     17.268
REMARK  1 active torsions:
REMARK  status: ('A' for Active; 'I' for Inactive)
REMARK    1  A    between atoms: C_7  and  C_8 
ROOT
HETATM    1  C   LIG     1      26.639  23.119  19.774  1.00  0.00     0.001 A 
HETATM    2  C   LIG     1      27.283  23.189  21.016  1.00  0.00     0.040 A 
HETATM    3  C   LIG     1      26.573  22.980  22.200  1.00  0.00     0.058 A 
HETATM    4 CL   LIG     1      27.437  23.080  23.730  1.00  0.00    -0.082 Cl
HETATM    5  C   LIG     1      25.199  22.698  22.155  1.00  0.00     0.079 A 
HETATM    6 CL   LIG     1      24.304  22.436  23.652  1.00  0.00    -0.081 Cl
HETATM    7  C   LIG     1      24.540  22.625  20.912  1.00  0.00     0.080 A 
HETATM    8 CL   LIG     1      22.813  22.266  20.850  1.00  0.00    -0.081 Cl
HETATM    9  C   LIG     1      25.260  22.836  19.720  1.00  0.00     0.068 A 
HETATM   10 CL   LIG     1      24.439  22.708  18.161  1.00  0.00    -0.082 Cl
ENDROOT
BRANCH   1  11
HETATM   11  C   LIG     1      27.424  23.362  18.545  1.00  0.00    -0.001 A 
HETATM   12  C   LIG     1      27.624  24.667  18.049  1.00  0.00     0.045 A 
HETATM   13  C   LIG     1      28.361  24.861  16.875  1.00  0.00     0.026 A 
HETATM   14 CL   LIG     1      26.994  26.078  18.892  1.00  0.00    -0.083 Cl
HETATM   15  C   LIG     1      28.899  23.767  16.191  1.00  0.00     0.025 A 
HETATM   16  C   LIG     1      28.703  22.472  16.678  1.00  0.00     0.035 A 
HETATM   17 CL   LIG     1      29.379  21.101  15.817  1.00  0.00    -0.084 Cl
HETATM   18  C   LIG     1      27.968  22.270  17.850  1.00  0.00     0.038 A 
ENDBRANCH   1  11
TORSDOF 1
ENDMDL
MODEL 14
REMARK VINA RESULT:      -4.6     15.543     16.368
REMARK  1 active torsions:
REMARK  status: ('A' for Active; 'I' for Inactive)
REMARK    1  A    between atoms: C_7  and  C_8 
ROOT
HETATM    1  C   LIG     1      26.101  22.818  21.389  1.00  0.00     0.001 A 
HETATM    2  C   LIG     1      24.749  23.002  21.704  1.00  0.00     0.040 A 
HETATM    3  C   LIG     1      23.750  22.618  20.808  1.00  0.00     0.058 A 
HETATM    4 CL   LIG     1      22.068  22.873  21.259  1.00  0.00    -0.082 Cl
HETATM    5  C   LIG     1      24.095  22.042  19.575  1.00  0.00     0.079 A 
HETATM    6 CL   LIG     1      22.830  21.558  18.445  1.00  0.00    -0.081 Cl
HETATM    7  C   LIG     1      25.451  21.851  19.247  1.00  0.00     0.080 A 
HETATM    8 CL   LIG     1      25.889  21.122  17.701  1.00  0.00    -0.081 Cl
HETATM    9  C   LIG     1      26.457  22.239  20.154  1.00  0.00     0.068 A 
HETATM   10 CL   LIG     1      28.156  21.967  19.755  1.00  0.00    -0.082 Cl
ENDROOT
BRANCH   1  11
HETATM   11  C   LIG     1      27.129  23.252  22.360  1.00  0.00    -0.001 A 
HETATM   12  C   LIG     1      27.867  24.438  22.163  1.00  0.00     0.045 A 
HETATM   13  C   LIG     1      28.842  24.813  23.093  1.00  0.00     0.026 A 
HETATM   14 CL   LIG     1      27.572  25.488  20.781  1.00  0.00    -0.083 Cl
HETATM   15  C   LIG     1      29.089  24.019  24.217  1.00  0.00     0.025 A 
HETATM   16  C   LIG     1      28.360  22.844  24.416  1.00  0.00     0.035 A 
HETATM   17 CL   LIG     1      28.671  21.848  25.827  1.00  0.00    -0.084 Cl
HETATM   18  C   LIG     1      27.384  22.461  23.491  1.00  0.00     0.038 A 
ENDBRANCH   1  11
TORSDOF 1
ENDMDL
MODEL 15
REMARK VINA RESULT:      -4.5     15.632     16.595
REMARK  1 active torsions:
REMARK  status: ('A' for Active; 'I' for Inactive)
REMARK    1  A    between atoms: C_7  and  C_8 
ROOT
HETATM    1  C   LIG     1      25.201  21.643  21.966  1.00  0.00     0.001 A 
HETATM    2  C   LIG     1      26.163  20.714  21.552  1.00  0.00     0.040 A 
HETATM    3  C   LIG     1      26.109  20.153  20.274  1.00  0.00     0.058 A 
HETATM    4 CL   LIG     1      27.346  18.991  19.809  1.00  0.00    -0.082 Cl
HETATM    5  C   LIG     1      25.081  20.518  19.390  1.00  0.00     0.079 A 
HETATM    6 CL   LIG     1      25.015  19.808  17.776  1.00  0.00    -0.081 Cl
HETATM    7  C   LIG     1      24.108  21.452  19.794  1.00  0.00     0.080 A 
HETATM    8 CL   LIG     1      22.818  21.918  18.684  1.00  0.00    -0.081 Cl
HETATM    9  C   LIG     1      24.167  22.016  21.084  1.00  0.00     0.068 A 
HETATM   10 CL   LIG     1      22.966  23.214  21.577  1.00  0.00    -0.082 Cl
ENDROOT
BRANCH   1  11
HETATM   11  C   LIG     1      25.286  22.202  23.333  1.00  0.00    -0.001 A 
HETATM   12  C   LIG     1      26.246  23.180  23.666  1.00  0.00     0.045 A 
HETATM   13  C   LIG     1      26.308  23.677  24.972  1.00  0.00     0.026 A 
HETATM   14 CL   LIG     1      27.359  23.824  22.464  1.00  0.00    -0.083 Cl
HETATM   15  C   LIG     1      25.425  23.209  25.949  1.00  0.00     0.025 A 
HETATM   16  C   LIG     1      24.472  22.240  25.624  1.00  0.00     0.035 A 
HETATM   17 CL   LIG     1      23.365  21.654  26.852  1.00  0.00    -0.084 Cl
HETATM   18  C   LIG     1      24.403  21.737  24.321  1.00  0.00     0.038 A 
ENDBRANCH   1  11
TORSDOF 1
ENDMDL
MODEL 16
REMARK VINA RESULT:      -4.5     16.012     17.538
REMARK  1 active torsions:
REMARK  status: ('A' for Active; 'I' for Inactive)
REMARK    1  A    between atoms: C_7  and  C_8 
ROOT
HETATM    1  C   LIG     1      27.445  25.016  29.073  1.00  0.00     0.001 A 
HETATM    2  C   LIG     1      27.065  25.698  30.235  1.00  0.00     0.040 A 
HETATM    3  C   LIG     1      27.575  26.968  30.515  1.00  0.00     0.058 A 
HETATM    4 CL   LIG     1      27.059  27.777  31.991  1.00  0.00    -0.082 Cl
HETATM    5  C   LIG     1      28.479  27.573  29.629  1.00  0.00     0.079 A 
HETATM    6 CL   LIG     1      29.122  29.177  29.985  1.00  0.00    -0.081 Cl
HETATM    7  C   LIG     1      28.869  26.897  28.456  1.00  0.00     0.080 A 
HETATM    8 CL   LIG     1      30.002  27.656  27.336  1.00  0.00    -0.081 Cl
HETATM    9  C   LIG     1      28.352  25.617  28.177  1.00  0.00     0.068 A 
HETATM   10 CL   LIG     1      28.814  24.785  26.689  1.00  0.00    -0.082 Cl
ENDROOT
BRANCH   1  11
HETATM   11  C   LIG     1      26.894  23.667  28.821  1.00  0.00    -0.001 A 
HETATM   12  C   LIG     1      27.474  22.519  29.400  1.00  0.00     0.045 A 
HETATM   13  C   LIG     1      26.936  21.256  29.130  1.00  0.00     0.026 A 
HETATM   14 CL   LIG     1      28.851  22.634  30.490  1.00  0.00    -0.083 Cl
HETATM   15  C   LIG     1      25.827  21.125  28.290  1.00  0.00     0.025 A 
HETATM   16  C   LIG     1      25.249  22.259  27.714  1.00  0.00     0.035 A 
HETATM   17 CL   LIG     1      23.857  22.094  26.658  1.00  0.00    -0.084 Cl
HETATM   18  C   LIG     1      25.780  23.526  27.977  1.00  0.00     0.038 A 
ENDBRANCH   1  11
TORSDOF 1
ENDMDL
MODEL 17
REMARK VINA RESULT:      -4.5     15.590     16.912
REMARK  1 active torsions:
REMARK  status: ('A' for Active; 'I' for Inactive)
REMARK    1  A    between atoms: C_7  and  C_8 
ROOT
HETATM    1  C   LIG     1      27.606  24.594  27.979  1.00  0.00     0.001 A 
HETATM    2  C   LIG     1      26.522  24.524  27.094  1.00  0.00     0.040 A 
HETATM    3  C   LIG     1      26.281  23.365  26.353  1.00  0.00     0.058 A 
HETATM    4 CL   LIG     1      24.904  23.336  25.258  1.00  0.00    -0.082 Cl
HETATM    5  C   LIG     1      27.129  22.255  26.490  1.00  0.00     0.079 A 
HETATM    6 CL   LIG     1      26.822  20.792  25.552  1.00  0.00    -0.081 Cl
HETATM    7  C   LIG     1      28.221  22.313  27.377  1.00  0.00     0.080 A 
HETATM    8 CL   LIG     1      29.287  20.917  27.556  1.00  0.00    -0.081 Cl
HETATM    9  C   LIG     1      28.461  23.483  28.123  1.00  0.00     0.068 A 
HETATM   10 CL   LIG     1      29.811  23.542  29.261  1.00  0.00    -0.082 Cl
ENDROOT
BRANCH   1  11
HETATM   11  C   LIG     1      27.835  25.845  28.734  1.00  0.00    -0.001 A 
HETATM   12  C   LIG     1      28.736  26.826  28.269  1.00  0.00     0.045 A 
HETATM   13  C   LIG     1      28.940  27.992  29.014  1.00  0.00     0.026 A 
HETATM   14 CL   LIG     1      29.597  26.637  26.745  1.00  0.00    -0.083 Cl
HETATM   15  C   LIG     1      28.257  28.191  30.217  1.00  0.00     0.025 A 
HETATM   16  C   LIG     1      27.363  27.223  30.681  1.00  0.00     0.035 A 
HETATM   17 CL   LIG     1      26.506  27.473  32.191  1.00  0.00    -0.084 Cl
HETATM   18  C   LIG     1      27.153  26.053  29.943  1.00  0.00     0.038 A 
ENDBRANCH   1  11
TORSDOF 1
ENDMDL
MODEL 18
REMARK VINA RESULT:      -4.4     15.652     16.809
REMARK  1 active torsions:
REMARK  status: ('A' for Active; 'I' for Inactive)
REMARK    1  A    between atoms: C_7  and  C_8 
ROOT
HETATM    1  C   LIG     1      25.291  22.068  22.191  1.00  0.00     0.001 A 
HETATM    2  C   LIG     1      26.276  23.051  22.036  1.00  0.00     0.040 A 
HETATM    3  C   LIG     1      26.424  23.727  20.823  1.00  0.00     0.058 A 
HETATM    4 CL   LIG     1      27.678  24.954  20.688  1.00  0.00    -0.082 Cl
HETATM    5  C   LIG     1      25.581  23.422  19.742  1.00  0.00     0.079 A 
HETATM    6 CL   LIG     1      25.771  24.276  18.210  1.00  0.00    -0.081 Cl
HETATM    7  C   LIG     1      24.587  22.435  19.886  1.00  0.00     0.080 A 
HETATM    8 CL   LIG     1      23.523  22.052  18.531  1.00  0.00    -0.081 Cl
HETATM    9  C   LIG     1      24.441  21.756  21.112  1.00  0.00     0.068 A 
HETATM   10 CL   LIG     1      23.170  20.544  21.301  1.00  0.00    -0.082 Cl
ENDROOT
BRANCH   1  11
HETATM   11  C   LIG     1      25.178  21.365  23.488  1.00  0.00    -0.001 A 
HETATM   12  C   LIG     1      25.817  20.127  23.708  1.00  0.00     0.045 A 
HETATM   13  C   LIG     1      25.678  19.482  24.942  1.00  0.00     0.026 A 
HETATM   14 CL   LIG     1      26.821  19.376  22.472  1.00  0.00    -0.083 Cl
HETATM   15  C   LIG     1      24.909  20.058  25.957  1.00  0.00     0.025 A 
HETATM   16  C   LIG     1      24.275  21.284  25.744  1.00  0.00     0.035 A 
HETATM   17 CL   LIG     1      23.310  22.006  27.020  1.00  0.00    -0.084 Cl
HETATM   18  C   LIG     1      24.407  21.936  24.514  1.00  0.00     0.038 A 
ENDBRANCH   1  11
TORSDOF 1
ENDMDL
MODEL 19
REMARK VINA RESULT:      -4.4     15.219     16.246
REMARK  1 active torsions:
REMARK  status: ('A' for Active; 'I' for Inactive)
REMARK    1  A    between atoms: C_7  and  C_8 
ROOT
HETATM    1  C   LIG     1      25.394  22.516  23.885  1.00  0.00     0.001 A 
HETATM    2  C   LIG     1      24.132  22.773  23.335  1.00  0.00     0.040 A 
HETATM    3  C   LIG     1      23.929  22.708  21.955  1.00  0.00     0.058 A 
HETATM    4 CL   LIG     1      22.320  23.040  21.322  1.00  0.00    -0.082 Cl
HETATM    5  C   LIG     1      24.996  22.383  21.103  1.00  0.00     0.079 A 
HETATM    6 CL   LIG     1      24.736  22.302  19.360  1.00  0.00    -0.081 Cl
HETATM    7  C   LIG     1      26.269  22.122  21.643  1.00  0.00     0.080 A 
HETATM    8 CL   LIG     1      27.612  21.708  20.576  1.00  0.00    -0.081 Cl
HETATM    9  C   LIG     1      26.470  22.188  23.036  1.00  0.00     0.068 A 
HETATM   10 CL   LIG     1      28.060  21.826  23.715  1.00  0.00    -0.082 Cl
ENDROOT
BRANCH   1  11
HETATM   11  C   LIG     1      25.570  22.611  25.350  1.00  0.00    -0.001 A 
HETATM   12  C   LIG     1      26.300  23.667  25.933  1.00  0.00     0.045 A 
HETATM   13  C   LIG     1      26.460  23.719  27.322  1.00  0.00     0.026 A 
HETATM   14 CL   LIG     1      26.997  24.954  24.955  1.00  0.00    -0.083 Cl
HETATM   15  C   LIG     1      25.900  22.730  28.135  1.00  0.00     0.025 A 
HETATM   16  C   LIG     1      25.176  21.681  27.562  1.00  0.00     0.035 A 
HETATM   17 CL   LIG     1      24.474  20.440  28.584  1.00  0.00    -0.084 Cl
HETATM   18  C   LIG     1      25.012  21.621  26.175  1.00  0.00     0.038 A 
ENDBRANCH   1  11
TORSDOF 1
ENDMDL
MODEL 20
REMARK VINA RESULT:      -4.3     15.352     16.424
REMARK  1 active torsions:
REMARK  status: ('A' for Active; 'I' for Inactive)
REMARK    1  A    between atoms: C_7  and  C_8 
ROOT
HETATM    1  C   LIG     1      25.981  22.810  22.706  1.00  0.00     0.001 A 
HETATM    2  C   LIG     1      26.929  23.411  21.869  1.00  0.00     0.040 A 
HETATM    3  C   LIG     1      26.664  23.599  20.511  1.00  0.00     0.058 A 
HETATM    4 CL   LIG     1      27.894  24.361  19.509  1.00  0.00    -0.082 Cl
HETATM    5  C   LIG     1      25.437  23.182  19.971  1.00  0.00     0.079 A 
HETATM    6 CL   LIG     1      25.105  23.421  18.254  1.00  0.00    -0.081 Cl
HETATM    7  C   LIG     1      24.475  22.578  20.802  1.00  0.00     0.080 A 
HETATM    8 CL   LIG     1      22.929  22.057  20.128  1.00  0.00    -0.081 Cl
HETATM    9  C   LIG     1      24.746  22.390  22.172  1.00  0.00     0.068 A 
HETATM   10 CL   LIG     1      23.524  21.663  23.220  1.00  0.00    -0.082 Cl
ENDROOT
BRANCH   1  11
HETATM   11  C   LIG     1      26.307  22.616  24.135  1.00  0.00    -0.001 A 
HETATM   12  C   LIG     1      26.782  21.378  24.616  1.00  0.00     0.045 A 
HETATM   13  C   LIG     1      27.069  21.224  25.977  1.00  0.00     0.026 A 
HETATM   14 CL   LIG     1      27.060  20.016  23.537  1.00  0.00    -0.083 Cl
HETATM   15  C   LIG     1      26.885  22.289  26.863  1.00  0.00     0.025 A 
HETATM   16  C   LIG     1      26.415  23.518  26.391  1.00  0.00     0.035 A 
HETATM   17 CL   LIG     1      26.185  24.854  27.504  1.00  0.00    -0.084 Cl
HETATM   18  C   LIG     1      26.125  23.680  25.033  1.00  0.00     0.038 A 
ENDBRANCH   1  11
TORSDOF 1
ENDMDL
