MODEL 1
REMARK VINA RESULT:      -7.5      0.000      0.000
REMARK  1 active torsions:
REMARK  status: ('A' for Active; 'I' for Inactive)
REMARK    1  A    between atoms: O_1  and  C_2 
ROOT
HETATM    1  C   LIG     1      17.433  36.001  22.596  1.00  0.00     0.087 A 
HETATM    2  C   LIG     1      17.496  35.989  24.017  1.00  0.00     0.008 A 
HETATM    3  C   LIG     1      17.947  37.151  24.702  1.00  0.00    -0.022 A 
HETATM    4  C   LIG     1      18.018  37.161  26.104  1.00  0.00     0.012 A 
HETATM    5  C   LIG     1      17.648  36.036  26.837  1.00  0.00     0.001 A 
HETATM    6  C   LIG     1      17.205  34.890  26.180  1.00  0.00     0.001 A 
HETATM    7  C   LIG     1      17.128  34.861  24.785  1.00  0.00     0.015 A 
HETATM    8  C   LIG     1      18.324  38.292  23.985  1.00  0.00     0.024 A 
HETATM    9  C   LIG     1      18.263  38.307  22.590  1.00  0.00    -0.022 A 
HETATM   10  C   LIG     1      18.643  39.459  21.880  1.00  0.00     0.012 A 
HETATM   11  C   LIG     1      18.583  39.479  20.486  1.00  0.00     0.001 A 
HETATM   12  C   LIG     1      18.145  38.354  19.788  1.00  0.00     0.001 A 
HETATM   13  C   LIG     1      17.764  37.201  20.480  1.00  0.00     0.015 A 
HETATM   14  C   LIG     1      17.816  37.161  21.887  1.00  0.00     0.008 A 
ENDROOT
BRANCH   1  15
HETATM   15  O   LIG     1      16.998  34.892  21.856  1.00  0.00    -0.359 OA
HETATM   16  H   LIG     1      17.537  34.418  21.147  1.00  0.00     0.217 HD
ENDBRANCH   1  15
TORSDOF 1
ENDMDL
MODEL 2
REMARK VINA RESULT:      -7.5      0.040      4.714
REMARK  1 active torsions:
REMARK  status: ('A' for Active; 'I' for Inactive)
REMARK    1  A    between atoms: O_1  and  C_2 
ROOT
HETATM    1  C   LIG     1      17.436  36.002  22.589  1.00  0.00     0.087 A 
HETATM    2  C   LIG     1      17.820  37.161  21.859  1.00  0.00     0.008 A 
HETATM    3  C   LIG     1      18.266  38.311  22.567  1.00  0.00    -0.022 A 
HETATM    4  C   LIG     1      18.649  39.467  21.867  1.00  0.00     0.012 A 
HETATM    5  C   LIG     1      18.597  39.497  20.475  1.00  0.00     0.001 A 
HETATM    6  C   LIG     1      18.162  38.379  19.768  1.00  0.00     0.001 A 
HETATM    7  C   LIG     1      17.776  37.220  20.447  1.00  0.00     0.015 A 
HETATM    8  C   LIG     1      18.326  38.301  23.965  1.00  0.00     0.024 A 
HETATM    9  C   LIG     1      17.950  37.165  24.684  1.00  0.00    -0.022 A 
HETATM   10  C   LIG     1      18.015  37.166  26.088  1.00  0.00     0.012 A 
HETATM   11  C   LIG     1      17.641  36.033  26.811  1.00  0.00     0.001 A 
HETATM   12  C   LIG     1      17.200  34.890  26.144  1.00  0.00     0.001 A 
HETATM   13  C   LIG     1      17.130  34.874  24.748  1.00  0.00     0.015 A 
HETATM   14  C   LIG     1      17.503  36.008  23.999  1.00  0.00     0.008 A 
ENDROOT
BRANCH   1  15
HETATM   15  O   LIG     1      16.988  34.833  21.956  1.00  0.00    -0.359 OA
HETATM   16  H   LIG     1      16.217  34.263  22.268  1.00  0.00     0.217 HD
ENDBRANCH   1  15
TORSDOF 1
ENDMDL
MODEL 3
REMARK VINA RESULT:      -7.1      1.757      2.961
REMARK  1 active torsions:
REMARK  status: ('A' for Active; 'I' for Inactive)
REMARK    1  A    between atoms: O_1  and  C_2 
ROOT
HETATM    1  C   LIG     1      18.342  38.750  22.229  1.00  0.00     0.087 A 
HETATM    2  C   LIG     1      17.887  37.766  23.150  1.00  0.00     0.008 A 
HETATM    3  C   LIG     1      17.568  36.464  22.674  1.00  0.00    -0.022 A 
HETATM    4  C   LIG     1      17.116  35.477  23.565  1.00  0.00     0.012 A 
HETATM    5  C   LIG     1      16.977  35.763  24.922  1.00  0.00     0.001 A 
HETATM    6  C   LIG     1      17.285  37.033  25.402  1.00  0.00     0.001 A 
HETATM    7  C   LIG     1      17.735  38.028  24.531  1.00  0.00     0.015 A 
HETATM    8  C   LIG     1      17.700  36.156  21.315  1.00  0.00     0.024 A 
HETATM    9  C   LIG     1      18.147  37.120  20.409  1.00  0.00    -0.022 A 
HETATM   10  C   LIG     1      18.277  36.800  19.047  1.00  0.00     0.012 A 
HETATM   11  C   LIG     1      18.723  37.759  18.137  1.00  0.00     0.001 A 
HETATM   12  C   LIG     1      19.043  39.044  18.575  1.00  0.00     0.001 A 
HETATM   13  C   LIG     1      18.919  39.378  19.927  1.00  0.00     0.015 A 
HETATM   14  C   LIG     1      18.470  38.423  20.861  1.00  0.00     0.008 A 
ENDROOT
BRANCH   1  15
HETATM   15  O   LIG     1      18.674  40.052  22.628  1.00  0.00    -0.359 OA
HETATM   16  H   LIG     1      18.755  40.364  23.584  1.00  0.00     0.217 HD
ENDBRANCH   1  15
TORSDOF 1
ENDMDL
MODEL 4
REMARK VINA RESULT:      -6.9      1.756      5.509
REMARK  1 active torsions:
REMARK  status: ('A' for Active; 'I' for Inactive)
REMARK    1  A    between atoms: O_1  and  C_2 
ROOT
HETATM    1  C   LIG     1      18.360  38.767  22.248  1.00  0.00     0.087 A 
HETATM    2  C   LIG     1      18.489  38.452  20.866  1.00  0.00     0.008 A 
HETATM    3  C   LIG     1      18.149  37.146  20.416  1.00  0.00    -0.022 A 
HETATM    4  C   LIG     1      18.269  36.814  19.057  1.00  0.00     0.012 A 
HETATM    5  C   LIG     1      18.721  37.758  18.138  1.00  0.00     0.001 A 
HETATM    6  C   LIG     1      19.058  39.041  18.564  1.00  0.00     0.001 A 
HETATM    7  C   LIG     1      18.946  39.390  19.912  1.00  0.00     0.015 A 
HETATM    8  C   LIG     1      17.693  36.183  21.324  1.00  0.00     0.024 A 
HETATM    9  C   LIG     1      17.565  36.489  22.680  1.00  0.00    -0.022 A 
HETATM   10  C   LIG     1      17.106  35.514  23.581  1.00  0.00     0.012 A 
HETATM   11  C   LIG     1      16.976  35.814  24.938  1.00  0.00     0.001 A 
HETATM   12  C   LIG     1      17.302  37.086  25.408  1.00  0.00     0.001 A 
HETATM   13  C   LIG     1      17.761  38.066  24.523  1.00  0.00     0.015 A 
HETATM   14  C   LIG     1      17.898  37.783  23.149  1.00  0.00     0.008 A 
ENDROOT
BRANCH   1  15
HETATM   15  O   LIG     1      18.677  40.033  22.760  1.00  0.00    -0.359 OA
HETATM   16  H   LIG     1      18.057  40.610  23.307  1.00  0.00     0.217 HD
ENDBRANCH   1  15
TORSDOF 1
ENDMDL
MODEL 5
REMARK VINA RESULT:      -6.6      2.302      3.372
REMARK  1 active torsions:
REMARK  status: ('A' for Active; 'I' for Inactive)
REMARK    1  A    between atoms: O_1  and  C_2 
ROOT
HETATM    1  C   LIG     1      16.370  37.316  23.166  1.00  0.00     0.087 A 
HETATM    2  C   LIG     1      17.027  37.020  24.392  1.00  0.00     0.008 A 
HETATM    3  C   LIG     1      17.457  35.688  24.646  1.00  0.00    -0.022 A 
HETATM    4  C   LIG     1      18.107  35.373  25.850  1.00  0.00     0.012 A 
HETATM    5  C   LIG     1      18.338  36.361  26.806  1.00  0.00     0.001 A 
HETATM    6  C   LIG     1      17.922  37.669  26.571  1.00  0.00     0.001 A 
HETATM    7  C   LIG     1      17.274  38.002  25.379  1.00  0.00     0.015 A 
HETATM    8  C   LIG     1      17.234  34.681  23.700  1.00  0.00     0.024 A 
HETATM    9  C   LIG     1      16.590  34.969  22.495  1.00  0.00    -0.022 A 
HETATM   10  C   LIG     1      16.373  33.950  21.552  1.00  0.00     0.012 A 
HETATM   11  C   LIG     1      15.730  34.232  20.346  1.00  0.00     0.001 A 
HETATM   12  C   LIG     1      15.297  35.529  20.070  1.00  0.00     0.001 A 
HETATM   13  C   LIG     1      15.506  36.553  20.998  1.00  0.00     0.015 A 
HETATM   14  C   LIG     1      16.154  36.289  22.221  1.00  0.00     0.008 A 
ENDROOT
BRANCH   1  15
HETATM   15  O   LIG     1      15.921  38.606  22.849  1.00  0.00    -0.359 OA
HETATM   16  H   LIG     1      15.626  38.911  21.934  1.00  0.00     0.217 HD
ENDBRANCH   1  15
TORSDOF 1
ENDMDL
MODEL 6
REMARK VINA RESULT:      -6.6      1.790      4.984
REMARK  1 active torsions:
REMARK  status: ('A' for Active; 'I' for Inactive)
REMARK    1  A    between atoms: O_1  and  C_2 
ROOT
HETATM    1  C   LIG     1      17.552  37.246  22.918  1.00  0.00     0.087 A 
HETATM    2  C   LIG     1      16.981  36.328  21.994  1.00  0.00     0.008 A 
HETATM    3  C   LIG     1      16.635  35.021  22.436  1.00  0.00    -0.022 A 
HETATM    4  C   LIG     1      16.071  34.099  21.540  1.00  0.00     0.012 A 
HETATM    5  C   LIG     1      15.845  34.454  20.212  1.00  0.00     0.001 A 
HETATM    6  C   LIG     1      16.179  35.730  19.765  1.00  0.00     0.001 A 
HETATM    7  C   LIG     1      16.742  36.662  20.641  1.00  0.00     0.015 A 
HETATM    8  C   LIG     1      16.855  34.644  23.766  1.00  0.00     0.024 A 
HETATM    9  C   LIG     1      17.415  35.543  24.676  1.00  0.00    -0.022 A 
HETATM   10  C   LIG     1      17.630  35.154  26.009  1.00  0.00     0.012 A 
HETATM   11  C   LIG     1      18.189  36.048  26.922  1.00  0.00     0.001 A 
HETATM   12  C   LIG     1      18.538  37.336  26.517  1.00  0.00     0.001 A 
HETATM   13  C   LIG     1      18.330  37.738  25.195  1.00  0.00     0.015 A 
HETATM   14  C   LIG     1      17.766  36.850  24.257  1.00  0.00     0.008 A 
ENDROOT
BRANCH   1  15
HETATM   15  O   LIG     1      17.916  38.549  22.552  1.00  0.00    -0.359 OA
HETATM   16  H   LIG     1      18.773  38.804  22.084  1.00  0.00     0.217 HD
ENDBRANCH   1  15
TORSDOF 1
ENDMDL
MODEL 7
REMARK VINA RESULT:      -6.5      9.383     11.436
REMARK  1 active torsions:
REMARK  status: ('A' for Active; 'I' for Inactive)
REMARK    1  A    between atoms: O_1  and  C_2 
ROOT
HETATM    1  C   LIG     1      13.486  30.532  15.700  1.00  0.00     0.087 A 
HETATM    2  C   LIG     1      13.892  29.519  14.788  1.00  0.00     0.008 A 
HETATM    3  C   LIG     1      15.128  29.660  14.098  1.00  0.00    -0.022 A 
HETATM    4  C   LIG     1      15.547  28.672  13.192  1.00  0.00     0.012 A 
HETATM    5  C   LIG     1      14.759  27.547  12.961  1.00  0.00     0.001 A 
HETATM    6  C   LIG     1      13.546  27.396  13.629  1.00  0.00     0.001 A 
HETATM    7  C   LIG     1      13.112  28.368  14.534  1.00  0.00     0.015 A 
HETATM    8  C   LIG     1      15.934  30.783  14.316  1.00  0.00     0.024 A 
HETATM    9  C   LIG     1      15.539  31.779  15.211  1.00  0.00    -0.022 A 
HETATM   10  C   LIG     1      16.357  32.901  15.422  1.00  0.00     0.012 A 
HETATM   11  C   LIG     1      15.967  33.899  16.315  1.00  0.00     0.001 A 
HETATM   12  C   LIG     1      14.760  33.788  17.006  1.00  0.00     0.001 A 
HETATM   13  C   LIG     1      13.936  32.678  16.807  1.00  0.00     0.015 A 
HETATM   14  C   LIG     1      14.312  31.659  15.909  1.00  0.00     0.008 A 
ENDROOT
BRANCH   1  15
HETATM   15  O   LIG     1      12.282  30.458  16.414  1.00  0.00    -0.359 OA
HETATM   16  H   LIG     1      11.500  31.087  16.303  1.00  0.00     0.217 HD
ENDBRANCH   1  15
TORSDOF 1
ENDMDL
MODEL 8
REMARK VINA RESULT:      -6.3      8.629     10.045
REMARK  1 active torsions:
REMARK  status: ('A' for Active; 'I' for Inactive)
REMARK    1  A    between atoms: O_1  and  C_2 
ROOT
HETATM    1  C   LIG     1      15.834  33.369  15.905  1.00  0.00     0.087 A 
HETATM    2  C   LIG     1      14.871  32.327  16.007  1.00  0.00     0.008 A 
HETATM    3  C   LIG     1      14.803  31.340  14.984  1.00  0.00    -0.022 A 
HETATM    4  C   LIG     1      13.859  30.304  15.065  1.00  0.00     0.012 A 
HETATM    5  C   LIG     1      12.982  30.231  16.144  1.00  0.00     0.001 A 
HETATM    6  C   LIG     1      13.037  31.190  17.153  1.00  0.00     0.001 A 
HETATM    7  C   LIG     1      13.969  32.229  17.090  1.00  0.00     0.015 A 
HETATM    8  C   LIG     1      15.675  31.396  13.891  1.00  0.00     0.024 A 
HETATM    9  C   LIG     1      16.622  32.417  13.788  1.00  0.00    -0.022 A 
HETATM   10  C   LIG     1      17.492  32.461  12.686  1.00  0.00     0.012 A 
HETATM   11  C   LIG     1      18.441  33.479  12.578  1.00  0.00     0.001 A 
HETATM   12  C   LIG     1      18.530  34.460  13.566  1.00  0.00     0.001 A 
HETATM   13  C   LIG     1      17.671  34.429  14.668  1.00  0.00     0.015 A 
HETATM   14  C   LIG     1      16.707  33.409  14.795  1.00  0.00     0.008 A 
ENDROOT
BRANCH   1  15
HETATM   15  O   LIG     1      15.957  34.373  16.875  1.00  0.00    -0.359 OA
HETATM   16  H   LIG     1      16.220  34.223  17.837  1.00  0.00     0.217 HD
ENDBRANCH   1  15
TORSDOF 1
ENDMDL
MODEL 9
REMARK VINA RESULT:      -6.2      8.801     10.992
REMARK  1 active torsions:
REMARK  status: ('A' for Active; 'I' for Inactive)
REMARK    1  A    between atoms: O_1  and  C_2 
ROOT
HETATM    1  C   LIG     1      15.791  33.057  15.877  1.00  0.00     0.087 A 
HETATM    2  C   LIG     1      16.689  33.231  14.788  1.00  0.00     0.008 A 
HETATM    3  C   LIG     1      16.620  32.341  13.681  1.00  0.00    -0.022 A 
HETATM    4  C   LIG     1      17.498  32.494  12.596  1.00  0.00     0.012 A 
HETATM    5  C   LIG     1      18.444  33.516  12.593  1.00  0.00     0.001 A 
HETATM    6  C   LIG     1      18.524  34.395  13.671  1.00  0.00     0.001 A 
HETATM    7  C   LIG     1      17.659  34.259  14.759  1.00  0.00     0.015 A 
HETATM    8  C   LIG     1      15.678  31.306  13.664  1.00  0.00     0.024 A 
HETATM    9  C   LIG     1      14.794  31.133  14.731  1.00  0.00    -0.022 A 
HETATM   10  C   LIG     1      13.851  30.091  14.703  1.00  0.00     0.012 A 
HETATM   11  C   LIG     1      12.965  29.914  15.766  1.00  0.00     0.001 A 
HETATM   12  C   LIG     1      13.010  30.771  16.865  1.00  0.00     0.001 A 
HETATM   13  C   LIG     1      13.942  31.812  16.908  1.00  0.00     0.015 A 
HETATM   14  C   LIG     1      14.845  32.008  15.844  1.00  0.00     0.008 A 
ENDROOT
BRANCH   1  15
HETATM   15  O   LIG     1      15.803  33.897  16.999  1.00  0.00    -0.359 OA
HETATM   16  H   LIG     1      16.417  34.686  17.128  1.00  0.00     0.217 HD
ENDBRANCH   1  15
TORSDOF 1
ENDMDL
MODEL 10
REMARK VINA RESULT:      -6.2      2.659      4.042
REMARK  1 active torsions:
REMARK  status: ('A' for Active; 'I' for Inactive)
REMARK    1  A    between atoms: O_1  and  C_2 
ROOT
HETATM    1  C   LIG     1      16.551  36.979  22.191  1.00  0.00     0.087 A 
HETATM    2  C   LIG     1      16.049  35.806  21.561  1.00  0.00     0.008 A 
HETATM    3  C   LIG     1      16.590  35.404  20.309  1.00  0.00    -0.022 A 
HETATM    4  C   LIG     1      16.108  34.250  19.670  1.00  0.00     0.012 A 
HETATM    5  C   LIG     1      15.098  33.489  20.255  1.00  0.00     0.001 A 
HETATM    6  C   LIG     1      14.559  33.871  21.481  1.00  0.00     0.001 A 
HETATM    7  C   LIG     1      15.025  35.016  22.132  1.00  0.00     0.015 A 
HETATM    8  C   LIG     1      17.604  36.154  19.704  1.00  0.00     0.024 A 
HETATM    9  C   LIG     1      18.100  37.306  20.319  1.00  0.00    -0.022 A 
HETATM   10  C   LIG     1      19.119  38.050  19.703  1.00  0.00     0.012 A 
HETATM   11  C   LIG     1      19.618  39.201  20.313  1.00  0.00     0.001 A 
HETATM   12  C   LIG     1      19.107  39.620  21.541  1.00  0.00     0.001 A 
HETATM   13  C   LIG     1      18.093  38.890  22.167  1.00  0.00     0.015 A 
HETATM   14  C   LIG     1      17.576  37.724  21.567  1.00  0.00     0.008 A 
ENDROOT
BRANCH   1  15
HETATM   15  O   LIG     1      16.065  37.433  23.425  1.00  0.00    -0.359 OA
HETATM   16  H   LIG     1      15.090  37.538  23.663  1.00  0.00     0.217 HD
ENDBRANCH   1  15
TORSDOF 1
ENDMDL
MODEL 11
REMARK VINA RESULT:      -6.1      2.704      5.159
REMARK  1 active torsions:
REMARK  status: ('A' for Active; 'I' for Inactive)
REMARK    1  A    between atoms: O_1  and  C_2 
ROOT
HETATM    1  C   LIG     1      16.574  37.035  22.117  1.00  0.00     0.087 A 
HETATM    2  C   LIG     1      17.612  37.773  21.486  1.00  0.00     0.008 A 
HETATM    3  C   LIG     1      18.132  37.318  20.243  1.00  0.00    -0.022 A 
HETATM    4  C   LIG     1      19.158  38.031  19.602  1.00  0.00     0.012 A 
HETATM    5  C   LIG     1      19.676  39.190  20.176  1.00  0.00     0.001 A 
HETATM    6  C   LIG     1      19.177  39.648  21.394  1.00  0.00     0.001 A 
HETATM    7  C   LIG     1      18.157  38.952  22.046  1.00  0.00     0.015 A 
HETATM    8  C   LIG     1      17.627  36.156  19.649  1.00  0.00     0.024 A 
HETATM    9  C   LIG     1      16.607  35.428  20.267  1.00  0.00    -0.022 A 
HETATM   10  C   LIG     1      16.106  34.264  19.661  1.00  0.00     0.012 A 
HETATM   11  C   LIG     1      15.087  33.534  20.273  1.00  0.00     0.001 A 
HETATM   12  C   LIG     1      14.558  33.957  21.492  1.00  0.00     0.001 A 
HETATM   13  C   LIG     1      15.045  35.113  22.107  1.00  0.00     0.015 A 
HETATM   14  C   LIG     1      16.074  35.865  21.504  1.00  0.00     0.008 A 
ENDROOT
BRANCH   1  15
HETATM   15  O   LIG     1      16.015  37.426  23.342  1.00  0.00    -0.359 OA
HETATM   16  H   LIG     1      16.429  37.267  24.248  1.00  0.00     0.217 HD
ENDBRANCH   1  15
TORSDOF 1
ENDMDL
MODEL 12
REMARK VINA RESULT:      -6.1      2.391      4.055
REMARK  1 active torsions:
REMARK  status: ('A' for Active; 'I' for Inactive)
REMARK    1  A    between atoms: O_1  and  C_2 
ROOT
HETATM    1  C   LIG     1      17.458  36.401  19.795  1.00  0.00     0.087 A 
HETATM    2  C   LIG     1      16.535  35.388  20.178  1.00  0.00     0.008 A 
HETATM    3  C   LIG     1      16.019  35.383  21.504  1.00  0.00    -0.022 A 
HETATM    4  C   LIG     1      15.108  34.393  21.903  1.00  0.00     0.012 A 
HETATM    5  C   LIG     1      14.701  33.407  21.007  1.00  0.00     0.001 A 
HETATM    6  C   LIG     1      15.198  33.398  19.706  1.00  0.00     0.001 A 
HETATM    7  C   LIG     1      16.105  34.375  19.290  1.00  0.00     0.015 A 
HETATM    8  C   LIG     1      16.416  36.365  22.419  1.00  0.00     0.024 A 
HETATM    9  C   LIG     1      17.321  37.360  22.046  1.00  0.00    -0.022 A 
HETATM   10  C   LIG     1      17.711  38.341  22.974  1.00  0.00     0.012 A 
HETATM   11  C   LIG     1      18.615  39.338  22.606  1.00  0.00     0.001 A 
HETATM   12  C   LIG     1      19.138  39.367  21.313  1.00  0.00     0.001 A 
HETATM   13  C   LIG     1      18.759  38.399  20.379  1.00  0.00     0.015 A 
HETATM   14  C   LIG     1      17.847  37.384  20.731  1.00  0.00     0.008 A 
ENDROOT
BRANCH   1  15
HETATM   15  O   LIG     1      18.005  36.466  18.506  1.00  0.00    -0.359 OA
HETATM   16  H   LIG     1      18.833  35.977  18.200  1.00  0.00     0.217 HD
ENDBRANCH   1  15
TORSDOF 1
ENDMDL
MODEL 13
REMARK VINA RESULT:      -5.9      8.887     10.867
REMARK  1 active torsions:
REMARK  status: ('A' for Active; 'I' for Inactive)
REMARK    1  A    between atoms: O_1  and  C_2 
ROOT
HETATM    1  C   LIG     1      15.688  31.322  13.891  1.00  0.00     0.087 A 
HETATM    2  C   LIG     1      16.668  32.343  13.749  1.00  0.00     0.008 A 
HETATM    3  C   LIG     1      16.781  33.343  14.755  1.00  0.00    -0.022 A 
HETATM    4  C   LIG     1      17.740  34.361  14.635  1.00  0.00     0.012 A 
HETATM    5  C   LIG     1      18.590  34.402  13.531  1.00  0.00     0.001 A 
HETATM    6  C   LIG     1      18.491  33.430  12.538  1.00  0.00     0.001 A 
HETATM    7  C   LIG     1      17.542  32.410  12.640  1.00  0.00     0.015 A 
HETATM    8  C   LIG     1      15.936  33.320  15.871  1.00  0.00     0.024 A 
HETATM    9  C   LIG     1      14.974  32.318  16.014  1.00  0.00    -0.022 A 
HETATM   10  C   LIG     1      14.133  32.305  17.139  1.00  0.00     0.012 A 
HETATM   11  C   LIG     1      13.169  31.306  17.287  1.00  0.00     0.001 A 
HETATM   12  C   LIG     1      13.036  30.314  16.316  1.00  0.00     0.001 A 
HETATM   13  C   LIG     1      13.866  30.313  15.191  1.00  0.00     0.015 A 
HETATM   14  C   LIG     1      14.845  31.313  15.024  1.00  0.00     0.008 A 
ENDROOT
BRANCH   1  15
HETATM   15  O   LIG     1      15.522  30.306  12.939  1.00  0.00    -0.359 OA
HETATM   16  H   LIG     1      15.582  30.430  11.940  1.00  0.00     0.217 HD
ENDBRANCH   1  15
TORSDOF 1
ENDMDL
MODEL 14
REMARK VINA RESULT:      -5.9      8.862     10.056
REMARK  1 active torsions:
REMARK  status: ('A' for Active; 'I' for Inactive)
REMARK    1  A    between atoms: O_1  and  C_2 
ROOT
HETATM    1  C   LIG     1      15.684  31.343  13.897  1.00  0.00     0.087 A 
HETATM    2  C   LIG     1      14.834  31.318  15.037  1.00  0.00     0.008 A 
HETATM    3  C   LIG     1      14.980  32.321  16.035  1.00  0.00    -0.022 A 
HETATM    4  C   LIG     1      14.152  32.314  17.169  1.00  0.00     0.012 A 
HETATM    5  C   LIG     1      13.180  31.328  17.327  1.00  0.00     0.001 A 
HETATM    6  C   LIG     1      13.026  30.339  16.358  1.00  0.00     0.001 A 
HETATM    7  C   LIG     1      13.841  30.329  15.224  1.00  0.00     0.015 A 
HETATM    8  C   LIG     1      15.950  33.320  15.896  1.00  0.00     0.024 A 
HETATM    9  C   LIG     1      16.786  33.348  14.778  1.00  0.00    -0.022 A 
HETATM   10  C   LIG     1      17.755  34.356  14.649  1.00  0.00     0.012 A 
HETATM   11  C   LIG     1      18.593  34.389  13.533  1.00  0.00     0.001 A 
HETATM   12  C   LIG     1      18.473  33.419  12.539  1.00  0.00     0.001 A 
HETATM   13  C   LIG     1      17.513  32.409  12.653  1.00  0.00     0.015 A 
HETATM   14  C   LIG     1      16.657  32.359  13.772  1.00  0.00     0.008 A 
ENDROOT
BRANCH   1  15
HETATM   15  O   LIG     1      15.596  30.387  12.876  1.00  0.00    -0.359 OA
HETATM   16  H   LIG     1      16.308  30.206  12.185  1.00  0.00     0.217 HD
ENDBRANCH   1  15
TORSDOF 1
ENDMDL
MODEL 15
REMARK VINA RESULT:      -5.7      6.955      9.515
REMARK  1 active torsions:
REMARK  status: ('A' for Active; 'I' for Inactive)
REMARK    1  A    between atoms: O_1  and  C_2 
ROOT
HETATM    1  C   LIG     1      15.861  33.526  16.399  1.00  0.00     0.087 A 
HETATM    2  C   LIG     1      15.556  32.458  15.511  1.00  0.00     0.008 A 
HETATM    3  C   LIG     1      14.919  31.292  16.019  1.00  0.00    -0.022 A 
HETATM    4  C   LIG     1      14.610  30.225  15.161  1.00  0.00     0.012 A 
HETATM    5  C   LIG     1      14.923  30.297  13.805  1.00  0.00     0.001 A 
HETATM    6  C   LIG     1      15.547  31.432  13.293  1.00  0.00     0.001 A 
HETATM    7  C   LIG     1      15.863  32.504  14.132  1.00  0.00     0.015 A 
HETATM    8  C   LIG     1      14.597  31.199  17.378  1.00  0.00     0.024 A 
HETATM    9  C   LIG     1      14.894  32.246  18.252  1.00  0.00    -0.022 A 
HETATM   10  C   LIG     1      14.565  32.142  19.614  1.00  0.00     0.012 A 
HETATM   11  C   LIG     1      14.859  33.186  20.492  1.00  0.00     0.001 A 
HETATM   12  C   LIG     1      15.484  34.341  20.022  1.00  0.00     0.001 A 
HETATM   13  C   LIG     1      15.817  34.459  18.670  1.00  0.00     0.015 A 
HETATM   14  C   LIG     1      15.528  33.416  17.767  1.00  0.00     0.008 A 
ENDROOT
BRANCH   1  15
HETATM   15  O   LIG     1      16.487  34.704  15.967  1.00  0.00    -0.359 OA
HETATM   16  H   LIG     1      16.399  35.105  15.045  1.00  0.00     0.217 HD
ENDBRANCH   1  15
TORSDOF 1
ENDMDL
MODEL 16
REMARK VINA RESULT:      -5.7      6.943      8.750
REMARK  1 active torsions:
REMARK  status: ('A' for Active; 'I' for Inactive)
REMARK    1  A    between atoms: O_1  and  C_2 
ROOT
HETATM    1  C   LIG     1      15.866  33.528  16.422  1.00  0.00     0.087 A 
HETATM    2  C   LIG     1      15.533  33.416  17.801  1.00  0.00     0.008 A 
HETATM    3  C   LIG     1      14.894  32.234  18.268  1.00  0.00    -0.022 A 
HETATM    4  C   LIG     1      14.556  32.103  19.624  1.00  0.00     0.012 A 
HETATM    5  C   LIG     1      14.843  33.127  20.524  1.00  0.00     0.001 A 
HETATM    6  C   LIG     1      15.468  34.290  20.082  1.00  0.00     0.001 A 
HETATM    7  C   LIG     1      15.812  34.439  18.736  1.00  0.00     0.015 A 
HETATM    8  C   LIG     1      14.596  31.195  17.380  1.00  0.00     0.024 A 
HETATM    9  C   LIG     1      14.922  31.301  16.026  1.00  0.00    -0.022 A 
HETATM   10  C   LIG     1      14.619  30.250  15.144  1.00  0.00     0.012 A 
HETATM   11  C   LIG     1      14.942  30.351  13.791  1.00  0.00     0.001 A 
HETATM   12  C   LIG     1      15.569  31.498  13.305  1.00  0.00     0.001 A 
HETATM   13  C   LIG     1      15.877  32.551  14.169  1.00  0.00     0.015 A 
HETATM   14  C   LIG     1      15.559  32.469  15.540  1.00  0.00     0.008 A 
ENDROOT
BRANCH   1  15
HETATM   15  O   LIG     1      16.497  34.663  15.894  1.00  0.00    -0.359 OA
HETATM   16  H   LIG     1      16.780  35.471  16.426  1.00  0.00     0.217 HD
ENDBRANCH   1  15
TORSDOF 1
ENDMDL
MODEL 17
REMARK VINA RESULT:      -5.1     16.323     17.515
REMARK  1 active torsions:
REMARK  status: ('A' for Active; 'I' for Inactive)
REMARK    1  A    between atoms: O_1  and  C_2 
ROOT
HETATM    1  C   LIG     1      28.807  30.441  34.965  1.00  0.00     0.087 A 
HETATM    2  C   LIG     1      28.293  29.508  34.022  1.00  0.00     0.008 A 
HETATM    3  C   LIG     1      26.956  29.043  34.164  1.00  0.00    -0.022 A 
HETATM    4  C   LIG     1      26.429  28.121  33.245  1.00  0.00     0.012 A 
HETATM    5  C   LIG     1      27.207  27.655  32.188  1.00  0.00     0.001 A 
HETATM    6  C   LIG     1      28.518  28.102  32.037  1.00  0.00     0.001 A 
HETATM    7  C   LIG     1      29.060  29.018  32.941  1.00  0.00     0.015 A 
HETATM    8  C   LIG     1      26.158  29.498  35.219  1.00  0.00     0.024 A 
HETATM    9  C   LIG     1      26.660  30.414  36.146  1.00  0.00    -0.022 A 
HETATM   10  C   LIG     1      25.848  30.865  37.201  1.00  0.00     0.012 A 
HETATM   11  C   LIG     1      26.345  31.780  38.129  1.00  0.00     0.001 A 
HETATM   12  C   LIG     1      27.651  32.254  38.016  1.00  0.00     0.001 A 
HETATM   13  C   LIG     1      28.471  31.815  36.972  1.00  0.00     0.015 A 
HETATM   14  C   LIG     1      27.988  30.891  36.023  1.00  0.00     0.008 A 
ENDROOT
BRANCH   1  15
HETATM   15  O   LIG     1      30.114  30.942  34.886  1.00  0.00    -0.359 OA
HETATM   16  H   LIG     1      30.362  31.883  34.619  1.00  0.00     0.217 HD
ENDBRANCH   1  15
TORSDOF 1
ENDMDL
MODEL 18
REMARK VINA RESULT:      -5.1     16.393     17.768
REMARK  1 active torsions:
REMARK  status: ('A' for Active; 'I' for Inactive)
REMARK    1  A    between atoms: O_1  and  C_2 
ROOT
HETATM    1  C   LIG     1      27.311  27.564  36.226  1.00  0.00     0.087 A 
HETATM    2  C   LIG     1      26.935  28.897  36.547  1.00  0.00     0.008 A 
HETATM    3  C   LIG     1      26.438  29.746  35.519  1.00  0.00    -0.022 A 
HETATM    4  C   LIG     1      26.062  31.066  35.813  1.00  0.00     0.012 A 
HETATM    5  C   LIG     1      26.171  31.557  37.113  1.00  0.00     0.001 A 
HETATM    6  C   LIG     1      26.656  30.738  38.129  1.00  0.00     0.001 A 
HETATM    7  C   LIG     1      27.036  29.422  37.856  1.00  0.00     0.015 A 
HETATM    8  C   LIG     1      26.322  29.272  34.207  1.00  0.00     0.024 A 
HETATM    9  C   LIG     1      26.690  27.963  33.889  1.00  0.00    -0.022 A 
HETATM   10  C   LIG     1      26.568  27.499  32.569  1.00  0.00     0.012 A 
HETATM   11  C   LIG     1      26.933  26.192  32.245  1.00  0.00     0.001 A 
HETATM   12  C   LIG     1      27.424  25.337  33.233  1.00  0.00     0.001 A 
HETATM   13  C   LIG     1      27.551  25.785  34.550  1.00  0.00     0.015 A 
HETATM   14  C   LIG     1      27.187  27.101  34.897  1.00  0.00     0.008 A 
ENDROOT
BRANCH   1  15
HETATM   15  O   LIG     1      27.808  26.673  37.189  1.00  0.00    -0.359 OA
HETATM   16  H   LIG     1      27.396  25.784  37.425  1.00  0.00     0.217 HD
ENDBRANCH   1  15
TORSDOF 1
ENDMDL
MODEL 19
REMARK VINA RESULT:      -5.0     17.472     19.507
REMARK  1 active torsions:
REMARK  status: ('A' for Active; 'I' for Inactive)
REMARK    1  A    between atoms: O_1  and  C_2 
ROOT
HETATM    1  C   LIG     1      21.720  20.784  34.926  1.00  0.00     0.087 A 
HETATM    2  C   LIG     1      22.113  21.637  35.995  1.00  0.00     0.008 A 
HETATM    3  C   LIG     1      21.725  23.005  35.970  1.00  0.00    -0.022 A 
HETATM    4  C   LIG     1      22.103  23.865  37.014  1.00  0.00     0.012 A 
HETATM    5  C   LIG     1      22.859  23.387  38.082  1.00  0.00     0.001 A 
HETATM    6  C   LIG     1      23.246  22.050  38.120  1.00  0.00     0.001 A 
HETATM    7  C   LIG     1      22.880  21.179  37.090  1.00  0.00     0.015 A 
HETATM    8  C   LIG     1      20.967  23.505  34.906  1.00  0.00     0.024 A 
HETATM    9  C   LIG     1      20.579  22.671  33.855  1.00  0.00    -0.022 A 
HETATM   10  C   LIG     1      19.816  23.184  32.793  1.00  0.00     0.012 A 
HETATM   11  C   LIG     1      19.426  22.354  31.741  1.00  0.00     0.001 A 
HETATM   12  C   LIG     1      19.791  21.008  31.739  1.00  0.00     0.001 A 
HETATM   13  C   LIG     1      20.550  20.483  32.788  1.00  0.00     0.015 A 
HETATM   14  C   LIG     1      20.953  21.305  33.860  1.00  0.00     0.008 A 
ENDROOT
BRANCH   1  15
HETATM   15  O   LIG     1      22.066  19.426  34.886  1.00  0.00    -0.359 OA
HETATM   16  H   LIG     1      22.960  19.062  34.594  1.00  0.00     0.217 HD
ENDBRANCH   1  15
TORSDOF 1
ENDMDL
