REMARK  1 active torsions:
REMARK  status: ('A' for Active; 'I' for Inactive)
REMARK    1  A    between atoms: O_1  and  C_2 
ROOT
HETATM    1  C   LIG     1      -0.023   1.263  -0.290  1.00  0.00     0.087 A 
HETATM    2  C   LIG     1      -1.218   0.493  -0.238  1.00  0.00     0.008 A 
HETATM    3  C   LIG     1      -1.140  -0.890   0.085  1.00  0.00    -0.022 A 
HETATM    4  C   LIG     1      -2.307  -1.669   0.141  1.00  0.00     0.012 A 
HETATM    5  C   LIG     1      -3.550  -1.096  -0.118  1.00  0.00     0.001 A 
HETATM    6  C   LIG     1      -3.642   0.257  -0.436  1.00  0.00     0.001 A 
HETATM    7  C   LIG     1      -2.492   1.048  -0.497  1.00  0.00     0.015 A 
HETATM    8  C   LIG     1       0.099  -1.485   0.348  1.00  0.00     0.024 A 
HETATM    9  C   LIG     1       1.274  -0.732   0.298  1.00  0.00    -0.022 A 
HETATM   10  C   LIG     1       2.512  -1.340   0.565  1.00  0.00     0.012 A 
HETATM   11  C   LIG     1       3.689  -0.592   0.517  1.00  0.00     0.001 A 
HETATM   12  C   LIG     1       3.643   0.766   0.203  1.00  0.00     0.001 A 
HETATM   13  C   LIG     1       2.419   1.385  -0.065  1.00  0.00     0.015 A 
HETATM   14  C   LIG     1       1.219   0.647  -0.021  1.00  0.00     0.008 A 
ENDROOT
BRANCH   1  15
HETATM   15  O   LIG     1      -0.026   2.630  -0.601  1.00  0.00    -0.359 OA
HETATM   16  H   LIG     1      -0.847   3.177  -0.811  1.00  0.00     0.217 HD
ENDBRANCH   1  15
TORSDOF 1
