MODEL 1
REMARK VINA RESULT:      -5.0      0.000      0.000
REMARK  4 active torsions:
REMARK  status: ('A' for Active; 'I' for Inactive)
REMARK    1  A    between atoms: C_19  and  C_21 
REMARK    2  A    between atoms: C_19  and  O_20 
REMARK    3  A    between atoms: C_21  and  C_22 
REMARK    4  A    between atoms: C_22  and  O_23 
ROOT
HETATM    1  O   LIG     1      22.272  17.933  19.937  1.00  0.00    -0.293 OA
HETATM    2  C   LIG     1      22.836  19.032  20.177  1.00  0.00     0.149 C 
HETATM    3  C   LIG     1      23.503  19.246  21.503  1.00  0.00     0.084 C 
HETATM    4  C   LIG     1      24.503  20.411  21.453  1.00  0.00     0.022 C 
HETATM    5  C   LIG     1      23.909  21.685  20.772  1.00  0.00    -0.009 C 
HETATM    6  C   LIG     1      22.750  22.251  21.629  1.00  0.00     0.021 C 
HETATM    7  C   LIG     1      23.333  21.309  19.393  1.00  0.00    -0.067 C 
HETATM    8  C   LIG     1      23.449  22.310  18.252  1.00  0.00     0.035 C 
HETATM    9  C   LIG     1      24.914  22.773  18.022  1.00  0.00     0.010 C 
HETATM   10  C   LIG     1      25.816  22.489  19.248  1.00  0.00     0.003 C 
HETATM   11  C   LIG     1      25.010  22.796  20.552  1.00  0.00     0.072 C 
HETATM   12  C   LIG     1      25.896  23.183  21.736  1.00  0.00     0.133 C 
HETATM   13  C   LIG     1      27.177  23.984  21.554  1.00  0.00     0.091 C 
HETATM   14  C   LIG     1      27.476  24.360  20.067  1.00  0.00     0.005 C 
HETATM   15  C   LIG     1      26.561  25.549  19.632  1.00  0.00     0.019 C 
HETATM   16  C   LIG     1      27.247  23.103  19.219  1.00  0.00     0.002 C 
HETATM   17  C   LIG     1      27.919  23.366  17.874  1.00  0.00     0.009 C 
HETATM   18  C   LIG     1      29.064  24.346  18.179  1.00  0.00     0.047 C 
HETATM   19  C   LIG     1      28.978  24.713  19.703  1.00  0.00     0.128 C 
HETATM   20  O   LIG     1      25.554  22.908  22.876  1.00  0.00    -0.297 OA
HETATM   21  C   LIG     1      22.809  20.094  19.160  1.00  0.00     0.053 C 
ENDROOT
BRANCH  19  22
HETATM   22  C   LIG     1      30.012  23.953  20.557  1.00  0.00     0.184 C 
HETATM   23  O   LIG     1      30.521  24.545  21.498  1.00  0.00    -0.292 OA
BRANCH  22  24
HETATM   24  C   LIG     1      30.558  22.577  20.243  1.00  0.00     0.245 C 
BRANCH  24  25
HETATM   25  O   LIG     1      29.896  21.597  20.989  1.00  0.00    -0.393 OA
HETATM   26  H   LIG     1      29.339  21.086  20.345  1.00  0.00     0.209 HD
ENDBRANCH  24  25
ENDBRANCH  22  24
ENDBRANCH  19  22
BRANCH  19  27
HETATM   27  O   LIG     1      29.257  26.084  19.919  1.00  0.00    -0.381 OA
HETATM   28  H   LIG     1      28.534  26.509  20.447  1.00  0.00     0.211 HD
ENDBRANCH  19  27
TORSDOF 4
ENDMDL
MODEL 2
REMARK VINA RESULT:      -4.9      2.563      3.870
REMARK  4 active torsions:
REMARK  status: ('A' for Active; 'I' for Inactive)
REMARK    1  A    between atoms: C_19  and  C_21 
REMARK    2  A    between atoms: C_19  and  O_20 
REMARK    3  A    between atoms: C_21  and  C_22 
REMARK    4  A    between atoms: C_22  and  O_23 
ROOT
HETATM    1  O   LIG     1      21.744  18.297  14.910  1.00  0.00    -0.293 OA
HETATM    2  C   LIG     1      22.648  18.675  15.701  1.00  0.00     0.149 C 
HETATM    3  C   LIG     1      24.075  18.307  15.421  1.00  0.00     0.084 C 
HETATM    4  C   LIG     1      25.053  19.207  16.191  1.00  0.00     0.022 C 
HETATM    5  C   LIG     1      24.669  19.364  17.696  1.00  0.00    -0.009 C 
HETATM    6  C   LIG     1      24.799  18.001  18.420  1.00  0.00     0.021 C 
HETATM    7  C   LIG     1      23.200  19.817  17.808  1.00  0.00    -0.067 C 
HETATM    8  C   LIG     1      22.810  20.772  18.926  1.00  0.00     0.035 C 
HETATM    9  C   LIG     1      23.683  22.057  18.932  1.00  0.00     0.010 C 
HETATM   10  C   LIG     1      24.997  21.875  18.137  1.00  0.00     0.003 C 
HETATM   11  C   LIG     1      25.566  20.445  18.418  1.00  0.00     0.072 C 
HETATM   12  C   LIG     1      27.083  20.353  18.257  1.00  0.00     0.133 C 
HETATM   13  C   LIG     1      28.003  21.507  18.626  1.00  0.00     0.091 C 
HETATM   14  C   LIG     1      27.248  22.760  19.176  1.00  0.00     0.005 C 
HETATM   15  C   LIG     1      26.819  22.508  20.657  1.00  0.00     0.019 C 
HETATM   16  C   LIG     1      26.050  23.017  18.254  1.00  0.00     0.002 C 
HETATM   17  C   LIG     1      25.578  24.438  18.552  1.00  0.00     0.009 C 
HETATM   18  C   LIG     1      26.830  25.188  19.033  1.00  0.00     0.047 C 
HETATM   19  C   LIG     1      28.007  24.150  19.096  1.00  0.00     0.128 C 
HETATM   20  O   LIG     1      27.600  19.311  17.884  1.00  0.00    -0.297 OA
HETATM   21  C   LIG     1      22.284  19.450  16.896  1.00  0.00     0.053 C 
ENDROOT
BRANCH  19  22
HETATM   22  C   LIG     1      28.962  24.260  17.891  1.00  0.00     0.184 C 
HETATM   23  O   LIG     1      30.157  24.097  18.093  1.00  0.00    -0.292 OA
BRANCH  22  24
HETATM   24  C   LIG     1      28.560  24.693  16.498  1.00  0.00     0.245 C 
BRANCH  24  25
HETATM   25  O   LIG     1      29.184  25.895  16.151  1.00  0.00    -0.393 OA
HETATM   26  H   LIG     1      28.904  26.095  15.221  1.00  0.00     0.209 HD
ENDBRANCH  24  25
ENDBRANCH  22  24
ENDBRANCH  19  22
BRANCH  19  27
HETATM   27  O   LIG     1      28.822  24.364  20.234  1.00  0.00    -0.381 OA
HETATM   28  H   LIG     1      29.753  24.071  20.058  1.00  0.00     0.211 HD
ENDBRANCH  19  27
TORSDOF 4
ENDMDL
MODEL 3
REMARK VINA RESULT:      -4.7      3.355      5.885
REMARK  4 active torsions:
REMARK  status: ('A' for Active; 'I' for Inactive)
REMARK    1  A    between atoms: C_19  and  C_21 
REMARK    2  A    between atoms: C_19  and  O_20 
REMARK    3  A    between atoms: C_21  and  C_22 
REMARK    4  A    between atoms: C_22  and  O_23 
ROOT
HETATM    1  O   LIG     1      26.854  19.547  27.884  1.00  0.00    -0.293 OA
HETATM    2  C   LIG     1      26.386  20.189  26.908  1.00  0.00     0.149 C 
HETATM    3  C   LIG     1      27.295  21.059  26.092  1.00  0.00     0.084 C 
HETATM    4  C   LIG     1      26.688  21.383  24.719  1.00  0.00     0.022 C 
HETATM    5  C   LIG     1      25.200  21.846  24.813  1.00  0.00    -0.009 C 
HETATM    6  C   LIG     1      25.113  23.198  25.564  1.00  0.00     0.021 C 
HETATM    7  C   LIG     1      24.388  20.810  25.615  1.00  0.00    -0.067 C 
HETATM    8  C   LIG     1      22.946  20.538  25.214  1.00  0.00     0.035 C 
HETATM    9  C   LIG     1      22.815  20.155  23.714  1.00  0.00     0.010 C 
HETATM   10  C   LIG     1      24.057  20.576  22.893  1.00  0.00     0.003 C 
HETATM   11  C   LIG     1      24.538  21.980  23.385  1.00  0.00     0.072 C 
HETATM   12  C   LIG     1      25.283  22.776  22.313  1.00  0.00     0.133 C 
HETATM   13  C   LIG     1      24.905  22.692  20.841  1.00  0.00     0.091 C 
HETATM   14  C   LIG     1      23.706  21.733  20.555  1.00  0.00     0.005 C 
HETATM   15  C   LIG     1      22.367  22.432  20.953  1.00  0.00     0.019 C 
HETATM   16  C   LIG     1      23.950  20.441  21.345  1.00  0.00     0.002 C 
HETATM   17  C   LIG     1      23.013  19.393  20.751  1.00  0.00     0.009 C 
HETATM   18  C   LIG     1      22.810  19.815  19.286  1.00  0.00     0.047 C 
HETATM   19  C   LIG     1      23.568  21.174  19.077  1.00  0.00     0.128 C 
HETATM   20  O   LIG     1      26.166  23.557  22.630  1.00  0.00    -0.297 OA
HETATM   21  C   LIG     1      24.951  20.091  26.601  1.00  0.00     0.053 C 
ENDROOT
BRANCH  19  22
HETATM   22  C   LIG     1      24.921  20.995  18.360  1.00  0.00     0.184 C 
HETATM   23  O   LIG     1      25.386  21.961  17.770  1.00  0.00    -0.292 OA
BRANCH  22  24
HETATM   24  C   LIG     1      25.658  19.683  18.205  1.00  0.00     0.245 C 
BRANCH  24  25
HETATM   25  O   LIG     1      26.565  19.494  19.253  1.00  0.00    -0.393 OA
HETATM   26  H   LIG     1      26.218  20.022  20.018  1.00  0.00     0.209 HD
ENDBRANCH  24  25
ENDBRANCH  22  24
ENDBRANCH  19  22
BRANCH  19  27
HETATM   27  O   LIG     1      22.828  22.057  18.254  1.00  0.00    -0.381 OA
HETATM   28  H   LIG     1      23.357  22.319  17.458  1.00  0.00     0.211 HD
ENDBRANCH  19  27
TORSDOF 4
ENDMDL
MODEL 4
REMARK VINA RESULT:      -4.7      3.025      6.137
REMARK  4 active torsions:
REMARK  status: ('A' for Active; 'I' for Inactive)
REMARK    1  A    between atoms: C_19  and  C_21 
REMARK    2  A    between atoms: C_19  and  O_20 
REMARK    3  A    between atoms: C_21  and  C_22 
REMARK    4  A    between atoms: C_22  and  O_23 
ROOT
HETATM    1  O   LIG     1      26.200  25.191  27.342  1.00  0.00    -0.293 OA
HETATM    2  C   LIG     1      26.279  24.368  26.393  1.00  0.00     0.149 C 
HETATM    3  C   LIG     1      25.404  23.150  26.399  1.00  0.00     0.084 C 
HETATM    4  C   LIG     1      25.293  22.526  24.999  1.00  0.00     0.022 C 
HETATM    5  C   LIG     1      26.680  22.371  24.298  1.00  0.00    -0.009 C 
HETATM    6  C   LIG     1      27.552  21.350  25.070  1.00  0.00     0.021 C 
HETATM    7  C   LIG     1      27.417  23.724  24.310  1.00  0.00    -0.067 C 
HETATM    8  C   LIG     1      28.286  24.098  23.118  1.00  0.00     0.035 C 
HETATM    9  C   LIG     1      27.508  24.017  21.776  1.00  0.00     0.010 C 
HETATM   10  C   LIG     1      26.224  23.162  21.895  1.00  0.00     0.003 C 
HETATM   11  C   LIG     1      26.524  21.918  22.792  1.00  0.00     0.072 C 
HETATM   12  C   LIG     1      25.629  20.717  22.486  1.00  0.00     0.133 C 
HETATM   13  C   LIG     1      25.156  20.407  21.073  1.00  0.00     0.091 C 
HETATM   14  C   LIG     1      25.675  21.418  20.001  1.00  0.00     0.005 C 
HETATM   15  C   LIG     1      27.170  21.110  19.667  1.00  0.00     0.019 C 
HETATM   16  C   LIG     1      25.480  22.830  20.567  1.00  0.00     0.002 C 
HETATM   17  C   LIG     1      25.603  23.786  19.384  1.00  0.00     0.009 C 
HETATM   18  C   LIG     1      25.152  22.975  18.159  1.00  0.00     0.047 C 
HETATM   19  C   LIG     1      24.859  21.510  18.644  1.00  0.00     0.128 C 
HETATM   20  O   LIG     1      25.324  19.935  23.372  1.00  0.00    -0.297 OA
HETATM   21  C   LIG     1      27.244  24.606  25.309  1.00  0.00     0.053 C 
ENDROOT
BRANCH  19  22
HETATM   22  C   LIG     1      23.353  21.231  18.814  1.00  0.00     0.184 C 
HETATM   23  O   LIG     1      22.665  22.102  19.328  1.00  0.00    -0.292 OA
BRANCH  22  24
HETATM   24  C   LIG     1      22.674  19.909  18.525  1.00  0.00     0.245 C 
BRANCH  24  25
HETATM   25  O   LIG     1      22.415  19.771  17.158  1.00  0.00    -0.393 OA
HETATM   26  H   LIG     1      21.428  19.801  17.059  1.00  0.00     0.209 HD
ENDBRANCH  24  25
ENDBRANCH  22  24
ENDBRANCH  19  22
BRANCH  19  27
HETATM   27  O   LIG     1      25.309  20.555  17.701  1.00  0.00    -0.381 OA
HETATM   28  H   LIG     1      24.807  20.640  16.851  1.00  0.00     0.211 HD
ENDBRANCH  19  27
TORSDOF 4
ENDMDL
MODEL 5
REMARK VINA RESULT:      -4.7      2.229      6.805
REMARK  4 active torsions:
REMARK  status: ('A' for Active; 'I' for Inactive)
REMARK    1  A    between atoms: C_19  and  C_21 
REMARK    2  A    between atoms: C_19  and  O_20 
REMARK    3  A    between atoms: C_21  and  C_22 
REMARK    4  A    between atoms: C_22  and  O_23 
ROOT
HETATM    1  O   LIG     1      30.027  26.919  15.339  1.00  0.00    -0.293 OA
HETATM    2  C   LIG     1      29.590  26.194  16.270  1.00  0.00     0.149 C 
HETATM    3  C   LIG     1      28.876  26.828  17.427  1.00  0.00     0.084 C 
HETATM    4  C   LIG     1      28.032  25.804  18.201  1.00  0.00     0.022 C 
HETATM    5  C   LIG     1      28.817  24.492  18.517  1.00  0.00    -0.009 C 
HETATM    6  C   LIG     1      29.984  24.794  19.489  1.00  0.00     0.021 C 
HETATM    7  C   LIG     1      29.423  23.930  17.216  1.00  0.00    -0.067 C 
HETATM    8  C   LIG     1      29.500  22.421  17.034  1.00  0.00     0.035 C 
HETATM    9  C   LIG     1      28.118  21.735  17.225  1.00  0.00     0.010 C 
HETATM   10  C   LIG     1      27.118  22.638  17.985  1.00  0.00     0.003 C 
HETATM   11  C   LIG     1      27.876  23.383  19.132  1.00  0.00     0.072 C 
HETATM   12  C   LIG     1      26.976  23.766  20.306  1.00  0.00     0.133 C 
HETATM   13  C   LIG     1      25.816  22.887  20.751  1.00  0.00     0.091 C 
HETATM   14  C   LIG     1      25.654  21.585  19.902  1.00  0.00     0.005 C 
HETATM   15  C   LIG     1      26.732  20.539  20.333  1.00  0.00     0.019 C 
HETATM   16  C   LIG     1      25.777  21.979  18.425  1.00  0.00     0.002 C 
HETATM   17  C   LIG     1      25.224  20.806  17.622  1.00  0.00     0.009 C 
HETATM   18  C   LIG     1      24.191  20.135  18.543  1.00  0.00     0.047 C 
HETATM   19  C   LIG     1      24.231  20.886  19.922  1.00  0.00     0.128 C 
HETATM   20  O   LIG     1      27.213  24.769  20.961  1.00  0.00    -0.297 OA
HETATM   21  C   LIG     1      29.807  24.740  16.216  1.00  0.00     0.053 C 
ENDROOT
BRANCH  19  22
HETATM   22  C   LIG     1      23.062  21.877  20.092  1.00  0.00     0.184 C 
HETATM   23  O   LIG     1      22.521  22.301  19.080  1.00  0.00    -0.292 OA
BRANCH  22  24
HETATM   24  C   LIG     1      22.618  22.481  21.406  1.00  0.00     0.245 C 
BRANCH  24  25
HETATM   25  O   LIG     1      21.380  23.117  21.268  1.00  0.00    -0.393 OA
HETATM   26  H   LIG     1      21.130  23.437  22.174  1.00  0.00     0.209 HD
ENDBRANCH  24  25
ENDBRANCH  22  24
ENDBRANCH  19  22
BRANCH  19  27
HETATM   27  O   LIG     1      24.110  19.982  21.004  1.00  0.00    -0.381 OA
HETATM   28  H   LIG     1      24.200  19.046  20.691  1.00  0.00     0.211 HD
ENDBRANCH  19  27
TORSDOF 4
ENDMDL
MODEL 6
REMARK VINA RESULT:      -4.6      3.797      6.168
REMARK  4 active torsions:
REMARK  status: ('A' for Active; 'I' for Inactive)
REMARK    1  A    between atoms: C_19  and  C_21 
REMARK    2  A    between atoms: C_19  and  O_20 
REMARK    3  A    between atoms: C_21  and  C_22 
REMARK    4  A    between atoms: C_22  and  O_23 
ROOT
HETATM    1  O   LIG     1      20.667  20.843  28.319  1.00  0.00    -0.293 OA
HETATM    2  C   LIG     1      21.561  20.613  27.464  1.00  0.00     0.149 C 
HETATM    3  C   LIG     1      21.508  19.346  26.663  1.00  0.00     0.084 C 
HETATM    4  C   LIG     1      22.369  19.442  25.395  1.00  0.00     0.022 C 
HETATM    5  C   LIG     1      23.795  20.015  25.677  1.00  0.00    -0.009 C 
HETATM    6  C   LIG     1      24.592  19.033  26.570  1.00  0.00     0.021 C 
HETATM    7  C   LIG     1      23.672  21.350  26.438  1.00  0.00    -0.067 C 
HETATM    8  C   LIG     1      24.676  22.455  26.148  1.00  0.00     0.035 C 
HETATM    9  C   LIG     1      24.749  22.800  24.634  1.00  0.00     0.010 C 
HETATM   10  C   LIG     1      24.162  21.676  23.749  1.00  0.00     0.003 C 
HETATM   11  C   LIG     1      24.588  20.291  24.339  1.00  0.00     0.072 C 
HETATM   12  C   LIG     1      24.652  19.179  23.292  1.00  0.00     0.133 C 
HETATM   13  C   LIG     1      25.097  19.447  21.861  1.00  0.00     0.091 C 
HETATM   14  C   LIG     1      25.473  20.939  21.589  1.00  0.00     0.005 C 
HETATM   15  C   LIG     1      26.887  21.241  22.183  1.00  0.00     0.019 C 
HETATM   16  C   LIG     1      24.377  21.811  22.213  1.00  0.00     0.002 C 
HETATM   17  C   LIG     1      24.537  23.201  21.602  1.00  0.00     0.009 C 
HETATM   18  C   LIG     1      25.159  22.965  20.216  1.00  0.00     0.047 C 
HETATM   19  C   LIG     1      25.440  21.425  20.081  1.00  0.00     0.128 C 
HETATM   20  O   LIG     1      24.407  18.025  23.604  1.00  0.00    -0.297 OA
HETATM   21  C   LIG     1      22.655  21.580  27.285  1.00  0.00     0.053 C 
ENDROOT
BRANCH  19  22
HETATM   22  C   LIG     1      24.382  20.701  19.225  1.00  0.00     0.184 C 
HETATM   23  O   LIG     1      24.758  19.785  18.507  1.00  0.00    -0.292 OA
BRANCH  22  24
HETATM   24  C   LIG     1      22.934  21.121  19.091  1.00  0.00     0.245 C 
BRANCH  24  25
HETATM   25  O   LIG     1      22.773  22.021  18.033  1.00  0.00    -0.393 OA
HETATM   26  H   LIG     1      23.274  22.840  18.287  1.00  0.00     0.209 HD
ENDBRANCH  24  25
ENDBRANCH  22  24
ENDBRANCH  19  22
BRANCH  19  27
HETATM   27  O   LIG     1      26.673  21.182  19.428  1.00  0.00    -0.381 OA
HETATM   28  H   LIG     1      26.554  21.181  18.444  1.00  0.00     0.211 HD
ENDBRANCH  19  27
TORSDOF 4
ENDMDL
MODEL 7
REMARK VINA RESULT:      -4.6      2.115      6.560
REMARK  4 active torsions:
REMARK  status: ('A' for Active; 'I' for Inactive)
REMARK    1  A    between atoms: C_19  and  C_21 
REMARK    2  A    between atoms: C_19  and  O_20 
REMARK    3  A    between atoms: C_21  and  C_22 
REMARK    4  A    between atoms: C_22  and  O_23 
ROOT
HETATM    1  O   LIG     1      29.856  28.054  18.441  1.00  0.00    -0.293 OA
HETATM    2  C   LIG     1      29.520  26.908  18.838  1.00  0.00     0.149 C 
HETATM    3  C   LIG     1      30.250  26.282  19.988  1.00  0.00     0.084 C 
HETATM    4  C   LIG     1      29.440  25.139  20.619  1.00  0.00     0.022 C 
HETATM    5  C   LIG     1      28.864  24.152  19.555  1.00  0.00    -0.009 C 
HETATM    6  C   LIG     1      30.020  23.411  18.839  1.00  0.00     0.021 C 
HETATM    7  C   LIG     1      28.081  24.944  18.489  1.00  0.00    -0.067 C 
HETATM    8  C   LIG     1      26.834  24.320  17.879  1.00  0.00     0.035 C 
HETATM    9  C   LIG     1      25.809  23.879  18.961  1.00  0.00     0.010 C 
HETATM   10  C   LIG     1      26.457  23.747  20.360  1.00  0.00     0.003 C 
HETATM   11  C   LIG     1      27.874  23.106  20.205  1.00  0.00     0.072 C 
HETATM   12  C   LIG     1      28.337  22.346  21.448  1.00  0.00     0.133 C 
HETATM   13  C   LIG     1      27.364  21.576  22.329  1.00  0.00     0.091 C 
HETATM   14  C   LIG     1      25.883  21.643  21.835  1.00  0.00     0.005 C 
HETATM   15  C   LIG     1      25.690  20.679  20.620  1.00  0.00     0.019 C 
HETATM   16  C   LIG     1      25.582  23.104  21.477  1.00  0.00     0.002 C 
HETATM   17  C   LIG     1      24.062  23.219  21.392  1.00  0.00     0.009 C 
HETATM   18  C   LIG     1      23.521  22.142  22.347  1.00  0.00     0.047 C 
HETATM   19  C   LIG     1      24.753  21.344  22.906  1.00  0.00     0.128 C 
HETATM   20  O   LIG     1      29.524  22.287  21.726  1.00  0.00    -0.297 OA
HETATM   21  C   LIG     1      28.432  26.196  18.151  1.00  0.00     0.053 C 
ENDROOT
BRANCH  19  22
HETATM   22  C   LIG     1      25.136  21.771  24.337  1.00  0.00     0.184 C 
HETATM   23  O   LIG     1      25.414  20.890  25.140  1.00  0.00    -0.292 OA
BRANCH  22  24
HETATM   24  C   LIG     1      25.060  23.182  24.876  1.00  0.00     0.245 C 
BRANCH  24  25
HETATM   25  O   LIG     1      24.451  23.203  26.134  1.00  0.00    -0.393 OA
HETATM   26  H   LIG     1      24.339  24.160  26.372  1.00  0.00     0.209 HD
ENDBRANCH  24  25
ENDBRANCH  22  24
ENDBRANCH  19  22
BRANCH  19  27
HETATM   27  O   LIG     1      24.473  19.960  22.995  1.00  0.00    -0.381 OA
HETATM   28  H   LIG     1      25.155  19.500  23.549  1.00  0.00     0.211 HD
ENDBRANCH  19  27
TORSDOF 4
ENDMDL
MODEL 8
REMARK VINA RESULT:      -4.4      2.373      6.501
REMARK  4 active torsions:
REMARK  status: ('A' for Active; 'I' for Inactive)
REMARK    1  A    between atoms: C_19  and  C_21 
REMARK    2  A    between atoms: C_19  and  O_20 
REMARK    3  A    between atoms: C_21  and  C_22 
REMARK    4  A    between atoms: C_22  and  O_23 
ROOT
HETATM    1  O   LIG     1      27.686  27.303  18.645  1.00  0.00    -0.293 OA
HETATM    2  C   LIG     1      27.567  26.151  19.138  1.00  0.00     0.149 C 
HETATM    3  C   LIG     1      28.386  25.773  20.336  1.00  0.00     0.084 C 
HETATM    4  C   LIG     1      27.797  24.553  21.061  1.00  0.00     0.022 C 
HETATM    5  C   LIG     1      27.433  23.390  20.086  1.00  0.00    -0.009 C 
HETATM    6  C   LIG     1      28.720  22.825  19.433  1.00  0.00     0.021 C 
HETATM    7  C   LIG     1      26.531  23.928  18.958  1.00  0.00    -0.067 C 
HETATM    8  C   LIG     1      25.434  23.031  18.405  1.00  0.00     0.035 C 
HETATM    9  C   LIG     1      24.494  22.495  19.521  1.00  0.00     0.010 C 
HETATM   10  C   LIG     1      25.135  22.604  20.926  1.00  0.00     0.003 C 
HETATM   11  C   LIG     1      26.650  22.233  20.823  1.00  0.00     0.072 C 
HETATM   12  C   LIG     1      27.230  21.681  22.125  1.00  0.00     0.133 C 
HETATM   13  C   LIG     1      26.407  20.817  23.069  1.00  0.00     0.091 C 
HETATM   14  C   LIG     1      24.947  20.560  22.573  1.00  0.00     0.005 C 
HETATM   15  C   LIG     1      24.958  19.479  21.445  1.00  0.00     0.019 C 
HETATM   16  C   LIG     1      24.381  21.902  22.094  1.00  0.00     0.002 C 
HETATM   17  C   LIG     1      22.868  21.720  22.002  1.00  0.00     0.009 C 
HETATM   18  C   LIG     1      22.527  20.642  23.045  1.00  0.00     0.047 C 
HETATM   19  C   LIG     1      23.879  20.143  23.668  1.00  0.00     0.128 C 
HETATM   20  O   LIG     1      28.403  21.872  22.406  1.00  0.00    -0.297 OA
HETATM   21  C   LIG     1      26.643  25.191  18.514  1.00  0.00     0.053 C 
ENDROOT
BRANCH  19  22
HETATM   22  C   LIG     1      24.153  20.751  25.057  1.00  0.00     0.184 C 
HETATM   23  O   LIG     1      23.935  21.945  25.211  1.00  0.00    -0.292 OA
BRANCH  22  24
HETATM   24  C   LIG     1      24.806  20.025  26.213  1.00  0.00     0.245 C 
BRANCH  24  25
HETATM   25  O   LIG     1      23.876  19.234  26.893  1.00  0.00    -0.393 OA
HETATM   26  H   LIG     1      23.117  19.098  26.267  1.00  0.00     0.209 HD
ENDBRANCH  24  25
ENDBRANCH  22  24
ENDBRANCH  19  22
BRANCH  19  27
HETATM   27  O   LIG     1      23.865  18.742  23.874  1.00  0.00    -0.381 OA
HETATM   28  H   LIG     1      23.163  18.492  24.528  1.00  0.00     0.211 HD
ENDBRANCH  19  27
TORSDOF 4
ENDMDL
MODEL 9
REMARK VINA RESULT:      -4.4     12.325     14.720
REMARK  4 active torsions:
REMARK  status: ('A' for Active; 'I' for Inactive)
REMARK    1  A    between atoms: C_19  and  C_21 
REMARK    2  A    between atoms: C_19  and  O_20 
REMARK    3  A    between atoms: C_21  and  C_22 
REMARK    4  A    between atoms: C_22  and  O_23 
ROOT
HETATM    1  O   LIG     1      20.089  20.690  27.574  1.00  0.00    -0.293 OA
HETATM    2  C   LIG     1      20.106  20.550  28.825  1.00  0.00     0.149 C 
HETATM    3  C   LIG     1      20.719  19.318  29.421  1.00  0.00     0.084 C 
HETATM    4  C   LIG     1      21.066  19.519  30.904  1.00  0.00     0.022 C 
HETATM    5  C   LIG     1      19.896  20.163  31.714  1.00  0.00    -0.009 C 
HETATM    6  C   LIG     1      18.689  19.193  31.762  1.00  0.00     0.021 C 
HETATM    7  C   LIG     1      19.433  21.454  31.011  1.00  0.00    -0.067 C 
HETATM    8  C   LIG     1      18.974  22.629  31.862  1.00  0.00     0.035 C 
HETATM    9  C   LIG     1      20.038  23.042  32.917  1.00  0.00     0.010 C 
HETATM   10  C   LIG     1      21.076  21.923  33.169  1.00  0.00     0.003 C 
HETATM   11  C   LIG     1      20.342  20.543  33.181  1.00  0.00     0.072 C 
HETATM   12  C   LIG     1      21.056  19.482  34.019  1.00  0.00     0.133 C 
HETATM   13  C   LIG     1      21.806  19.836  35.295  1.00  0.00     0.091 C 
HETATM   14  C   LIG     1      21.764  21.358  35.646  1.00  0.00     0.005 C 
HETATM   15  C   LIG     1      20.371  21.719  36.255  1.00  0.00     0.019 C 
HETATM   16  C   LIG     1      22.059  22.137  34.358  1.00  0.00     0.002 C 
HETATM   17  C   LIG     1      22.411  23.558  34.788  1.00  0.00     0.009 C 
HETATM   18  C   LIG     1      23.003  23.419  36.200  1.00  0.00     0.047 C 
HETATM   19  C   LIG     1      22.898  21.906  36.609  1.00  0.00     0.128 C 
HETATM   20  O   LIG     1      20.983  18.303  33.711  1.00  0.00    -0.297 OA
HETATM   21  C   LIG     1      19.504  21.588  29.676  1.00  0.00     0.053 C 
ENDROOT
BRANCH  19  22
HETATM   22  C   LIG     1      24.238  21.157  36.468  1.00  0.00     0.184 C 
HETATM   23  O   LIG     1      24.464  20.240  37.245  1.00  0.00    -0.292 OA
BRANCH  22  24
HETATM   24  C   LIG     1      25.363  21.554  35.537  1.00  0.00     0.245 C 
BRANCH  24  25
HETATM   25  O   LIG     1      25.306  20.821  34.347  1.00  0.00    -0.393 OA
HETATM   26  H   LIG     1      25.463  19.873  34.598  1.00  0.00     0.209 HD
ENDBRANCH  24  25
ENDBRANCH  22  24
ENDBRANCH  19  22
BRANCH  19  27
HETATM   27  O   LIG     1      22.537  21.764  37.971  1.00  0.00    -0.381 OA
HETATM   28  H   LIG     1      23.263  21.322  38.481  1.00  0.00     0.211 HD
ENDBRANCH  19  27
TORSDOF 4
ENDMDL
MODEL 10
REMARK VINA RESULT:      -4.3      3.059      4.854
REMARK  4 active torsions:
REMARK  status: ('A' for Active; 'I' for Inactive)
REMARK    1  A    between atoms: C_19  and  C_21 
REMARK    2  A    between atoms: C_19  and  O_20 
REMARK    3  A    between atoms: C_21  and  C_22 
REMARK    4  A    between atoms: C_22  and  O_23 
ROOT
HETATM    1  O   LIG     1      23.345  18.067  16.260  1.00  0.00    -0.293 OA
HETATM    2  C   LIG     1      23.574  18.961  17.115  1.00  0.00     0.149 C 
HETATM    3  C   LIG     1      22.441  19.507  17.933  1.00  0.00     0.084 C 
HETATM    4  C   LIG     1      22.948  20.217  19.197  1.00  0.00     0.022 C 
HETATM    5  C   LIG     1      24.120  21.206  18.904  1.00  0.00    -0.009 C 
HETATM    6  C   LIG     1      23.618  22.375  18.021  1.00  0.00     0.021 C 
HETATM    7  C   LIG     1      25.230  20.472  18.126  1.00  0.00    -0.067 C 
HETATM    8  C   LIG     1      26.682  20.837  18.398  1.00  0.00     0.035 C 
HETATM    9  C   LIG     1      27.041  20.734  19.907  1.00  0.00     0.010 C 
HETATM   10  C   LIG     1      25.783  20.741  20.808  1.00  0.00     0.003 C 
HETATM   11  C   LIG     1      24.755  21.771  20.236  1.00  0.00     0.072 C 
HETATM   12  C   LIG     1      23.818  22.347  21.297  1.00  0.00     0.133 C 
HETATM   13  C   LIG     1      24.281  22.609  22.723  1.00  0.00     0.091 C 
HETATM   14  C   LIG     1      25.779  22.237  22.974  1.00  0.00     0.005 C 
HETATM   15  C   LIG     1      26.703  23.344  22.373  1.00  0.00     0.019 C 
HETATM   16  C   LIG     1      26.024  20.862  22.342  1.00  0.00     0.002 C 
HETATM   17  C   LIG     1      27.333  20.347  22.934  1.00  0.00     0.009 C 
HETATM   18  C   LIG     1      27.436  21.002  24.321  1.00  0.00     0.047 C 
HETATM   19  C   LIG     1      26.212  21.973  24.476  1.00  0.00     0.128 C 
HETATM   20  O   LIG     1      22.680  22.675  21.001  1.00  0.00    -0.297 OA
HETATM   21  C   LIG     1      24.944  19.470  17.278  1.00  0.00     0.053 C 
ENDROOT
BRANCH  19  22
HETATM   22  C   LIG     1      25.086  21.377  25.344  1.00  0.00     0.184 C 
HETATM   23  O   LIG     1      24.851  20.182  25.232  1.00  0.00    -0.292 OA
BRANCH  22  24
HETATM   24  C   LIG     1      24.149  22.176  26.224  1.00  0.00     0.245 C 
BRANCH  24  25
HETATM   25  O   LIG     1      24.846  22.774  27.279  1.00  0.00    -0.393 OA
HETATM   26  H   LIG     1      24.946  22.075  27.977  1.00  0.00     0.209 HD
ENDBRANCH  24  25
ENDBRANCH  22  24
ENDBRANCH  19  22
BRANCH  19  27
HETATM   27  O   LIG     1      26.586  23.173  25.128  1.00  0.00    -0.381 OA
HETATM   28  H   LIG     1      27.437  23.053  25.620  1.00  0.00     0.211 HD
ENDBRANCH  19  27
TORSDOF 4
ENDMDL
MODEL 11
REMARK VINA RESULT:      -4.3      4.270      7.021
REMARK  4 active torsions:
REMARK  status: ('A' for Active; 'I' for Inactive)
REMARK    1  A    between atoms: C_19  and  C_21 
REMARK    2  A    between atoms: C_19  and  O_20 
REMARK    3  A    between atoms: C_21  and  C_22 
REMARK    4  A    between atoms: C_22  and  O_23 
ROOT
HETATM    1  O   LIG     1      26.082  25.804  18.846  1.00  0.00    -0.293 OA
HETATM    2  C   LIG     1      26.488  25.129  19.828  1.00  0.00     0.149 C 
HETATM    3  C   LIG     1      27.706  25.578  20.579  1.00  0.00     0.084 C 
HETATM    4  C   LIG     1      27.782  24.934  21.971  1.00  0.00     0.022 C 
HETATM    5  C   LIG     1      27.528  23.394  21.937  1.00  0.00    -0.009 C 
HETATM    6  C   LIG     1      28.666  22.687  21.159  1.00  0.00     0.021 C 
HETATM    7  C   LIG     1      26.206  23.107  21.199  1.00  0.00    -0.067 C 
HETATM    8  C   LIG     1      25.336  21.953  21.674  1.00  0.00     0.035 C 
HETATM    9  C   LIG     1      24.998  22.055  23.188  1.00  0.00     0.010 C 
HETATM   10  C   LIG     1      25.964  23.003  23.939  1.00  0.00     0.003 C 
HETATM   11  C   LIG     1      27.413  22.789  23.392  1.00  0.00     0.072 C 
HETATM   12  C   LIG     1      28.503  23.131  24.407  1.00  0.00     0.133 C 
HETATM   13  C   LIG     1      28.322  22.879  25.897  1.00  0.00     0.091 C 
HETATM   14  C   LIG     1      26.941  22.246  26.263  1.00  0.00     0.005 C 
HETATM   15  C   LIG     1      26.951  20.723  25.913  1.00  0.00     0.019 C 
HETATM   16  C   LIG     1      25.861  23.017  25.493  1.00  0.00     0.002 C 
HETATM   17  C   LIG     1      24.532  22.668  26.156  1.00  0.00     0.009 C 
HETATM   18  C   LIG     1      24.880  22.344  27.618  1.00  0.00     0.047 C 
HETATM   19  C   LIG     1      26.443  22.420  27.758  1.00  0.00     0.128 C 
HETATM   20  O   LIG     1      29.582  23.561  24.031  1.00  0.00    -0.297 OA
HETATM   21  C   LIG     1      25.773  23.900  20.205  1.00  0.00     0.053 C 
ENDROOT
BRANCH  19  22
HETATM   22  C   LIG     1      26.917  23.732  28.414  1.00  0.00     0.184 C 
HETATM   23  O   LIG     1      26.336  24.765  28.109  1.00  0.00    -0.292 OA
BRANCH  22  24
HETATM   24  C   LIG     1      28.136  23.873  29.299  1.00  0.00     0.245 C 
BRANCH  24  25
HETATM   25  O   LIG     1      27.880  23.377  30.581  1.00  0.00    -0.393 OA
HETATM   26  H   LIG     1      28.458  22.577  30.690  1.00  0.00     0.209 HD
ENDBRANCH  24  25
ENDBRANCH  22  24
ENDBRANCH  19  22
BRANCH  19  27
HETATM   27  O   LIG     1      26.936  21.390  28.594  1.00  0.00    -0.381 OA
HETATM   28  H   LIG     1      26.903  20.516  28.128  1.00  0.00     0.211 HD
ENDBRANCH  19  27
TORSDOF 4
ENDMDL
MODEL 12
REMARK VINA RESULT:      -4.2      3.475      4.989
REMARK  4 active torsions:
REMARK  status: ('A' for Active; 'I' for Inactive)
REMARK    1  A    between atoms: C_19  and  C_21 
REMARK    2  A    between atoms: C_19  and  O_20 
REMARK    3  A    between atoms: C_21  and  C_22 
REMARK    4  A    between atoms: C_22  and  O_23 
ROOT
HETATM    1  O   LIG     1      23.705  20.382  17.511  1.00  0.00    -0.293 OA
HETATM    2  C   LIG     1      23.807  20.791  18.697  1.00  0.00     0.149 C 
HETATM    3  C   LIG     1      23.181  20.001  19.807  1.00  0.00     0.084 C 
HETATM    4  C   LIG     1      23.778  20.372  21.173  1.00  0.00     0.022 C 
HETATM    5  C   LIG     1      23.861  21.916  21.394  1.00  0.00    -0.009 C 
HETATM    6  C   LIG     1      22.436  22.519  21.456  1.00  0.00     0.021 C 
HETATM    7  C   LIG     1      24.595  22.567  20.205  1.00  0.00    -0.067 C 
HETATM    8  C   LIG     1      25.495  23.766  20.466  1.00  0.00     0.035 C 
HETATM    9  C   LIG     1      26.565  23.472  21.554  1.00  0.00     0.010 C 
HETATM   10  C   LIG     1      26.193  22.246  22.423  1.00  0.00     0.003 C 
HETATM   11  C   LIG     1      24.657  22.275  22.710  1.00  0.00     0.072 C 
HETATM   12  C   LIG     1      24.268  21.567  24.008  1.00  0.00     0.133 C 
HETATM   13  C   LIG     1      25.165  21.591  25.237  1.00  0.00     0.091 C 
HETATM   14  C   LIG     1      26.486  22.401  25.034  1.00  0.00     0.005 C 
HETATM   15  C   LIG     1      26.182  23.931  25.111  1.00  0.00     0.019 C 
HETATM   16  C   LIG     1      27.076  21.988  23.680  1.00  0.00     0.002 C 
HETATM   17  C   LIG     1      28.527  22.461  23.683  1.00  0.00     0.009 C 
HETATM   18  C   LIG     1      28.950  22.461  25.161  1.00  0.00     0.047 C 
HETATM   19  C   LIG     1      27.689  22.070  26.012  1.00  0.00     0.128 C 
HETATM   20  O   LIG     1      23.184  21.013  24.106  1.00  0.00    -0.297 OA
HETATM   21  C   LIG     1      24.519  22.050  18.967  1.00  0.00     0.053 C 
ENDROOT
BRANCH  19  22
HETATM   22  C   LIG     1      27.718  20.601  26.476  1.00  0.00     0.184 C 
HETATM   23  O   LIG     1      28.172  19.767  25.705  1.00  0.00    -0.292 OA
BRANCH  22  24
HETATM   24  C   LIG     1      27.099  20.079  27.755  1.00  0.00     0.245 C 
BRANCH  24  25
HETATM   25  O   LIG     1      27.914  20.363  28.855  1.00  0.00    -0.393 OA
HETATM   26  H   LIG     1      28.661  20.918  28.510  1.00  0.00     0.209 HD
ENDBRANCH  24  25
ENDBRANCH  22  24
ENDBRANCH  19  22
BRANCH  19  27
HETATM   27  O   LIG     1      27.616  22.832  27.203  1.00  0.00    -0.381 OA
HETATM   28  H   LIG     1      27.446  23.787  26.997  1.00  0.00     0.211 HD
ENDBRANCH  19  27
TORSDOF 4
ENDMDL
MODEL 13
REMARK VINA RESULT:      -4.2      2.004      3.366
REMARK  4 active torsions:
REMARK  status: ('A' for Active; 'I' for Inactive)
REMARK    1  A    between atoms: C_19  and  C_21 
REMARK    2  A    between atoms: C_19  and  O_20 
REMARK    3  A    between atoms: C_21  and  C_22 
REMARK    4  A    between atoms: C_22  and  O_23 
ROOT
HETATM    1  O   LIG     1      22.488  20.541  22.707  1.00  0.00    -0.293 OA
HETATM    2  C   LIG     1      23.158  21.046  21.768  1.00  0.00     0.149 C 
HETATM    3  C   LIG     1      22.838  22.433  21.297  1.00  0.00     0.084 C 
HETATM    4  C   LIG     1      24.003  23.044  20.504  1.00  0.00     0.022 C 
HETATM    5  C   LIG     1      24.575  22.070  19.426  1.00  0.00    -0.009 C 
HETATM    6  C   LIG     1      23.508  21.803  18.335  1.00  0.00     0.021 C 
HETATM    7  C   LIG     1      24.922  20.720  20.085  1.00  0.00    -0.067 C 
HETATM    8  C   LIG     1      26.135  19.950  19.586  1.00  0.00     0.035 C 
HETATM    9  C   LIG     1      27.428  20.812  19.608  1.00  0.00     0.010 C 
HETATM   10  C   LIG     1      27.120  22.326  19.681  1.00  0.00     0.003 C 
HETATM   11  C   LIG     1      25.892  22.638  18.765  1.00  0.00     0.072 C 
HETATM   12  C   LIG     1      25.876  24.073  18.238  1.00  0.00     0.133 C 
HETATM   13  C   LIG     1      27.158  24.816  17.891  1.00  0.00     0.091 C 
HETATM   14  C   LIG     1      28.454  23.974  18.121  1.00  0.00     0.005 C 
HETATM   15  C   LIG     1      28.626  22.945  16.958  1.00  0.00     0.019 C 
HETATM   16  C   LIG     1      28.325  23.294  19.490  1.00  0.00     0.002 C 
HETATM   17  C   LIG     1      29.726  22.824  19.868  1.00  0.00     0.009 C 
HETATM   18  C   LIG     1      30.684  23.797  19.162  1.00  0.00     0.047 C 
HETATM   19  C   LIG     1      29.811  24.775  18.297  1.00  0.00     0.128 C 
HETATM   20  O   LIG     1      24.816  24.638  18.022  1.00  0.00    -0.297 OA
HETATM   21  C   LIG     1      24.225  20.256  21.136  1.00  0.00     0.053 C 
ENDROOT
BRANCH  19  22
HETATM   22  C   LIG     1      29.629  26.154  18.960  1.00  0.00     0.184 C 
HETATM   23  O   LIG     1      29.265  26.182  20.128  1.00  0.00    -0.292 OA
BRANCH  22  24
HETATM   24  C   LIG     1      29.725  27.484  18.246  1.00  0.00     0.245 C 
BRANCH  24  25
HETATM   25  O   LIG     1      28.492  28.144  18.254  1.00  0.00    -0.393 OA
HETATM   26  H   LIG     1      28.680  29.080  18.525  1.00  0.00     0.209 HD
ENDBRANCH  24  25
ENDBRANCH  22  24
ENDBRANCH  19  22
BRANCH  19  27
HETATM   27  O   LIG     1      30.422  25.043  17.048  1.00  0.00    -0.381 OA
HETATM   28  H   LIG     1      30.960  25.874  17.093  1.00  0.00     0.211 HD
ENDBRANCH  19  27
TORSDOF 4
ENDMDL
MODEL 14
REMARK VINA RESULT:      -4.2     13.264     15.301
REMARK  4 active torsions:
REMARK  status: ('A' for Active; 'I' for Inactive)
REMARK    1  A    between atoms: C_19  and  C_21 
REMARK    2  A    between atoms: C_19  and  O_20 
REMARK    3  A    between atoms: C_21  and  C_22 
REMARK    4  A    between atoms: C_22  and  O_23 
ROOT
HETATM    1  O   LIG     1      18.982  21.791  30.118  1.00  0.00    -0.293 OA
HETATM    2  C   LIG     1      19.569  21.481  31.187  1.00  0.00     0.149 C 
HETATM    3  C   LIG     1      20.260  20.154  31.293  1.00  0.00     0.084 C 
HETATM    4  C   LIG     1      21.279  20.137  32.441  1.00  0.00     0.022 C 
HETATM    5  C   LIG     1      20.698  20.713  33.771  1.00  0.00    -0.009 C 
HETATM    6  C   LIG     1      19.563  19.799  34.293  1.00  0.00     0.021 C 
HETATM    7  C   LIG     1      20.095  22.107  33.507  1.00  0.00    -0.067 C 
HETATM    8  C   LIG     1      20.211  23.174  34.586  1.00  0.00     0.035 C 
HETATM    9  C   LIG     1      21.681  23.394  35.039  1.00  0.00     0.010 C 
HETATM   10  C   LIG     1      22.596  22.207  34.652  1.00  0.00     0.003 C 
HETATM   11  C   LIG     1      21.816  20.871  34.876  1.00  0.00     0.072 C 
HETATM   12  C   LIG     1      22.727  19.676  35.161  1.00  0.00     0.133 C 
HETATM   13  C   LIG     1      24.019  19.821  35.951  1.00  0.00     0.091 C 
HETATM   14  C   LIG     1      24.302  21.281  36.430  1.00  0.00     0.005 C 
HETATM   15  C   LIG     1      23.403  21.615  37.663  1.00  0.00     0.019 C 
HETATM   16  C   LIG     1      24.038  22.215  35.242  1.00  0.00     0.002 C 
HETATM   17  C   LIG     1      24.693  23.548  35.591  1.00  0.00     0.009 C 
HETATM   18  C   LIG     1      25.861  23.192  36.526  1.00  0.00     0.047 C 
HETATM   19  C   LIG     1      25.805  21.644  36.783  1.00  0.00     0.128 C 
HETATM   20  O   LIG     1      22.397  18.554  34.810  1.00  0.00    -0.297 OA
HETATM   21  C   LIG     1      19.546  22.418  32.321  1.00  0.00     0.053 C 
ENDROOT
BRANCH  19  22
HETATM   22  C   LIG     1      26.838  20.865  35.945  1.00  0.00     0.184 C 
HETATM   23  O   LIG     1      27.338  19.865  36.442  1.00  0.00    -0.292 OA
BRANCH  22  24
HETATM   24  C   LIG     1      27.392  21.312  34.610  1.00  0.00     0.245 C 
BRANCH  24  25
HETATM   25  O   LIG     1      28.780  21.469  34.675  1.00  0.00    -0.393 OA
HETATM   26  H   LIG     1      28.940  22.370  35.060  1.00  0.00     0.209 HD
ENDBRANCH  24  25
ENDBRANCH  22  24
ENDBRANCH  19  22
BRANCH  19  27
HETATM   27  O   LIG     1      26.112  21.334  38.129  1.00  0.00    -0.381 OA
HETATM   28  H   LIG     1      25.297  21.373  38.692  1.00  0.00     0.211 HD
ENDBRANCH  19  27
TORSDOF 4
ENDMDL
MODEL 15
REMARK VINA RESULT:      -4.2      4.699      6.853
REMARK  4 active torsions:
REMARK  status: ('A' for Active; 'I' for Inactive)
REMARK    1  A    between atoms: C_19  and  C_21 
REMARK    2  A    between atoms: C_19  and  O_20 
REMARK    3  A    between atoms: C_21  and  C_22 
REMARK    4  A    between atoms: C_22  and  O_23 
ROOT
HETATM    1  O   LIG     1      21.685  22.807  20.662  1.00  0.00    -0.293 OA
HETATM    2  C   LIG     1      22.670  22.442  21.357  1.00  0.00     0.149 C 
HETATM    3  C   LIG     1      23.973  23.173  21.231  1.00  0.00     0.084 C 
HETATM    4  C   LIG     1      24.887  22.913  22.438  1.00  0.00     0.022 C 
HETATM    5  C   LIG     1      24.983  21.398  22.805  1.00  0.00    -0.009 C 
HETATM    6  C   LIG     1      25.681  20.620  21.661  1.00  0.00     0.021 C 
HETATM    7  C   LIG     1      23.565  20.818  22.971  1.00  0.00    -0.067 C 
HETATM    8  C   LIG     1      23.329  19.750  24.029  1.00  0.00     0.035 C 
HETATM    9  C   LIG     1      23.803  20.203  25.438  1.00  0.00     0.010 C 
HETATM   10  C   LIG     1      24.791  21.392  25.368  1.00  0.00     0.003 C 
HETATM   11  C   LIG     1      25.761  21.174  24.161  1.00  0.00     0.072 C 
HETATM   12  C   LIG     1      27.116  21.858  24.341  1.00  0.00     0.133 C 
HETATM   13  C   LIG     1      27.783  21.977  25.703  1.00  0.00     0.091 C 
HETATM   14  C   LIG     1      26.955  21.338  26.865  1.00  0.00     0.005 C 
HETATM   15  C   LIG     1      27.106  19.784  26.824  1.00  0.00     0.019 C 
HETATM   16  C   LIG     1      25.500  21.790  26.696  1.00  0.00     0.002 C 
HETATM   17  C   LIG     1      24.806  21.506  28.026  1.00  0.00     0.009 C 
HETATM   18  C   LIG     1      25.915  21.595  29.088  1.00  0.00     0.047 C 
HETATM   19  C   LIG     1      27.271  21.842  28.335  1.00  0.00     0.128 C 
HETATM   20  O   LIG     1      27.730  22.271  23.370  1.00  0.00    -0.297 OA
HETATM   21  C   LIG     1      22.528  21.291  22.262  1.00  0.00     0.053 C 
ENDROOT
BRANCH  19  22
HETATM   22  C   LIG     1      27.725  23.314  28.395  1.00  0.00     0.184 C 
HETATM   23  O   LIG     1      28.911  23.553  28.215  1.00  0.00    -0.292 OA
BRANCH  22  24
HETATM   24  C   LIG     1      26.849  24.479  28.800  1.00  0.00     0.245 C 
BRANCH  24  25
HETATM   25  O   LIG     1      26.120  24.958  27.707  1.00  0.00    -0.393 OA
HETATM   26  H   LIG     1      25.738  24.160  27.258  1.00  0.00     0.209 HD
ENDBRANCH  24  25
ENDBRANCH  22  24
ENDBRANCH  19  22
BRANCH  19  27
HETATM   27  O   LIG     1      28.328  21.105  28.921  1.00  0.00    -0.381 OA
HETATM   28  H   LIG     1      28.994  20.842  28.236  1.00  0.00     0.211 HD
ENDBRANCH  19  27
TORSDOF 4
ENDMDL
MODEL 16
REMARK VINA RESULT:      -4.2      3.198      5.000
REMARK  4 active torsions:
REMARK  status: ('A' for Active; 'I' for Inactive)
REMARK    1  A    between atoms: C_19  and  C_21 
REMARK    2  A    between atoms: C_19  and  O_20 
REMARK    3  A    between atoms: C_21  and  C_22 
REMARK    4  A    between atoms: C_22  and  O_23 
ROOT
HETATM    1  O   LIG     1      22.437  22.057  18.816  1.00  0.00    -0.293 OA
HETATM    2  C   LIG     1      23.358  21.877  19.654  1.00  0.00     0.149 C 
HETATM    3  C   LIG     1      24.788  21.974  19.211  1.00  0.00     0.084 C 
HETATM    4  C   LIG     1      25.736  22.186  20.402  1.00  0.00     0.022 C 
HETATM    5  C   LIG     1      25.449  21.205  21.582  1.00  0.00    -0.009 C 
HETATM    6  C   LIG     1      25.752  19.750  21.146  1.00  0.00     0.021 C 
HETATM    7  C   LIG     1      23.958  21.281  21.964  1.00  0.00    -0.067 C 
HETATM    8  C   LIG     1      23.566  21.135  23.427  1.00  0.00     0.035 C 
HETATM    9  C   LIG     1      24.321  22.141  24.340  1.00  0.00     0.010 C 
HETATM   10  C   LIG     1      25.585  22.714  23.658  1.00  0.00     0.003 C 
HETATM   11  C   LIG     1      26.297  21.571  22.864  1.00  0.00     0.072 C 
HETATM   12  C   LIG     1      27.801  21.790  22.700  1.00  0.00     0.133 C 
HETATM   13  C   LIG     1      28.639  22.455  23.782  1.00  0.00     0.091 C 
HETATM   14  C   LIG     1      27.818  22.875  25.044  1.00  0.00     0.005 C 
HETATM   15  C   LIG     1      27.521  21.615  25.919  1.00  0.00     0.019 C 
HETATM   16  C   LIG     1      26.538  23.562  24.553  1.00  0.00     0.002 C 
HETATM   17  C   LIG     1      25.965  24.308  25.755  1.00  0.00     0.009 C 
HETATM   18  C   LIG     1      27.178  24.647  26.637  1.00  0.00     0.047 C 
HETATM   19  C   LIG     1      28.443  24.001  25.967  1.00  0.00     0.128 C 
HETATM   20  O   LIG     1      28.379  21.371  21.710  1.00  0.00    -0.297 OA
HETATM   21  C   LIG     1      23.014  21.552  21.047  1.00  0.00     0.053 C 
ENDROOT
BRANCH  19  22
HETATM   22  C   LIG     1      29.295  25.027  25.194  1.00  0.00     0.184 C 
HETATM   23  O   LIG     1      30.512  24.946  25.289  1.00  0.00    -0.292 OA
BRANCH  22  24
HETATM   24  C   LIG     1      28.749  26.218  24.436  1.00  0.00     0.245 C 
BRANCH  24  25
HETATM   25  O   LIG     1      28.749  25.975  23.059  1.00  0.00    -0.393 OA
HETATM   26  H   LIG     1      29.006  26.831  22.627  1.00  0.00     0.209 HD
ENDBRANCH  24  25
ENDBRANCH  22  24
ENDBRANCH  19  22
BRANCH  19  27
HETATM   27  O   LIG     1      29.316  23.453  26.938  1.00  0.00    -0.381 OA
HETATM   28  H   LIG     1      30.256  23.697  26.741  1.00  0.00     0.211 HD
ENDBRANCH  19  27
TORSDOF 4
ENDMDL
MODEL 17
REMARK VINA RESULT:      -4.1      2.660      4.774
REMARK  4 active torsions:
REMARK  status: ('A' for Active; 'I' for Inactive)
REMARK    1  A    between atoms: C_19  and  C_21 
REMARK    2  A    between atoms: C_19  and  O_20 
REMARK    3  A    between atoms: C_21  and  C_22 
REMARK    4  A    between atoms: C_22  and  O_23 
ROOT
HETATM    1  O   LIG     1      21.980  19.498  17.448  1.00  0.00    -0.293 OA
HETATM    2  C   LIG     1      22.914  20.081  18.059  1.00  0.00     0.149 C 
HETATM    3  C   LIG     1      22.853  21.567  18.255  1.00  0.00     0.084 C 
HETATM    4  C   LIG     1      23.793  22.028  19.379  1.00  0.00     0.022 C 
HETATM    5  C   LIG     1      25.222  21.411  19.261  1.00  0.00    -0.009 C 
HETATM    6  C   LIG     1      25.921  21.934  17.982  1.00  0.00     0.021 C 
HETATM    7  C   LIG     1      25.112  19.878  19.144  1.00  0.00    -0.067 C 
HETATM    8  C   LIG     1      26.180  19.013  19.797  1.00  0.00     0.035 C 
HETATM    9  C   LIG     1      26.358  19.341  21.306  1.00  0.00     0.010 C 
HETATM   10  C   LIG     1      25.776  20.726  21.676  1.00  0.00     0.003 C 
HETATM   11  C   LIG     1      26.105  21.737  20.530  1.00  0.00     0.072 C 
HETATM   12  C   LIG     1      26.184  23.188  21.004  1.00  0.00     0.133 C 
HETATM   13  C   LIG     1      26.725  23.558  22.377  1.00  0.00     0.091 C 
HETATM   14  C   LIG     1      27.182  22.326  23.224  1.00  0.00     0.005 C 
HETATM   15  C   LIG     1      28.569  21.821  22.711  1.00  0.00     0.019 C 
HETATM   16  C   LIG     1      26.089  21.256  23.107  1.00  0.00     0.002 C 
HETATM   17  C   LIG     1      26.347  20.257  24.232  1.00  0.00     0.009 C 
HETATM   18  C   LIG     1      27.040  21.066  25.341  1.00  0.00     0.047 C 
HETATM   19  C   LIG     1      27.260  22.522  24.795  1.00  0.00     0.128 C 
HETATM   20  O   LIG     1      25.870  24.099  20.253  1.00  0.00    -0.297 OA
HETATM   21  C   LIG     1      24.057  19.296  18.549  1.00  0.00     0.053 C 
ENDROOT
BRANCH  19  22
HETATM   22  C   LIG     1      26.225  23.525  25.341  1.00  0.00     0.184 C 
HETATM   23  O   LIG     1      26.601  24.666  25.569  1.00  0.00    -0.292 OA
BRANCH  22  24
HETATM   24  C   LIG     1      24.811  23.179  25.754  1.00  0.00     0.245 C 
BRANCH  24  25
HETATM   25  O   LIG     1      24.685  23.182  27.147  1.00  0.00    -0.393 OA
HETATM   26  H   LIG     1      25.043  24.055  27.456  1.00  0.00     0.209 HD
ENDBRANCH  24  25
ENDBRANCH  22  24
ENDBRANCH  19  22
BRANCH  19  27
HETATM   27  O   LIG     1      28.518  23.036  25.193  1.00  0.00    -0.381 OA
HETATM   28  H   LIG     1      28.601  23.991  24.940  1.00  0.00     0.211 HD
ENDBRANCH  19  27
TORSDOF 4
ENDMDL
MODEL 18
REMARK VINA RESULT:      -4.0      2.402      3.717
REMARK  4 active torsions:
REMARK  status: ('A' for Active; 'I' for Inactive)
REMARK    1  A    between atoms: C_19  and  C_21 
REMARK    2  A    between atoms: C_19  and  O_20 
REMARK    3  A    between atoms: C_21  and  C_22 
REMARK    4  A    between atoms: C_22  and  O_23 
ROOT
HETATM    1  O   LIG     1      24.639  19.426  26.688  1.00  0.00    -0.293 OA
HETATM    2  C   LIG     1      24.581  19.952  25.546  1.00  0.00     0.149 C 
HETATM    3  C   LIG     1      23.953  21.304  25.387  1.00  0.00     0.084 C 
HETATM    4  C   LIG     1      24.371  21.971  24.068  1.00  0.00     0.022 C 
HETATM    5  C   LIG     1      24.249  21.012  22.843  1.00  0.00    -0.009 C 
HETATM    6  C   LIG     1      22.762  20.652  22.599  1.00  0.00     0.021 C 
HETATM    7  C   LIG     1      25.007  19.703  23.136  1.00  0.00    -0.067 C 
HETATM    8  C   LIG     1      25.730  19.001  21.996  1.00  0.00     0.035 C 
HETATM    9  C   LIG     1      26.721  19.945  21.259  1.00  0.00     0.010 C 
HETATM   10  C   LIG     1      26.419  21.438  21.533  1.00  0.00     0.003 C 
HETATM   11  C   LIG     1      24.870  21.649  21.538  1.00  0.00     0.072 C 
HETATM   12  C   LIG     1      24.449  23.068  21.154  1.00  0.00     0.133 C 
HETATM   13  C   LIG     1      25.218  23.884  20.125  1.00  0.00     0.091 C 
HETATM   14  C   LIG     1      26.447  23.132  19.518  1.00  0.00     0.005 C 
HETATM   15  C   LIG     1      25.957  22.091  18.462  1.00  0.00     0.019 C 
HETATM   16  C   LIG     1      27.205  22.477  20.680  1.00  0.00     0.002 C 
HETATM   17  C   LIG     1      28.582  22.107  20.136  1.00  0.00     0.009 C 
HETATM   18  C   LIG     1      28.863  23.124  19.018  1.00  0.00     0.047 C 
HETATM   19  C   LIG     1      27.584  24.023  18.865  1.00  0.00     0.128 C 
HETATM   20  O   LIG     1      23.435  23.558  21.625  1.00  0.00    -0.297 OA
HETATM   21  C   LIG     1      25.109  19.218  24.385  1.00  0.00     0.053 C 
ENDROOT
BRANCH  19  22
HETATM   22  C   LIG     1      27.744  25.402  19.535  1.00  0.00     0.184 C 
HETATM   23  O   LIG     1      27.135  26.346  19.050  1.00  0.00    -0.292 OA
BRANCH  22  24
HETATM   24  C   LIG     1      28.705  25.718  20.660  1.00  0.00     0.245 C 
BRANCH  24  25
HETATM   25  O   LIG     1      28.060  25.654  21.899  1.00  0.00    -0.393 OA
HETATM   26  H   LIG     1      27.102  25.482  21.703  1.00  0.00     0.209 HD
ENDBRANCH  24  25
ENDBRANCH  22  24
ENDBRANCH  19  22
BRANCH  19  27
HETATM   27  O   LIG     1      27.309  24.302  17.505  1.00  0.00    -0.381 OA
HETATM   28  H   LIG     1      26.389  24.020  17.269  1.00  0.00     0.211 HD
ENDBRANCH  19  27
TORSDOF 4
ENDMDL
MODEL 19
REMARK VINA RESULT:      -3.8      4.472      6.510
REMARK  4 active torsions:
REMARK  status: ('A' for Active; 'I' for Inactive)
REMARK    1  A    between atoms: C_19  and  C_21 
REMARK    2  A    between atoms: C_19  and  O_20 
REMARK    3  A    between atoms: C_21  and  C_22 
REMARK    4  A    between atoms: C_22  and  O_23 
ROOT
HETATM    1  O   LIG     1      25.345  23.594  18.997  1.00  0.00    -0.293 OA
HETATM    2  C   LIG     1      25.848  23.223  20.090  1.00  0.00     0.149 C 
HETATM    3  C   LIG     1      27.339  23.127  20.221  1.00  0.00     0.084 C 
HETATM    4  C   LIG     1      27.778  23.118  21.693  1.00  0.00     0.022 C 
HETATM    5  C   LIG     1      26.948  22.122  22.563  1.00  0.00    -0.009 C 
HETATM    6  C   LIG     1      27.220  20.667  22.106  1.00  0.00     0.021 C 
HETATM    7  C   LIG     1      25.445  22.402  22.373  1.00  0.00    -0.067 C 
HETATM    8  C   LIG     1      24.510  22.227  23.561  1.00  0.00     0.035 C 
HETATM    9  C   LIG     1      24.971  23.048  24.797  1.00  0.00     0.010 C 
HETATM   10  C   LIG     1      26.459  23.462  24.701  1.00  0.00     0.003 C 
HETATM   11  C   LIG     1      27.279  22.274  24.100  1.00  0.00     0.072 C 
HETATM   12  C   LIG     1      28.746  22.270  24.530  1.00  0.00     0.133 C 
HETATM   13  C   LIG     1      29.180  22.731  25.914  1.00  0.00     0.091 C 
HETATM   14  C   LIG     1      27.995  23.193  26.822  1.00  0.00     0.005 C 
HETATM   15  C   LIG     1      27.239  21.942  27.375  1.00  0.00     0.019 C 
HETATM   16  C   LIG     1      27.091  24.097  25.975  1.00  0.00     0.002 C 
HETATM   17  C   LIG     1      26.195  24.846  26.958  1.00  0.00     0.009 C 
HETATM   18  C   LIG     1      27.010  24.941  28.258  1.00  0.00     0.047 C 
HETATM   19  C   LIG     1      28.349  24.151  28.034  1.00  0.00     0.128 C 
HETATM   20  O   LIG     1      29.604  21.828  23.783  1.00  0.00    -0.297 OA
HETATM   21  C   LIG     1      24.962  22.870  21.210  1.00  0.00     0.053 C 
ENDROOT
BRANCH  19  22
HETATM   22  C   LIG     1      29.547  25.080  27.753  1.00  0.00     0.184 C 
HETATM   23  O   LIG     1      30.649  24.724  28.146  1.00  0.00    -0.292 OA
BRANCH  22  24
HETATM   24  C   LIG     1      29.452  26.467  27.156  1.00  0.00     0.245 C 
BRANCH  24  25
HETATM   25  O   LIG     1      29.706  26.435  25.781  1.00  0.00    -0.393 OA
HETATM   26  H   LIG     1      30.595  26.006  25.674  1.00  0.00     0.209 HD
ENDBRANCH  24  25
ENDBRANCH  22  24
ENDBRANCH  19  22
BRANCH  19  27
HETATM   27  O   LIG     1      28.713  23.417  29.188  1.00  0.00    -0.381 OA
HETATM   28  H   LIG     1      29.002  24.027  29.914  1.00  0.00     0.211 HD
ENDBRANCH  19  27
TORSDOF 4
ENDMDL
MODEL 20
REMARK VINA RESULT:      -3.8     13.590     15.456
REMARK  4 active torsions:
REMARK  status: ('A' for Active; 'I' for Inactive)
REMARK    1  A    between atoms: C_19  and  C_21 
REMARK    2  A    between atoms: C_19  and  O_20 
REMARK    3  A    between atoms: C_21  and  C_22 
REMARK    4  A    between atoms: C_22  and  O_23 
ROOT
HETATM    1  O   LIG     1      18.751  23.196  34.754  1.00  0.00    -0.293 OA
HETATM    2  C   LIG     1      19.912  22.740  34.922  1.00  0.00     0.149 C 
HETATM    3  C   LIG     1      20.542  21.910  33.843  1.00  0.00     0.084 C 
HETATM    4  C   LIG     1      22.068  21.836  34.005  1.00  0.00     0.022 C 
HETATM    5  C   LIG     1      22.503  21.503  35.467  1.00  0.00    -0.009 C 
HETATM    6  C   LIG     1      22.039  20.075  35.845  1.00  0.00     0.021 C 
HETATM    7  C   LIG     1      21.830  22.489  36.441  1.00  0.00    -0.067 C 
HETATM    8  C   LIG     1      22.599  22.946  37.672  1.00  0.00     0.035 C 
HETATM    9  C   LIG     1      23.988  23.542  37.309  1.00  0.00     0.010 C 
HETATM   10  C   LIG     1      24.451  23.125  35.893  1.00  0.00     0.003 C 
HETATM   11  C   LIG     1      24.067  21.629  35.653  1.00  0.00     0.072 C 
HETATM   12  C   LIG     1      24.975  20.922  34.648  1.00  0.00     0.133 C 
HETATM   13  C   LIG     1      26.459  21.242  34.541  1.00  0.00     0.091 C 
HETATM   14  C   LIG     1      26.939  22.338  35.547  1.00  0.00     0.005 C 
HETATM   15  C   LIG     1      27.081  21.717  36.973  1.00  0.00     0.019 C 
HETATM   16  C   LIG     1      25.917  23.481  35.504  1.00  0.00     0.002 C 
HETATM   17  C   LIG     1      26.591  24.682  36.160  1.00  0.00     0.009 C 
HETATM   18  C   LIG     1      28.096  24.486  35.914  1.00  0.00     0.047 C 
HETATM   19  C   LIG     1      28.280  23.104  35.189  1.00  0.00     0.128 C 
HETATM   20  O   LIG     1      24.535  20.027  33.944  1.00  0.00    -0.297 OA
HETATM   21  C   LIG     1      20.619  23.011  36.183  1.00  0.00     0.053 C 
ENDROOT
BRANCH  19  22
HETATM   22  C   LIG     1      28.516  23.255  33.674  1.00  0.00     0.184 C 
HETATM   23  O   LIG     1      29.224  22.425  33.121  1.00  0.00    -0.292 OA
BRANCH  22  24
HETATM   24  C   LIG     1      28.059  24.427  32.833  1.00  0.00     0.245 C 
BRANCH  24  25
HETATM   25  O   LIG     1      29.152  25.186  32.402  1.00  0.00    -0.393 OA
HETATM   26  H   LIG     1      29.915  24.556  32.327  1.00  0.00     0.209 HD
ENDBRANCH  24  25
ENDBRANCH  22  24
ENDBRANCH  19  22
BRANCH  19  27
HETATM   27  O   LIG     1      29.418  22.416  35.674  1.00  0.00    -0.381 OA
HETATM   28  H   LIG     1      29.990  23.020  36.212  1.00  0.00     0.211 HD
ENDBRANCH  19  27
TORSDOF 4
ENDMDL
