REMARK  4 active torsions:
REMARK  status: ('A' for Active; 'I' for Inactive)
REMARK    1  A    between atoms: C_19  and  C_21 
REMARK    2  A    between atoms: C_19  and  O_20 
REMARK    3  A    between atoms: C_21  and  C_22 
REMARK    4  A    between atoms: C_22  and  O_23 
ROOT
HETATM    1  O   LIG     1      -5.730   0.552  -2.320  1.00  0.00    -0.293 OA
HETATM    2  C   LIG     1      -4.730   0.211  -1.636  1.00  0.00     0.149 C 
HETATM    3  C   LIG     1      -4.185  -1.180  -1.768  1.00  0.00     0.084 C 
HETATM    4  C   LIG     1      -2.745  -1.276  -1.242  1.00  0.00     0.022 C 
HETATM    5  C   LIG     1      -2.568  -0.601   0.155  1.00  0.00    -0.009 C 
HETATM    6  C   LIG     1      -3.385  -1.371   1.222  1.00  0.00     0.021 C 
HETATM    7  C   LIG     1      -3.107   0.842   0.101  1.00  0.00    -0.067 C 
HETATM    8  C   LIG     1      -2.401   1.920   0.910  1.00  0.00     0.035 C 
HETATM    9  C   LIG     1      -0.881   1.991   0.594  1.00  0.00     0.010 C 
HETATM   10  C   LIG     1      -0.365   0.701  -0.087  1.00  0.00     0.003 C 
HETATM   11  C   LIG     1      -1.049  -0.535   0.583  1.00  0.00     0.072 C 
HETATM   12  C   LIG     1      -0.215  -1.813   0.494  1.00  0.00     0.133 C 
HETATM   13  C   LIG     1       1.305  -1.788   0.564  1.00  0.00     0.091 C 
HETATM   14  C   LIG     1       1.902  -0.354   0.736  1.00  0.00     0.005 C 
HETATM   15  C   LIG     1       1.734   0.111   2.218  1.00  0.00     0.019 C 
HETATM   16  C   LIG     1       1.178   0.568  -0.253  1.00  0.00     0.002 C 
HETATM   17  C   LIG     1       2.028   1.831  -0.361  1.00  0.00     0.009 C 
HETATM   18  C   LIG     1       3.467   1.377  -0.066  1.00  0.00     0.047 C 
HETATM   19  C   LIG     1       3.414  -0.148   0.306  1.00  0.00     0.128 C 
HETATM   20  O   LIG     1      -0.763  -2.902   0.429  1.00  0.00    -0.297 OA
HETATM   21  C   LIG     1      -4.130   1.177  -0.703  1.00  0.00     0.053 C 
ENDROOT
BRANCH  19  22
HETATM   22  C   LIG     1       3.851  -1.059  -0.858  1.00  0.00     0.184 C 
HETATM   23  O   LIG     1       4.021  -2.247  -0.620  1.00  0.00    -0.292 OA
BRANCH  22  24
HETATM   24  C   LIG     1       4.226  -0.582  -2.244  1.00  0.00     0.245 C 
BRANCH  24  25
HETATM   25  O   LIG     1       3.162   0.102  -2.840  1.00  0.00    -0.393 OA
HETATM   26  H   LIG     1       3.498   0.429  -3.715  1.00  0.00     0.209 HD
ENDBRANCH  24  25
ENDBRANCH  22  24
ENDBRANCH  19  22
BRANCH  19  27
HETATM   27  O   LIG     1       4.302  -0.451   1.366  1.00  0.00    -0.381 OA
HETATM   28  H   LIG     1       4.342   0.298   2.014  1.00  0.00     0.211 HD
ENDBRANCH  19  27
TORSDOF 4
