MODEL 1
REMARK VINA RESULT:      -5.8      0.000      0.000
REMARK  1 active torsions:
REMARK  status: ('A' for Active; 'I' for Inactive)
REMARK    1  A    between atoms: C_17  and  O_18 
ROOT
HETATM    1  C   LIG     1      22.075  22.666  21.434  1.00  0.00     0.024 C 
HETATM    2  C   LIG     1      23.298  21.725  21.523  1.00  0.00     0.021 C 
HETATM    3  C   LIG     1      24.459  22.401  22.296  1.00  0.00     0.018 C 
HETATM    4  C   LIG     1      25.119  23.558  21.514  1.00  0.00     0.011 C 
HETATM    5  C   LIG     1      25.122  23.356  19.972  1.00  0.00     0.024 C 
HETATM    6  C   LIG     1      26.274  24.093  19.293  1.00  0.00    -0.047 A 
HETATM    7  C   LIG     1      27.013  23.498  18.237  1.00  0.00    -0.049 A 
HETATM    8  C   LIG     1      26.738  22.090  17.769  1.00  0.00     0.039 C 
HETATM    9  C   LIG     1      25.330  21.623  18.141  1.00  0.00     0.010 C 
HETATM   10  C   LIG     1      25.094  21.847  19.641  1.00  0.00    -0.000 C 
HETATM   11  C   LIG     1      23.747  21.225  20.114  1.00  0.00     0.006 C 
HETATM   12  C   LIG     1      23.819  19.682  20.182  1.00  0.00     0.013 C 
HETATM   13  C   LIG     1      23.057  19.234  21.423  1.00  0.00     0.079 C 
HETATM   14  C   LIG     1      22.888  20.468  22.221  1.00  0.00     0.135 C 
HETATM   15  O   LIG     1      22.435  20.452  23.356  1.00  0.00    -0.297 OA
HETATM   16  C   LIG     1      28.054  24.217  17.627  1.00  0.00     0.044 A 
HETATM   17  C   LIG     1      28.332  25.533  18.011  1.00  0.00     0.066 A 
HETATM   18  C   LIG     1      27.568  26.140  19.007  1.00  0.00     0.037 A 
HETATM   19  C   LIG     1      26.541  25.432  19.634  1.00  0.00     0.011 A 
ENDROOT
BRANCH  17  20
HETATM   20  O   LIG     1      29.360  26.249  17.402  1.00  0.00    -0.361 OA
HETATM   21  H   LIG     1      29.248  26.660  16.483  1.00  0.00     0.217 HD
ENDBRANCH  17  20
TORSDOF 1
ENDMDL
MODEL 2
REMARK VINA RESULT:      -5.7     14.723     16.595
REMARK  1 active torsions:
REMARK  status: ('A' for Active; 'I' for Inactive)
REMARK    1  A    between atoms: C_17  and  O_18 
ROOT
HETATM    1  C   LIG     1      26.548  29.244  37.577  1.00  0.00     0.024 C 
HETATM    2  C   LIG     1      27.067  30.408  36.703  1.00  0.00     0.021 C 
HETATM    3  C   LIG     1      26.115  30.666  35.506  1.00  0.00     0.018 C 
HETATM    4  C   LIG     1      26.157  29.546  34.443  1.00  0.00     0.011 C 
HETATM    5  C   LIG     1      27.548  28.866  34.297  1.00  0.00     0.024 C 
HETATM    6  C   LIG     1      27.766  28.284  32.903  1.00  0.00    -0.047 A 
HETATM    7  C   LIG     1      29.014  28.404  32.237  1.00  0.00    -0.049 A 
HETATM    8  C   LIG     1      30.170  29.159  32.846  1.00  0.00     0.039 C 
HETATM    9  C   LIG     1      30.042  29.285  34.365  1.00  0.00     0.010 C 
HETATM   10  C   LIG     1      28.661  29.852  34.719  1.00  0.00    -0.000 C 
HETATM   11  C   LIG     1      28.539  30.171  36.238  1.00  0.00     0.006 C 
HETATM   12  C   LIG     1      29.345  31.433  36.627  1.00  0.00     0.013 C 
HETATM   13  C   LIG     1      28.523  32.217  37.641  1.00  0.00     0.079 C 
HETATM   14  C   LIG     1      27.164  31.638  37.547  1.00  0.00     0.135 C 
HETATM   15  O   LIG     1      26.207  32.126  38.129  1.00  0.00    -0.297 OA
HETATM   16  C   LIG     1      29.178  27.839  30.962  1.00  0.00     0.044 A 
HETATM   17  C   LIG     1      28.144  27.111  30.367  1.00  0.00     0.066 A 
HETATM   18  C   LIG     1      26.937  26.940  31.045  1.00  0.00     0.037 A 
HETATM   19  C   LIG     1      26.752  27.510  32.306  1.00  0.00     0.011 A 
ENDROOT
BRANCH  17  20
HETATM   20  O   LIG     1      28.308  26.544  29.105  1.00  0.00    -0.361 OA
HETATM   21  H   LIG     1      28.554  27.107  28.299  1.00  0.00     0.217 HD
ENDBRANCH  17  20
TORSDOF 1
ENDMDL
MODEL 3
REMARK VINA RESULT:      -5.6      2.258      3.420
REMARK  1 active torsions:
REMARK  status: ('A' for Active; 'I' for Inactive)
REMARK    1  A    between atoms: C_17  and  O_18 
ROOT
HETATM    1  C   LIG     1      23.935  19.018  16.934  1.00  0.00     0.024 C 
HETATM    2  C   LIG     1      23.186  19.518  18.190  1.00  0.00     0.021 C 
HETATM    3  C   LIG     1      22.612  20.940  17.960  1.00  0.00     0.018 C 
HETATM    4  C   LIG     1      23.702  22.033  17.895  1.00  0.00     0.011 C 
HETATM    5  C   LIG     1      24.939  21.745  18.793  1.00  0.00     0.024 C 
HETATM    6  C   LIG     1      25.649  23.024  19.228  1.00  0.00    -0.047 A 
HETATM    7  C   LIG     1      26.143  23.183  20.550  1.00  0.00    -0.049 A 
HETATM    8  C   LIG     1      25.943  22.124  21.606  1.00  0.00     0.039 C 
HETATM    9  C   LIG     1      25.671  20.747  20.999  1.00  0.00     0.010 C 
HETATM   10  C   LIG     1      24.526  20.850  19.983  1.00  0.00    -0.000 C 
HETATM   11  C   LIG     1      24.084  19.450  19.465  1.00  0.00     0.006 C 
HETATM   12  C   LIG     1      23.291  18.665  20.536  1.00  0.00     0.013 C 
HETATM   13  C   LIG     1      22.156  17.933  19.832  1.00  0.00     0.079 C 
HETATM   14  C   LIG     1      22.074  18.567  18.498  1.00  0.00     0.135 C 
HETATM   15  O   LIG     1      21.173  18.315  17.712  1.00  0.00    -0.297 OA
HETATM   16  C   LIG     1      26.806  24.369  20.906  1.00  0.00     0.044 A 
HETATM   17  C   LIG     1      27.035  25.369  19.956  1.00  0.00     0.066 A 
HETATM   18  C   LIG     1      26.605  25.189  18.642  1.00  0.00     0.037 A 
HETATM   19  C   LIG     1      25.928  24.024  18.277  1.00  0.00     0.011 A 
ENDROOT
BRANCH  17  20
HETATM   20  O   LIG     1      27.700  26.543  20.305  1.00  0.00    -0.361 OA
HETATM   21  H   LIG     1      28.579  26.525  20.810  1.00  0.00     0.217 HD
ENDBRANCH  17  20
TORSDOF 1
ENDMDL
MODEL 4
REMARK VINA RESULT:      -5.6      3.994      6.072
REMARK  1 active torsions:
REMARK  status: ('A' for Active; 'I' for Inactive)
REMARK    1  A    between atoms: C_17  and  O_18 
ROOT
HETATM    1  C   LIG     1      24.775  19.990  18.670  1.00  0.00     0.024 C 
HETATM    2  C   LIG     1      23.342  19.917  19.243  1.00  0.00     0.021 C 
HETATM    3  C   LIG     1      22.840  21.325  19.655  1.00  0.00     0.018 C 
HETATM    4  C   LIG     1      23.557  21.885  20.904  1.00  0.00     0.011 C 
HETATM    5  C   LIG     1      23.982  20.795  21.929  1.00  0.00     0.024 C 
HETATM    6  C   LIG     1      24.068  21.339  23.352  1.00  0.00    -0.047 A 
HETATM    7  C   LIG     1      23.594  20.590  24.462  1.00  0.00    -0.049 A 
HETATM    8  C   LIG     1      22.932  19.245  24.287  1.00  0.00     0.039 C 
HETATM    9  C   LIG     1      23.305  18.586  22.958  1.00  0.00     0.010 C 
HETATM   10  C   LIG     1      23.050  19.569  21.808  1.00  0.00    -0.000 C 
HETATM   11  C   LIG     1      23.239  18.894  20.418  1.00  0.00     0.006 C 
HETATM   12  C   LIG     1      22.074  17.933  20.082  1.00  0.00     0.013 C 
HETATM   13  C   LIG     1      21.753  18.091  18.601  1.00  0.00     0.079 C 
HETATM   14  C   LIG     1      22.435  19.342  18.203  1.00  0.00     0.135 C 
HETATM   15  O   LIG     1      22.275  19.849  17.102  1.00  0.00    -0.297 OA
HETATM   16  C   LIG     1      23.707  21.120  25.757  1.00  0.00     0.044 A 
HETATM   17  C   LIG     1      24.334  22.352  25.971  1.00  0.00     0.066 A 
HETATM   18  C   LIG     1      24.854  23.062  24.889  1.00  0.00     0.037 A 
HETATM   19  C   LIG     1      24.734  22.557  23.593  1.00  0.00     0.011 A 
ENDROOT
BRANCH  17  20
HETATM   20  O   LIG     1      24.453  22.875  27.257  1.00  0.00    -0.361 OA
HETATM   21  H   LIG     1      24.503  23.874  27.420  1.00  0.00     0.217 HD
ENDBRANCH  17  20
TORSDOF 1
ENDMDL
MODEL 5
REMARK VINA RESULT:      -5.5     11.860     13.942
REMARK  1 active torsions:
REMARK  status: ('A' for Active; 'I' for Inactive)
REMARK    1  A    between atoms: C_17  and  O_18 
ROOT
HETATM    1  C   LIG     1      30.684  26.489  29.493  1.00  0.00     0.024 C 
HETATM    2  C   LIG     1      29.214  26.849  29.185  1.00  0.00     0.021 C 
HETATM    3  C   LIG     1      29.024  28.386  29.119  1.00  0.00     0.018 C 
HETATM    4  C   LIG     1      29.143  29.073  30.498  1.00  0.00     0.011 C 
HETATM    5  C   LIG     1      28.641  28.200  31.683  1.00  0.00     0.024 C 
HETATM    6  C   LIG     1      28.156  29.043  32.859  1.00  0.00    -0.047 A 
HETATM    7  C   LIG     1      26.987  28.696  33.587  1.00  0.00    -0.049 A 
HETATM    8  C   LIG     1      26.134  27.512  33.202  1.00  0.00     0.039 C 
HETATM    9  C   LIG     1      26.908  26.490  32.367  1.00  0.00     0.010 C 
HETATM   10  C   LIG     1      27.579  27.197  31.182  1.00  0.00    -0.000 C 
HETATM   11  C   LIG     1      28.230  26.182  30.197  1.00  0.00     0.006 C 
HETATM   12  C   LIG     1      27.167  25.426  29.365  1.00  0.00     0.013 C 
HETATM   13  C   LIG     1      27.702  25.283  27.946  1.00  0.00     0.079 C 
HETATM   14  C   LIG     1      28.832  26.236  27.876  1.00  0.00     0.135 C 
HETATM   15  O   LIG     1      29.411  26.483  26.828  1.00  0.00    -0.297 OA
HETATM   16  C   LIG     1      26.584  29.488  34.674  1.00  0.00     0.044 A 
HETATM   17  C   LIG     1      27.355  30.582  35.082  1.00  0.00     0.066 A 
HETATM   18  C   LIG     1      28.535  30.889  34.407  1.00  0.00     0.037 A 
HETATM   19  C   LIG     1      28.940  30.121  33.313  1.00  0.00     0.011 A 
ENDROOT
BRANCH  17  20
HETATM   20  O   LIG     1      26.960  31.365  36.165  1.00  0.00    -0.361 OA
HETATM   21  H   LIG     1      27.097  31.057  37.121  1.00  0.00     0.217 HD
ENDBRANCH  17  20
TORSDOF 1
ENDMDL
MODEL 6
REMARK VINA RESULT:      -5.5     11.876     13.811
REMARK  1 active torsions:
REMARK  status: ('A' for Active; 'I' for Inactive)
REMARK    1  A    between atoms: C_17  and  O_18 
ROOT
HETATM    1  C   LIG     1      27.919  27.563  35.268  1.00  0.00     0.024 C 
HETATM    2  C   LIG     1      27.420  28.660  34.300  1.00  0.00     0.021 C 
HETATM    3  C   LIG     1      26.156  28.187  33.536  1.00  0.00     0.018 C 
HETATM    4  C   LIG     1      26.452  27.083  32.496  1.00  0.00     0.011 C 
HETATM    5  C   LIG     1      27.857  27.195  31.838  1.00  0.00     0.024 C 
HETATM    6  C   LIG     1      27.895  26.578  30.443  1.00  0.00    -0.047 A 
HETATM    7  C   LIG     1      28.592  27.202  29.376  1.00  0.00    -0.049 A 
HETATM    8  C   LIG     1      29.283  28.533  29.549  1.00  0.00     0.039 C 
HETATM    9  C   LIG     1      29.600  28.833  31.015  1.00  0.00     0.010 C 
HETATM   10  C   LIG     1      28.330  28.666  31.860  1.00  0.00    -0.000 C 
HETATM   11  C   LIG     1      28.547  29.132  33.329  1.00  0.00     0.006 C 
HETATM   12  C   LIG     1      28.622  30.674  33.438  1.00  0.00     0.013 C 
HETATM   13  C   LIG     1      27.882  31.088  34.703  1.00  0.00     0.079 C 
HETATM   14  C   LIG     1      27.104  29.890  35.088  1.00  0.00     0.135 C 
HETATM   15  O   LIG     1      26.280  29.912  35.991  1.00  0.00    -0.297 OA
HETATM   16  C   LIG     1      28.617  26.593  28.111  1.00  0.00     0.044 A 
HETATM   17  C   LIG     1      28.012  25.348  27.908  1.00  0.00     0.066 A 
HETATM   18  C   LIG     1      27.378  24.705  28.970  1.00  0.00     0.037 A 
HETATM   19  C   LIG     1      27.329  25.306  30.229  1.00  0.00     0.011 A 
ENDROOT
BRANCH  17  20
HETATM   20  O   LIG     1      28.042  24.739  26.656  1.00  0.00    -0.361 OA
HETATM   21  H   LIG     1      27.787  23.766  26.533  1.00  0.00     0.217 HD
ENDBRANCH  17  20
TORSDOF 1
ENDMDL
MODEL 7
REMARK VINA RESULT:      -5.5      1.739      2.133
REMARK  1 active torsions:
REMARK  status: ('A' for Active; 'I' for Inactive)
REMARK    1  A    between atoms: C_17  and  O_18 
ROOT
HETATM    1  C   LIG     1      23.032  22.297  21.798  1.00  0.00     0.024 C 
HETATM    2  C   LIG     1      23.900  21.584  20.737  1.00  0.00     0.021 C 
HETATM    3  C   LIG     1      25.282  21.197  21.325  1.00  0.00     0.018 C 
HETATM    4  C   LIG     1      26.195  22.416  21.584  1.00  0.00     0.011 C 
HETATM    5  C   LIG     1      25.991  23.584  20.577  1.00  0.00     0.024 C 
HETATM    6  C   LIG     1      27.246  24.436  20.414  1.00  0.00    -0.047 A 
HETATM    7  C   LIG     1      27.659  24.911  19.142  1.00  0.00    -0.049 A 
HETATM    8  C   LIG     1      26.913  24.553  17.880  1.00  0.00     0.039 C 
HETATM    9  C   LIG     1      25.471  24.128  18.162  1.00  0.00     0.010 C 
HETATM   10  C   LIG     1      25.459  23.032  19.235  1.00  0.00    -0.000 C 
HETATM   11  C   LIG     1      24.036  22.432  19.434  1.00  0.00     0.006 C 
HETATM   12  C   LIG     1      23.626  21.520  18.254  1.00  0.00     0.013 C 
HETATM   13  C   LIG     1      22.882  20.321  18.829  1.00  0.00     0.079 C 
HETATM   14  C   LIG     1      23.184  20.355  20.277  1.00  0.00     0.135 C 
HETATM   15  O   LIG     1      22.857  19.450  21.031  1.00  0.00    -0.297 OA
HETATM   16  C   LIG     1      28.811  25.707  19.037  1.00  0.00     0.044 A 
HETATM   17  C   LIG     1      29.522  26.085  20.181  1.00  0.00     0.066 A 
HETATM   18  C   LIG     1      29.084  25.669  21.438  1.00  0.00     0.037 A 
HETATM   19  C   LIG     1      27.950  24.863  21.556  1.00  0.00     0.011 A 
ENDROOT
BRANCH  17  20
HETATM   20  O   LIG     1      30.661  26.880  20.080  1.00  0.00    -0.361 OA
HETATM   21  H   LIG     1      30.631  27.797  19.647  1.00  0.00     0.217 HD
ENDBRANCH  17  20
TORSDOF 1
ENDMDL
MODEL 8
REMARK VINA RESULT:      -5.4      3.407      7.165
REMARK  1 active torsions:
REMARK  status: ('A' for Active; 'I' for Inactive)
REMARK    1  A    between atoms: C_17  and  O_18 
ROOT
HETATM    1  C   LIG     1      21.912  22.849  21.288  1.00  0.00     0.024 C 
HETATM    2  C   LIG     1      23.255  22.086  21.228  1.00  0.00     0.021 C 
HETATM    3  C   LIG     1      23.085  20.631  21.736  1.00  0.00     0.018 C 
HETATM    4  C   LIG     1      22.842  20.544  23.260  1.00  0.00     0.011 C 
HETATM    5  C   LIG     1      23.555  21.657  24.078  1.00  0.00     0.024 C 
HETATM    6  C   LIG     1      23.859  21.221  25.508  1.00  0.00    -0.047 A 
HETATM    7  C   LIG     1      25.091  21.545  26.136  1.00  0.00    -0.049 A 
HETATM    8  C   LIG     1      26.184  22.285  25.404  1.00  0.00     0.039 C 
HETATM    9  C   LIG     1      25.648  23.071  24.207  1.00  0.00     0.010 C 
HETATM   10  C   LIG     1      24.808  22.145  23.318  1.00  0.00    -0.000 C 
HETATM   11  C   LIG     1      24.386  22.843  21.991  1.00  0.00     0.006 C 
HETATM   12  C   LIG     1      25.576  22.985  21.013  1.00  0.00     0.013 C 
HETATM   13  C   LIG     1      25.059  22.711  19.607  1.00  0.00     0.079 C 
HETATM   14  C   LIG     1      23.739  22.074  19.814  1.00  0.00     0.135 C 
HETATM   15  O   LIG     1      23.097  21.593  18.892  1.00  0.00    -0.297 OA
HETATM   16  C   LIG     1      25.324  21.140  27.459  1.00  0.00     0.044 A 
HETATM   17  C   LIG     1      24.332  20.472  28.186  1.00  0.00     0.066 A 
HETATM   18  C   LIG     1      23.099  20.207  27.592  1.00  0.00     0.037 A 
HETATM   19  C   LIG     1      22.858  20.588  26.270  1.00  0.00     0.011 A 
ENDROOT
BRANCH  17  20
HETATM   20  O   LIG     1      24.560  20.076  29.502  1.00  0.00    -0.361 OA
HETATM   21  H   LIG     1      23.795  19.901  30.143  1.00  0.00     0.217 HD
ENDBRANCH  17  20
TORSDOF 1
ENDMDL
MODEL 9
REMARK VINA RESULT:      -5.4      3.008      6.895
REMARK  1 active torsions:
REMARK  status: ('A' for Active; 'I' for Inactive)
REMARK    1  A    between atoms: C_17  and  O_18 
ROOT
HETATM    1  C   LIG     1      25.791  21.751  20.000  1.00  0.00     0.024 C 
HETATM    2  C   LIG     1      24.252  21.614  19.973  1.00  0.00     0.021 C 
HETATM    3  C   LIG     1      23.586  22.706  20.850  1.00  0.00     0.018 C 
HETATM    4  C   LIG     1      23.808  22.489  22.363  1.00  0.00     0.011 C 
HETATM    5  C   LIG     1      23.896  20.994  22.781  1.00  0.00     0.024 C 
HETATM    6  C   LIG     1      23.466  20.770  24.228  1.00  0.00    -0.047 A 
HETATM    7  C   LIG     1      22.668  19.655  24.599  1.00  0.00    -0.049 A 
HETATM    8  C   LIG     1      22.159  18.668  23.578  1.00  0.00     0.039 C 
HETATM    9  C   LIG     1      22.990  18.683  22.294  1.00  0.00     0.010 C 
HETATM   10  C   LIG     1      23.110  20.122  21.776  1.00  0.00    -0.000 C 
HETATM   11  C   LIG     1      23.791  20.179  20.378  1.00  0.00     0.006 C 
HETATM   12  C   LIG     1      22.851  19.673  19.259  1.00  0.00     0.013 C 
HETATM   13  C   LIG     1      23.053  20.565  18.041  1.00  0.00     0.079 C 
HETATM   14  C   LIG     1      23.782  21.743  18.560  1.00  0.00     0.135 C 
HETATM   15  O   LIG     1      23.991  22.734  17.874  1.00  0.00    -0.297 OA
HETATM   16  C   LIG     1      22.308  19.476  25.944  1.00  0.00     0.044 A 
HETATM   17  C   LIG     1      22.775  20.351  26.930  1.00  0.00     0.066 A 
HETATM   18  C   LIG     1      23.608  21.412  26.576  1.00  0.00     0.037 A 
HETATM   19  C   LIG     1      23.961  21.614  25.240  1.00  0.00     0.011 A 
ENDROOT
BRANCH  17  20
HETATM   20  O   LIG     1      22.424  20.170  28.266  1.00  0.00    -0.361 OA
HETATM   21  H   LIG     1      21.456  20.170  28.565  1.00  0.00     0.217 HD
ENDBRANCH  17  20
TORSDOF 1
ENDMDL
MODEL 10
REMARK VINA RESULT:      -5.3      3.177      5.853
REMARK  1 active torsions:
REMARK  status: ('A' for Active; 'I' for Inactive)
REMARK    1  A    between atoms: C_17  and  O_18 
ROOT
HETATM    1  C   LIG     1      22.116  22.788  20.901  1.00  0.00     0.024 C 
HETATM    2  C   LIG     1      23.400  21.935  20.783  1.00  0.00     0.021 C 
HETATM    3  C   LIG     1      23.398  20.789  21.827  1.00  0.00     0.018 C 
HETATM    4  C   LIG     1      23.589  21.288  23.277  1.00  0.00     0.011 C 
HETATM    5  C   LIG     1      24.486  22.553  23.397  1.00  0.00     0.024 C 
HETATM    6  C   LIG     1      25.181  22.645  24.752  1.00  0.00    -0.047 A 
HETATM    7  C   LIG     1      26.534  23.060  24.864  1.00  0.00    -0.049 A 
HETATM    8  C   LIG     1      27.371  23.377  23.648  1.00  0.00     0.039 C 
HETATM    9  C   LIG     1      26.512  23.717  22.429  1.00  0.00     0.010 C 
HETATM   10  C   LIG     1      25.471  22.611  22.209  1.00  0.00    -0.000 C 
HETATM   11  C   LIG     1      24.688  22.811  20.878  1.00  0.00     0.006 C 
HETATM   12  C   LIG     1      25.557  22.475  19.643  1.00  0.00     0.013 C 
HETATM   13  C   LIG     1      24.673  21.754  18.634  1.00  0.00     0.079 C 
HETATM   14  C   LIG     1      23.472  21.362  19.404  1.00  0.00     0.135 C 
HETATM   15  O   LIG     1      22.606  20.638  18.935  1.00  0.00    -0.297 OA
HETATM   16  C   LIG     1      27.132  23.148  26.131  1.00  0.00     0.044 A 
HETATM   17  C   LIG     1      26.391  22.887  27.288  1.00  0.00     0.066 A 
HETATM   18  C   LIG     1      25.045  22.538  27.184  1.00  0.00     0.037 A 
HETATM   19  C   LIG     1      24.441  22.429  25.930  1.00  0.00     0.011 A 
ENDROOT
BRANCH  17  20
HETATM   20  O   LIG     1      26.981  22.981  28.547  1.00  0.00    -0.361 OA
HETATM   21  H   LIG     1      27.971  23.164  28.656  1.00  0.00     0.217 HD
ENDBRANCH  17  20
TORSDOF 1
ENDMDL
MODEL 11
REMARK VINA RESULT:      -5.3      1.064      6.582
REMARK  1 active torsions:
REMARK  status: ('A' for Active; 'I' for Inactive)
REMARK    1  A    between atoms: C_17  and  O_18 
ROOT
HETATM    1  C   LIG     1      29.995  25.369  19.433  1.00  0.00     0.024 C 
HETATM    2  C   LIG     1      28.838  25.558  18.425  1.00  0.00     0.021 C 
HETATM    3  C   LIG     1      27.646  26.296  19.087  1.00  0.00     0.018 C 
HETATM    4  C   LIG     1      26.900  25.432  20.130  1.00  0.00     0.011 C 
HETATM    5  C   LIG     1      26.889  23.913  19.799  1.00  0.00     0.024 C 
HETATM    6  C   LIG     1      25.682  23.198  20.400  1.00  0.00    -0.047 A 
HETATM    7  C   LIG     1      24.969  22.209  19.673  1.00  0.00    -0.049 A 
HETATM    8  C   LIG     1      25.331  21.854  18.251  1.00  0.00     0.039 C 
HETATM    9  C   LIG     1      26.771  22.237  17.908  1.00  0.00     0.010 C 
HETATM   10  C   LIG     1      27.013  23.708  18.273  1.00  0.00    -0.000 C 
HETATM   11  C   LIG     1      28.404  24.205  17.781  1.00  0.00     0.006 C 
HETATM   12  C   LIG     1      28.434  24.402  16.247  1.00  0.00     0.013 C 
HETATM   13  C   LIG     1      29.241  25.660  15.956  1.00  0.00     0.079 C 
HETATM   14  C   LIG     1      29.340  26.351  17.261  1.00  0.00     0.135 C 
HETATM   15  O   LIG     1      29.809  27.474  17.369  1.00  0.00    -0.297 OA
HETATM   16  C   LIG     1      23.875  21.562  20.268  1.00  0.00     0.044 A 
HETATM   17  C   LIG     1      23.516  21.841  21.591  1.00  0.00     0.066 A 
HETATM   18  C   LIG     1      24.252  22.768  22.328  1.00  0.00     0.037 A 
HETATM   19  C   LIG     1      25.332  23.432  21.744  1.00  0.00     0.011 A 
ENDROOT
BRANCH  17  20
HETATM   20  O   LIG     1      22.434  21.195  22.186  1.00  0.00    -0.361 OA
HETATM   21  H   LIG     1      22.222  20.224  21.987  1.00  0.00     0.217 HD
ENDBRANCH  17  20
TORSDOF 1
ENDMDL
MODEL 12
REMARK VINA RESULT:      -5.2      3.800      5.768
REMARK  1 active torsions:
REMARK  status: ('A' for Active; 'I' for Inactive)
REMARK    1  A    between atoms: C_17  and  O_18 
ROOT
HETATM    1  C   LIG     1      25.248  19.237  24.120  1.00  0.00     0.024 C 
HETATM    2  C   LIG     1      24.303  20.437  23.889  1.00  0.00     0.021 C 
HETATM    3  C   LIG     1      22.845  19.957  23.670  1.00  0.00     0.018 C 
HETATM    4  C   LIG     1      22.638  19.240  22.317  1.00  0.00     0.011 C 
HETATM    5  C   LIG     1      23.541  19.779  21.172  1.00  0.00     0.024 C 
HETATM    6  C   LIG     1      22.919  19.568  19.794  1.00  0.00    -0.047 A 
HETATM    7  C   LIG     1      22.988  20.569  18.790  1.00  0.00    -0.049 A 
HETATM    8  C   LIG     1      23.627  21.912  19.048  1.00  0.00     0.039 C 
HETATM    9  C   LIG     1      24.605  21.869  20.224  1.00  0.00     0.010 C 
HETATM   10  C   LIG     1      23.912  21.253  21.447  1.00  0.00    -0.000 C 
HETATM   11  C   LIG     1      24.799  21.349  22.723  1.00  0.00     0.006 C 
HETATM   12  C   LIG     1      24.862  22.794  23.272  1.00  0.00     0.013 C 
HETATM   13  C   LIG     1      24.815  22.716  24.792  1.00  0.00     0.079 C 
HETATM   14  C   LIG     1      24.365  21.337  25.082  1.00  0.00     0.135 C 
HETATM   15  O   LIG     1      24.083  20.967  26.212  1.00  0.00    -0.297 OA
HETATM   16  C   LIG     1      22.417  20.329  17.529  1.00  0.00     0.044 A 
HETATM   17  C   LIG     1      21.834  19.093  17.235  1.00  0.00     0.066 A 
HETATM   18  C   LIG     1      21.820  18.086  18.200  1.00  0.00     0.037 A 
HETATM   19  C   LIG     1      22.367  18.316  19.464  1.00  0.00     0.011 A 
ENDROOT
BRANCH  17  20
HETATM   20  O   LIG     1      21.274  18.851  15.983  1.00  0.00    -0.361 OA
HETATM   21  H   LIG     1      20.871  19.597  15.429  1.00  0.00     0.217 HD
ENDBRANCH  17  20
TORSDOF 1
ENDMDL
MODEL 13
REMARK VINA RESULT:      -5.2      3.774      5.625
REMARK  1 active torsions:
REMARK  status: ('A' for Active; 'I' for Inactive)
REMARK    1  A    between atoms: C_17  and  O_18 
ROOT
HETATM    1  C   LIG     1      26.336  21.221  20.008  1.00  0.00     0.024 C 
HETATM    2  C   LIG     1      25.281  22.273  20.420  1.00  0.00     0.021 C 
HETATM    3  C   LIG     1      25.901  23.694  20.447  1.00  0.00     0.018 C 
HETATM    4  C   LIG     1      26.897  23.902  21.610  1.00  0.00     0.011 C 
HETATM    5  C   LIG     1      26.544  23.099  22.894  1.00  0.00     0.024 C 
HETATM    6  C   LIG     1      27.081  23.763  24.159  1.00  0.00    -0.047 A 
HETATM    7  C   LIG     1      26.309  23.824  25.348  1.00  0.00    -0.049 A 
HETATM    8  C   LIG     1      24.899  23.288  25.409  1.00  0.00     0.039 C 
HETATM    9  C   LIG     1      24.625  22.258  24.312  1.00  0.00     0.010 C 
HETATM   10  C   LIG     1      25.022  22.841  22.949  1.00  0.00    -0.000 C 
HETATM   11  C   LIG     1      24.599  21.908  21.776  1.00  0.00     0.006 C 
HETATM   12  C   LIG     1      23.071  21.941  21.537  1.00  0.00     0.013 C 
HETATM   13  C   LIG     1      22.833  21.913  20.033  1.00  0.00     0.079 C 
HETATM   14  C   LIG     1      24.151  22.232  19.442  1.00  0.00     0.135 C 
HETATM   15  O   LIG     1      24.297  22.430  18.245  1.00  0.00    -0.297 OA
HETATM   16  C   LIG     1      26.846  24.429  26.496  1.00  0.00     0.044 A 
HETATM   17  C   LIG     1      28.156  24.920  26.495  1.00  0.00     0.066 A 
HETATM   18  C   LIG     1      28.938  24.806  25.346  1.00  0.00     0.037 A 
HETATM   19  C   LIG     1      28.411  24.223  24.192  1.00  0.00     0.011 A 
ENDROOT
BRANCH  17  20
HETATM   20  O   LIG     1      28.693  25.513  27.635  1.00  0.00    -0.361 OA
HETATM   21  H   LIG     1      29.471  25.097  28.134  1.00  0.00     0.217 HD
ENDBRANCH  17  20
TORSDOF 1
ENDMDL
MODEL 14
REMARK VINA RESULT:      -5.2      1.326      3.068
REMARK  1 active torsions:
REMARK  status: ('A' for Active; 'I' for Inactive)
REMARK    1  A    between atoms: C_17  and  O_18 
ROOT
HETATM    1  C   LIG     1      25.770  20.102  20.494  1.00  0.00     0.024 C 
HETATM    2  C   LIG     1      24.831  21.246  20.050  1.00  0.00     0.021 C 
HETATM    3  C   LIG     1      24.765  21.337  18.503  1.00  0.00     0.018 C 
HETATM    4  C   LIG     1      26.074  21.858  17.869  1.00  0.00     0.011 C 
HETATM    5  C   LIG     1      26.841  22.881  18.753  1.00  0.00     0.024 C 
HETATM    6  C   LIG     1      27.698  23.835  17.926  1.00  0.00    -0.047 A 
HETATM    7  C   LIG     1      27.778  25.218  18.237  1.00  0.00    -0.049 A 
HETATM    8  C   LIG     1      26.979  25.826  19.363  1.00  0.00     0.039 C 
HETATM    9  C   LIG     1      26.548  24.783  20.395  1.00  0.00     0.010 C 
HETATM   10  C   LIG     1      25.851  23.615  19.685  1.00  0.00    -0.000 C 
HETATM   11  C   LIG     1      25.231  22.609  20.699  1.00  0.00     0.006 C 
HETATM   12  C   LIG     1      23.961  23.180  21.372  1.00  0.00     0.013 C 
HETATM   13  C   LIG     1      22.949  22.048  21.496  1.00  0.00     0.079 C 
HETATM   14  C   LIG     1      23.464  20.989  20.600  1.00  0.00     0.135 C 
HETATM   15  O   LIG     1      22.822  19.980  20.348  1.00  0.00    -0.297 OA
HETATM   16  C   LIG     1      28.592  26.059  17.461  1.00  0.00     0.044 A 
HETATM   17  C   LIG     1      29.369  25.537  16.422  1.00  0.00     0.066 A 
HETATM   18  C   LIG     1      29.339  24.169  16.153  1.00  0.00     0.037 A 
HETATM   19  C   LIG     1      28.521  23.323  16.905  1.00  0.00     0.011 A 
ENDROOT
BRANCH  17  20
HETATM   20  O   LIG     1      30.183  26.370  15.656  1.00  0.00    -0.361 OA
HETATM   21  H   LIG     1      30.020  26.505  14.665  1.00  0.00     0.217 HD
ENDBRANCH  17  20
TORSDOF 1
ENDMDL
MODEL 15
REMARK VINA RESULT:      -5.1      4.413      6.918
REMARK  1 active torsions:
REMARK  status: ('A' for Active; 'I' for Inactive)
REMARK    1  A    between atoms: C_17  and  O_18 
ROOT
HETATM    1  C   LIG     1      26.184  24.860  27.252  1.00  0.00     0.024 C 
HETATM    2  C   LIG     1      26.506  23.350  27.179  1.00  0.00     0.021 C 
HETATM    3  C   LIG     1      27.362  23.029  25.927  1.00  0.00     0.018 C 
HETATM    4  C   LIG     1      26.577  23.159  24.603  1.00  0.00     0.011 C 
HETATM    5  C   LIG     1      25.070  22.794  24.724  1.00  0.00     0.024 C 
HETATM    6  C   LIG     1      24.485  22.300  23.404  1.00  0.00    -0.047 A 
HETATM    7  C   LIG     1      23.585  21.204  23.357  1.00  0.00    -0.049 A 
HETATM    8  C   LIG     1      23.203  20.435  24.598  1.00  0.00     0.039 C 
HETATM    9  C   LIG     1      23.431  21.248  25.874  1.00  0.00     0.010 C 
HETATM   10  C   LIG     1      24.864  21.796  25.885  1.00  0.00    -0.000 C 
HETATM   11  C   LIG     1      25.212  22.479  27.241  1.00  0.00     0.006 C 
HETATM   12  C   LIG     1      25.417  21.442  28.371  1.00  0.00     0.013 C 
HETATM   13  C   LIG     1      26.583  21.914  29.229  1.00  0.00     0.079 C 
HETATM   14  C   LIG     1      27.248  22.955  28.415  1.00  0.00     0.135 C 
HETATM   15  O   LIG     1      28.313  23.457  28.743  1.00  0.00    -0.297 OA
HETATM   16  C   LIG     1      23.055  20.792  22.123  1.00  0.00     0.044 A 
HETATM   17  C   LIG     1      23.361  21.487  20.949  1.00  0.00     0.066 A 
HETATM   18  C   LIG     1      24.197  22.601  21.001  1.00  0.00     0.037 A 
HETATM   19  C   LIG     1      24.745  23.013  22.217  1.00  0.00     0.011 A 
ENDROOT
BRANCH  17  20
HETATM   20  O   LIG     1      22.831  21.083  19.725  1.00  0.00    -0.361 OA
HETATM   21  H   LIG     1      22.130  20.353  19.666  1.00  0.00     0.217 HD
ENDBRANCH  17  20
TORSDOF 1
ENDMDL
MODEL 16
REMARK VINA RESULT:      -5.0     11.191     14.500
REMARK  1 active torsions:
REMARK  status: ('A' for Active; 'I' for Inactive)
REMARK    1  A    between atoms: C_17  and  O_18 
ROOT
HETATM    1  C   LIG     1      18.248  18.419  31.140  1.00  0.00     0.024 C 
HETATM    2  C   LIG     1      19.406  19.262  30.561  1.00  0.00     0.021 C 
HETATM    3  C   LIG     1      20.756  18.869  31.216  1.00  0.00     0.018 C 
HETATM    4  C   LIG     1      20.867  19.313  32.691  1.00  0.00     0.011 C 
HETATM    5  C   LIG     1      20.115  20.636  33.012  1.00  0.00     0.024 C 
HETATM    6  C   LIG     1      20.729  21.380  34.193  1.00  0.00    -0.047 A 
HETATM    7  C   LIG     1      20.879  22.792  34.182  1.00  0.00    -0.049 A 
HETATM    8  C   LIG     1      20.492  23.623  32.983  1.00  0.00     0.039 C 
HETATM    9  C   LIG     1      19.488  22.903  32.081  1.00  0.00     0.010 C 
HETATM   10  C   LIG     1      20.016  21.504  31.737  1.00  0.00    -0.000 C 
HETATM   11  C   LIG     1      19.124  20.793  30.678  1.00  0.00     0.006 C 
HETATM   12  C   LIG     1      19.314  21.398  29.267  1.00  0.00     0.013 C 
HETATM   13  C   LIG     1      19.299  20.253  28.263  1.00  0.00     0.079 C 
HETATM   14  C   LIG     1      19.475  19.035  29.084  1.00  0.00     0.135 C 
HETATM   15  O   LIG     1      19.649  17.933  28.585  1.00  0.00    -0.297 OA
HETATM   16  C   LIG     1      21.433  23.441  35.297  1.00  0.00     0.044 A 
HETATM   17  C   LIG     1      21.785  22.717  36.441  1.00  0.00     0.066 A 
HETATM   18  C   LIG     1      21.583  21.338  36.477  1.00  0.00     0.037 A 
HETATM   19  C   LIG     1      21.049  20.676  35.370  1.00  0.00     0.011 A 
ENDROOT
BRANCH  17  20
HETATM   20  O   LIG     1      22.328  23.361  37.550  1.00  0.00    -0.361 OA
HETATM   21  H   LIG     1      23.284  23.698  37.553  1.00  0.00     0.217 HD
ENDBRANCH  17  20
TORSDOF 1
ENDMDL
MODEL 17
REMARK VINA RESULT:      -4.9      4.266      6.566
REMARK  1 active torsions:
REMARK  status: ('A' for Active; 'I' for Inactive)
REMARK    1  A    between atoms: C_17  and  O_18 
ROOT
HETATM    1  C   LIG     1      27.444  22.530  27.247  1.00  0.00     0.024 C 
HETATM    2  C   LIG     1      27.324  23.890  26.523  1.00  0.00     0.021 C 
HETATM    3  C   LIG     1      25.837  24.306  26.375  1.00  0.00     0.018 C 
HETATM    4  C   LIG     1      25.061  23.438  25.360  1.00  0.00     0.011 C 
HETATM    5  C   LIG     1      25.927  22.926  24.174  1.00  0.00     0.024 C 
HETATM    6  C   LIG     1      25.098  22.666  22.920  1.00  0.00    -0.047 A 
HETATM    7  C   LIG     1      25.570  23.029  21.631  1.00  0.00    -0.049 A 
HETATM    8  C   LIG     1      26.887  23.740  21.439  1.00  0.00     0.039 C 
HETATM    9  C   LIG     1      27.831  23.538  22.625  1.00  0.00     0.010 C 
HETATM   10  C   LIG     1      27.104  23.896  23.928  1.00  0.00    -0.000 C 
HETATM   11  C   LIG     1      28.068  23.884  25.151  1.00  0.00     0.006 C 
HETATM   12  C   LIG     1      29.019  25.103  25.146  1.00  0.00     0.013 C 
HETATM   13  C   LIG     1      29.165  25.586  26.583  1.00  0.00     0.079 C 
HETATM   14  C   LIG     1      28.062  24.923  27.312  1.00  0.00     0.135 C 
HETATM   15  O   LIG     1      27.794  25.194  28.474  1.00  0.00    -0.297 OA
HETATM   16  C   LIG     1      24.783  22.757  20.501  1.00  0.00     0.044 A 
HETATM   17  C   LIG     1      23.566  22.079  20.626  1.00  0.00     0.066 A 
HETATM   18  C   LIG     1      23.128  21.668  21.885  1.00  0.00     0.037 A 
HETATM   19  C   LIG     1      23.891  21.947  23.020  1.00  0.00     0.011 A 
ENDROOT
BRANCH  17  20
HETATM   20  O   LIG     1      22.788  21.802  19.504  1.00  0.00    -0.361 OA
HETATM   21  H   LIG     1      22.657  22.485  18.767  1.00  0.00     0.217 HD
ENDBRANCH  17  20
TORSDOF 1
ENDMDL
MODEL 18
REMARK VINA RESULT:      -4.9      4.066      6.163
REMARK  1 active torsions:
REMARK  status: ('A' for Active; 'I' for Inactive)
REMARK    1  A    between atoms: C_17  and  O_18 
ROOT
HETATM    1  C   LIG     1      24.615  18.614  26.098  1.00  0.00     0.024 C 
HETATM    2  C   LIG     1      23.579  19.751  25.947  1.00  0.00     0.021 C 
HETATM    3  C   LIG     1      22.279  19.228  25.284  1.00  0.00     0.018 C 
HETATM    4  C   LIG     1      22.456  18.881  23.789  1.00  0.00     0.011 C 
HETATM    5  C   LIG     1      23.491  19.777  23.051  1.00  0.00     0.024 C 
HETATM    6  C   LIG     1      23.200  19.890  21.557  1.00  0.00    -0.047 A 
HETATM    7  C   LIG     1      23.332  21.124  20.868  1.00  0.00    -0.049 A 
HETATM    8  C   LIG     1      23.711  22.397  21.584  1.00  0.00     0.039 C 
HETATM    9  C   LIG     1      24.423  22.125  22.910  1.00  0.00     0.010 C 
HETATM   10  C   LIG     1      23.587  21.151  23.751  1.00  0.00    -0.000 C 
HETATM   11  C   LIG     1      24.171  20.977  25.184  1.00  0.00     0.006 C 
HETATM   12  C   LIG     1      23.918  22.224  26.064  1.00  0.00     0.013 C 
HETATM   13  C   LIG     1      23.571  21.742  27.466  1.00  0.00     0.079 C 
HETATM   14  C   LIG     1      23.269  20.303  27.302  1.00  0.00     0.135 C 
HETATM   15  O   LIG     1      22.816  19.624  28.212  1.00  0.00    -0.297 OA
HETATM   16  C   LIG     1      23.071  21.181  19.489  1.00  0.00     0.044 A 
HETATM   17  C   LIG     1      22.740  20.023  18.778  1.00  0.00     0.066 A 
HETATM   18  C   LIG     1      22.668  18.799  19.442  1.00  0.00     0.037 A 
HETATM   19  C   LIG     1      22.907  18.729  20.816  1.00  0.00     0.011 A 
ENDROOT
BRANCH  17  20
HETATM   20  O   LIG     1      22.488  20.077  17.409  1.00  0.00    -0.361 OA
HETATM   21  H   LIG     1      23.161  19.737  16.732  1.00  0.00     0.217 HD
ENDBRANCH  17  20
TORSDOF 1
ENDMDL
MODEL 19
REMARK VINA RESULT:      -4.9      1.408      2.922
REMARK  1 active torsions:
REMARK  status: ('A' for Active; 'I' for Inactive)
REMARK    1  A    between atoms: C_17  and  O_18 
ROOT
HETATM    1  C   LIG     1      25.489  20.123  20.700  1.00  0.00     0.024 C 
HETATM    2  C   LIG     1      24.877  21.482  21.110  1.00  0.00     0.021 C 
HETATM    3  C   LIG     1      24.319  22.232  19.873  1.00  0.00     0.018 C 
HETATM    4  C   LIG     1      25.426  22.755  18.930  1.00  0.00     0.011 C 
HETATM    5  C   LIG     1      26.735  23.167  19.660  1.00  0.00     0.024 C 
HETATM    6  C   LIG     1      27.516  24.232  18.894  1.00  0.00    -0.047 A 
HETATM    7  C   LIG     1      28.139  25.318  19.563  1.00  0.00    -0.049 A 
HETATM    8  C   LIG     1      28.014  25.509  21.056  1.00  0.00     0.039 C 
HETATM    9  C   LIG     1      27.651  24.209  21.775  1.00  0.00     0.010 C 
HETATM   10  C   LIG     1      26.416  23.583  21.114  1.00  0.00    -0.000 C 
HETATM   11  C   LIG     1      25.891  22.354  21.914  1.00  0.00     0.006 C 
HETATM   12  C   LIG     1      25.185  22.780  23.223  1.00  0.00     0.013 C 
HETATM   13  C   LIG     1      23.970  21.882  23.410  1.00  0.00     0.079 C 
HETATM   14  C   LIG     1      23.777  21.237  22.092  1.00  0.00     0.135 C 
HETATM   15  O   LIG     1      22.798  20.549  21.841  1.00  0.00    -0.297 OA
HETATM   16  C   LIG     1      28.863  26.267  18.824  1.00  0.00     0.044 A 
HETATM   17  C   LIG     1      29.025  26.121  17.442  1.00  0.00     0.066 A 
HETATM   18  C   LIG     1      28.465  25.021  16.792  1.00  0.00     0.037 A 
HETATM   19  C   LIG     1      27.728  24.079  17.511  1.00  0.00     0.011 A 
ENDROOT
BRANCH  17  20
HETATM   20  O   LIG     1      29.749  27.057  16.709  1.00  0.00    -0.361 OA
HETATM   21  H   LIG     1      29.663  27.123  15.701  1.00  0.00     0.217 HD
ENDBRANCH  17  20
TORSDOF 1
ENDMDL
MODEL 20
REMARK VINA RESULT:      -4.8      3.535      5.688
REMARK  1 active torsions:
REMARK  status: ('A' for Active; 'I' for Inactive)
REMARK    1  A    between atoms: C_17  and  O_18 
ROOT
HETATM    1  C   LIG     1      26.638  21.489  26.250  1.00  0.00     0.024 C 
HETATM    2  C   LIG     1      26.428  22.947  25.783  1.00  0.00     0.021 C 
HETATM    3  C   LIG     1      24.926  23.233  25.529  1.00  0.00     0.018 C 
HETATM    4  C   LIG     1      24.372  22.512  24.279  1.00  0.00     0.011 C 
HETATM    5  C   LIG     1      25.414  22.336  23.138  1.00  0.00     0.024 C 
HETATM    6  C   LIG     1      24.759  22.250  21.763  1.00  0.00    -0.047 A 
HETATM    7  C   LIG     1      25.315  22.908  20.635  1.00  0.00    -0.049 A 
HETATM    8  C   LIG     1      26.548  23.771  20.747  1.00  0.00     0.039 C 
HETATM    9  C   LIG     1      27.380  23.432  21.984  1.00  0.00     0.010 C 
HETATM   10  C   LIG     1      26.482  23.449  23.228  1.00  0.00    -0.000 C 
HETATM   11  C   LIG     1      27.307  23.289  24.539  1.00  0.00     0.006 C 
HETATM   12  C   LIG     1      28.097  24.573  24.882  1.00  0.00     0.013 C 
HETATM   13  C   LIG     1      28.031  24.773  26.390  1.00  0.00     0.079 C 
HETATM   14  C   LIG     1      26.948  23.870  26.838  1.00  0.00     0.135 C 
HETATM   15  O   LIG     1      26.528  23.876  27.986  1.00  0.00    -0.297 OA
HETATM   16  C   LIG     1      24.690  22.789  19.383  1.00  0.00     0.044 A 
HETATM   17  C   LIG     1      23.559  21.982  19.225  1.00  0.00     0.066 A 
HETATM   18  C   LIG     1      23.046  21.287  20.319  1.00  0.00     0.037 A 
HETATM   19  C   LIG     1      23.645  21.409  21.574  1.00  0.00     0.011 A 
ENDROOT
BRANCH  17  20
HETATM   20  O   LIG     1      22.943  21.858  17.982  1.00  0.00    -0.361 OA
HETATM   21  H   LIG     1      21.955  21.648  17.898  1.00  0.00     0.217 HD
ENDBRANCH  17  20
TORSDOF 1
ENDMDL
