REMARK  3 active torsions:
REMARK  status: ('A' for Active; 'I' for Inactive)
REMARK    1  A    between atoms: C_2  and  C_4 
REMARK    2  A    between atoms: C_4  and  C_5 
REMARK    3  A    between atoms: C_4  and  C_12 
ROOT
HETATM    1  C   LIG     1      -0.024   0.917   0.792  1.00  0.00     0.086 C 
ENDROOT
BRANCH   1   2
HETATM    2  C   LIG     1      -0.212   0.907   2.331  1.00  0.00     0.191 C 
HETATM    3 CL   LIG     1      -1.723   1.740   2.797  1.00  0.00    -0.107 Cl
HETATM    4 CL   LIG     1       1.131   1.765   3.141  1.00  0.00    -0.107 Cl
ENDBRANCH   1   2
BRANCH   1   5
HETATM    5  C   LIG     1       1.245   0.251   0.266  1.00  0.00    -0.047 A 
HETATM    6  C   LIG     1       2.053  -0.606   1.046  1.00  0.00     0.009 A 
HETATM    7  C   LIG     1       3.202  -1.188   0.503  1.00  0.00     0.024 A 
HETATM    8  C   LIG     1       3.565  -0.927  -0.820  1.00  0.00     0.034 A 
HETATM    9  C   LIG     1       2.776  -0.082  -1.604  1.00  0.00     0.024 A 
HETATM   10 CL   LIG     1       5.007  -1.661  -1.497  1.00  0.00    -0.084 Cl
HETATM   11  C   LIG     1       1.627   0.503  -1.066  1.00  0.00     0.009 A 
ENDBRANCH   1   5
BRANCH   1  12
HETATM   12  C   LIG     1      -1.252   0.374   0.061  1.00  0.00    -0.025 A 
HETATM   13  C   LIG     1      -2.011   1.266  -0.724  1.00  0.00     0.009 A 
HETATM   14  C   LIG     1      -3.143   0.828  -1.414  1.00  0.00     0.001 A 
HETATM   15  C   LIG     1      -3.537  -0.506  -1.336  1.00  0.00     0.002 A 
HETATM   16  C   LIG     1      -2.798  -1.407  -0.570  1.00  0.00     0.024 A 
HETATM   17  C   LIG     1      -1.660  -0.984   0.128  1.00  0.00     0.041 A 
HETATM   18 CL   LIG     1      -0.787  -2.205   1.047  1.00  0.00    -0.084 Cl
ENDBRANCH   1  12
TORSDOF 3
