MODEL 1
REMARK VINA RESULT:      -8.6      0.000      0.000
REMARK  3 active torsions:
REMARK  status: ('A' for Active; 'I' for Inactive)
REMARK    1  A    between atoms: C_2  and  C_4 
REMARK    2  A    between atoms: C_4  and  C_5 
REMARK    3  A    between atoms: C_4  and  C_12 
ROOT
HETATM    1  C   LIG     1      16.668  36.382  21.735  1.00  0.00     0.086 C 
ENDROOT
BRANCH   1   2
HETATM    2  C   LIG     1      16.316  35.082  20.966  1.00  0.00     0.191 C 
HETATM    3 CL   LIG     1      15.996  35.425  19.241  1.00  0.00    -0.107 Cl
HETATM    4 CL   LIG     1      14.839  34.329  21.634  1.00  0.00    -0.107 Cl
ENDBRANCH   1   2
BRANCH   1   5
HETATM    5  C   LIG     1      17.076  36.208  23.196  1.00  0.00    -0.047 A 
HETATM    6  C   LIG     1      17.187  34.949  23.827  1.00  0.00     0.009 A 
HETATM    7  C   LIG     1      17.570  34.858  25.168  1.00  0.00     0.024 A 
HETATM    8  C   LIG     1      17.845  36.014  25.901  1.00  0.00     0.034 A 
HETATM    9  C   LIG     1      17.740  37.267  25.291  1.00  0.00     0.024 A 
HETATM   10 CL   LIG     1      18.326  35.895  27.584  1.00  0.00    -0.084 Cl
HETATM   11  C   LIG     1      17.358  37.363  23.951  1.00  0.00     0.009 A 
ENDBRANCH   1   5
BRANCH   1  12
HETATM   12  C   LIG     1      17.703  37.225  20.990  1.00  0.00    -0.025 A 
HETATM   13  C   LIG     1      18.569  36.576  20.086  1.00  0.00     0.009 A 
HETATM   14  C   LIG     1      19.535  37.294  19.378  1.00  0.00     0.001 A 
HETATM   15  C   LIG     1      19.653  38.671  19.556  1.00  0.00     0.002 A 
HETATM   16  C   LIG     1      18.803  39.335  20.441  1.00  0.00     0.024 A 
HETATM   17  C   LIG     1      17.830  38.629  21.159  1.00  0.00     0.041 A 
HETATM   18 CL   LIG     1      16.795  39.564  22.232  1.00  0.00    -0.084 Cl
ENDBRANCH   1  12
TORSDOF 3
ENDMDL
MODEL 2
REMARK VINA RESULT:      -8.3      1.654      5.129
REMARK  3 active torsions:
REMARK  status: ('A' for Active; 'I' for Inactive)
REMARK    1  A    between atoms: C_2  and  C_4 
REMARK    2  A    between atoms: C_4  and  C_5 
REMARK    3  A    between atoms: C_4  and  C_12 
ROOT
HETATM    1  C   LIG     1      16.683  36.370  22.637  1.00  0.00     0.086 C 
ENDROOT
BRANCH   1   2
HETATM    2  C   LIG     1      15.233  36.919  22.620  1.00  0.00     0.191 C 
HETATM    3 CL   LIG     1      14.267  36.136  21.336  1.00  0.00    -0.107 Cl
HETATM    4 CL   LIG     1      15.221  38.675  22.287  1.00  0.00    -0.107 Cl
ENDBRANCH   1   2
BRANCH   1   5
HETATM    5  C   LIG     1      17.683  37.087  21.733  1.00  0.00    -0.047 A 
HETATM    6  C   LIG     1      18.208  38.367  22.017  1.00  0.00     0.009 A 
HETATM    7  C   LIG     1      19.124  38.968  21.149  1.00  0.00     0.024 A 
HETATM    8  C   LIG     1      19.531  38.307  19.988  1.00  0.00     0.034 A 
HETATM    9  C   LIG     1      19.021  37.040  19.694  1.00  0.00     0.024 A 
HETATM   10 CL   LIG     1      20.683  39.064  18.903  1.00  0.00    -0.084 Cl
HETATM   11  C   LIG     1      18.104  36.436  20.557  1.00  0.00     0.009 A 
ENDBRANCH   1   5
BRANCH   1  12
HETATM   12  C   LIG     1      17.236  36.256  24.058  1.00  0.00    -0.025 A 
HETATM   13  C   LIG     1      17.530  34.972  24.559  1.00  0.00     0.009 A 
HETATM   14  C   LIG     1      18.037  34.806  25.850  1.00  0.00     0.001 A 
HETATM   15  C   LIG     1      18.261  35.916  26.661  1.00  0.00     0.002 A 
HETATM   16  C   LIG     1      17.983  37.196  26.184  1.00  0.00     0.024 A 
HETATM   17  C   LIG     1      17.474  37.380  24.892  1.00  0.00     0.041 A 
HETATM   18 CL   LIG     1      17.177  39.037  24.379  1.00  0.00    -0.084 Cl
ENDBRANCH   1  12
TORSDOF 3
ENDMDL
MODEL 3
REMARK VINA RESULT:      -7.5      1.771      5.304
REMARK  3 active torsions:
REMARK  status: ('A' for Active; 'I' for Inactive)
REMARK    1  A    between atoms: C_2  and  C_4 
REMARK    2  A    between atoms: C_4  and  C_5 
REMARK    3  A    between atoms: C_4  and  C_12 
ROOT
HETATM    1  C   LIG     1      17.336  36.104  22.382  1.00  0.00     0.086 C 
ENDROOT
BRANCH   1   2
HETATM    2  C   LIG     1      15.971  35.413  22.131  1.00  0.00     0.191 C 
HETATM    3 CL   LIG     1      16.101  34.190  20.835  1.00  0.00    -0.107 Cl
HETATM    4 CL   LIG     1      14.743  36.603  21.608  1.00  0.00    -0.107 Cl
ENDBRANCH   1   2
BRANCH   1   5
HETATM    5  C   LIG     1      17.866  36.977  21.247  1.00  0.00    -0.047 A 
HETATM    6  C   LIG     1      18.032  38.375  21.355  1.00  0.00     0.009 A 
HETATM    7  C   LIG     1      18.526  39.117  20.278  1.00  0.00     0.024 A 
HETATM    8  C   LIG     1      18.861  38.482  19.080  1.00  0.00     0.034 A 
HETATM    9  C   LIG     1      18.703  37.099  18.958  1.00  0.00     0.024 A 
HETATM   10 CL   LIG     1      19.482  39.417  17.733  1.00  0.00    -0.084 Cl
HETATM   11  C   LIG     1      18.208  36.353  20.031  1.00  0.00     0.009 A 
ENDBRANCH   1   5
BRANCH   1  12
HETATM   12  C   LIG     1      17.353  36.878  23.700  1.00  0.00    -0.025 A 
HETATM   13  C   LIG     1      17.161  38.275  23.658  1.00  0.00     0.009 A 
HETATM   14  C   LIG     1      17.167  39.034  24.829  1.00  0.00     0.001 A 
HETATM   15  C   LIG     1      17.362  38.417  26.062  1.00  0.00     0.002 A 
HETATM   16  C   LIG     1      17.549  37.036  26.129  1.00  0.00     0.024 A 
HETATM   17  C   LIG     1      17.545  36.260  24.963  1.00  0.00     0.041 A 
HETATM   18 CL   LIG     1      17.768  34.525  25.159  1.00  0.00    -0.084 Cl
ENDBRANCH   1  12
TORSDOF 3
ENDMDL
MODEL 4
REMARK VINA RESULT:      -7.5      1.988      5.429
REMARK  3 active torsions:
REMARK  status: ('A' for Active; 'I' for Inactive)
REMARK    1  A    between atoms: C_2  and  C_4 
REMARK    2  A    between atoms: C_4  and  C_5 
REMARK    3  A    between atoms: C_4  and  C_12 
ROOT
HETATM    1  C   LIG     1      16.684  37.718  23.314  1.00  0.00     0.086 C 
ENDROOT
BRANCH   1   2
HETATM    2  C   LIG     1      17.591  38.944  23.031  1.00  0.00     0.191 C 
HETATM    3 CL   LIG     1      17.645  39.311  21.283  1.00  0.00    -0.107 Cl
HETATM    4 CL   LIG     1      19.272  38.624  23.552  1.00  0.00    -0.107 Cl
ENDBRANCH   1   2
BRANCH   1   5
HETATM    5  C   LIG     1      16.380  36.818  22.119  1.00  0.00    -0.047 A 
HETATM    6  C   LIG     1      17.356  36.416  21.181  1.00  0.00     0.009 A 
HETATM    7  C   LIG     1      17.012  35.587  20.109  1.00  0.00     0.024 A 
HETATM    8  C   LIG     1      15.696  35.146  19.955  1.00  0.00     0.034 A 
HETATM    9  C   LIG     1      14.720  35.535  20.875  1.00  0.00     0.024 A 
HETATM   10 CL   LIG     1      15.271  34.104  18.609  1.00  0.00    -0.084 Cl
HETATM   11  C   LIG     1      15.058  36.364  21.947  1.00  0.00     0.009 A 
ENDBRANCH   1   5
BRANCH   1  12
HETATM   12  C   LIG     1      17.195  36.886  24.490  1.00  0.00    -0.025 A 
HETATM   13  C   LIG     1      17.408  35.507  24.290  1.00  0.00     0.009 A 
HETATM   14  C   LIG     1      17.874  34.696  25.328  1.00  0.00     0.001 A 
HETATM   15  C   LIG     1      18.136  35.246  26.581  1.00  0.00     0.002 A 
HETATM   16  C   LIG     1      17.938  36.608  26.799  1.00  0.00     0.024 A 
HETATM   17  C   LIG     1      17.472  37.436  25.770  1.00  0.00     0.041 A 
HETATM   18 CL   LIG     1      17.277  39.144  26.144  1.00  0.00    -0.084 Cl
ENDBRANCH   1  12
TORSDOF 3
ENDMDL
MODEL 5
REMARK VINA RESULT:      -7.3      2.104      5.265
REMARK  3 active torsions:
REMARK  status: ('A' for Active; 'I' for Inactive)
REMARK    1  A    between atoms: C_2  and  C_4 
REMARK    2  A    between atoms: C_4  and  C_5 
REMARK    3  A    between atoms: C_4  and  C_12 
ROOT
HETATM    1  C   LIG     1      16.856  37.092  22.899  1.00  0.00     0.086 C 
ENDROOT
BRANCH   1   2
HETATM    2  C   LIG     1      17.961  37.945  22.224  1.00  0.00     0.191 C 
HETATM    3 CL   LIG     1      17.477  39.663  22.133  1.00  0.00    -0.107 Cl
HETATM    4 CL   LIG     1      18.256  37.393  20.549  1.00  0.00    -0.107 Cl
ENDBRANCH   1   2
BRANCH   1   5
HETATM    5  C   LIG     1      16.296  35.939  22.068  1.00  0.00    -0.047 A 
HETATM    6  C   LIG     1      14.956  35.882  21.624  1.00  0.00     0.009 A 
HETATM    7  C   LIG     1      14.506  34.799  20.862  1.00  0.00     0.024 A 
HETATM    8  C   LIG     1      15.379  33.760  20.533  1.00  0.00     0.034 A 
HETATM    9  C   LIG     1      16.707  33.803  20.964  1.00  0.00     0.024 A 
HETATM   10 CL   LIG     1      14.810  32.405  19.576  1.00  0.00    -0.084 Cl
HETATM   11  C   LIG     1      17.161  34.882  21.726  1.00  0.00     0.009 A 
ENDBRANCH   1   5
BRANCH   1  12
HETATM   12  C   LIG     1      17.279  36.594  24.281  1.00  0.00    -0.025 A 
HETATM   13  C   LIG     1      17.457  35.208  24.467  1.00  0.00     0.009 A 
HETATM   14  C   LIG     1      17.842  34.695  25.707  1.00  0.00     0.001 A 
HETATM   15  C   LIG     1      18.060  35.554  26.782  1.00  0.00     0.002 A 
HETATM   16  C   LIG     1      17.896  36.929  26.619  1.00  0.00     0.024 A 
HETATM   17  C   LIG     1      17.510  37.460  25.382  1.00  0.00     0.041 A 
HETATM   18 CL   LIG     1      17.352  39.210  25.278  1.00  0.00    -0.084 Cl
ENDBRANCH   1  12
TORSDOF 3
ENDMDL
MODEL 6
REMARK VINA RESULT:      -6.9      1.990      4.574
REMARK  3 active torsions:
REMARK  status: ('A' for Active; 'I' for Inactive)
REMARK    1  A    between atoms: C_2  and  C_4 
REMARK    2  A    between atoms: C_4  and  C_5 
REMARK    3  A    between atoms: C_4  and  C_12 
ROOT
HETATM    1  C   LIG     1      17.345  35.999  21.621  1.00  0.00     0.086 C 
ENDROOT
BRANCH   1   2
HETATM    2  C   LIG     1      16.529  36.560  22.814  1.00  0.00     0.191 C 
HETATM    3 CL   LIG     1      16.703  35.519  24.256  1.00  0.00    -0.107 Cl
HETATM    4 CL   LIG     1      14.787  36.622  22.419  1.00  0.00    -0.107 Cl
ENDBRANCH   1   2
BRANCH   1   5
HETATM    5  C   LIG     1      16.578  35.120  20.637  1.00  0.00    -0.047 A 
HETATM    6  C   LIG     1      16.185  35.554  19.351  1.00  0.00     0.009 A 
HETATM    7  C   LIG     1      15.487  34.697  18.495  1.00  0.00     0.024 A 
HETATM    8  C   LIG     1      15.169  33.400  18.903  1.00  0.00     0.034 A 
HETATM    9  C   LIG     1      15.552  32.956  20.171  1.00  0.00     0.024 A 
HETATM   10 CL   LIG     1      14.294  32.329  17.824  1.00  0.00    -0.084 Cl
HETATM   11  C   LIG     1      16.249  33.808  21.031  1.00  0.00     0.009 A 
ENDBRANCH   1   5
BRANCH   1  12
HETATM   12  C   LIG     1      18.101  37.099  20.875  1.00  0.00    -0.025 A 
HETATM   13  C   LIG     1      18.910  36.730  19.781  1.00  0.00     0.009 A 
HETATM   14  C   LIG     1      19.624  37.690  19.062  1.00  0.00     0.001 A 
HETATM   15  C   LIG     1      19.542  39.035  19.419  1.00  0.00     0.002 A 
HETATM   16  C   LIG     1      18.744  39.423  20.494  1.00  0.00     0.024 A 
HETATM   17  C   LIG     1      18.021  38.472  21.225  1.00  0.00     0.041 A 
HETATM   18 CL   LIG     1      17.027  39.070  22.549  1.00  0.00    -0.084 Cl
ENDBRANCH   1  12
TORSDOF 3
ENDMDL
MODEL 7
REMARK VINA RESULT:      -6.4     15.782     17.176
REMARK  3 active torsions:
REMARK  status: ('A' for Active; 'I' for Inactive)
REMARK    1  A    between atoms: C_2  and  C_4 
REMARK    2  A    between atoms: C_4  and  C_5 
REMARK    3  A    between atoms: C_4  and  C_12 
ROOT
HETATM    1  C   LIG     1      24.824  22.224  20.648  1.00  0.00     0.086 C 
ENDROOT
BRANCH   1   2
HETATM    2  C   LIG     1      24.061  23.121  21.657  1.00  0.00     0.191 C 
HETATM    3 CL   LIG     1      24.424  22.642  23.340  1.00  0.00    -0.107 Cl
HETATM    4 CL   LIG     1      22.294  22.964  21.437  1.00  0.00    -0.107 Cl
ENDBRANCH   1   2
BRANCH   1   5
HETATM    5  C   LIG     1      23.969  21.268  19.819  1.00  0.00    -0.047 A 
HETATM    6  C   LIG     1      23.423  21.606  18.561  1.00  0.00     0.009 A 
HETATM    7  C   LIG     1      22.651  20.682  17.851  1.00  0.00     0.024 A 
HETATM    8  C   LIG     1      22.411  19.412  18.379  1.00  0.00     0.034 A 
HETATM    9  C   LIG     1      22.945  19.063  19.622  1.00  0.00     0.024 A 
HETATM   10 CL   LIG     1      21.443  18.256  17.483  1.00  0.00    -0.084 Cl
HETATM   11  C   LIG     1      23.716  19.982  20.336  1.00  0.00     0.009 A 
ENDBRANCH   1   5
BRANCH   1  12
HETATM   12  C   LIG     1      25.744  23.039  19.738  1.00  0.00    -0.025 A 
HETATM   13  C   LIG     1      25.577  24.438  19.700  1.00  0.00     0.009 A 
HETATM   14  C   LIG     1      26.387  25.235  18.888  1.00  0.00     0.001 A 
HETATM   15  C   LIG     1      27.378  24.651  18.102  1.00  0.00     0.002 A 
HETATM   16  C   LIG     1      27.565  23.269  18.128  1.00  0.00     0.024 A 
HETATM   17  C   LIG     1      26.761  22.457  18.937  1.00  0.00     0.041 A 
HETATM   18 CL   LIG     1      27.093  20.728  18.913  1.00  0.00    -0.084 Cl
ENDBRANCH   1  12
TORSDOF 3
ENDMDL
MODEL 8
REMARK VINA RESULT:      -6.2      2.194      5.248
REMARK  3 active torsions:
REMARK  status: ('A' for Active; 'I' for Inactive)
REMARK    1  A    between atoms: C_2  and  C_4 
REMARK    2  A    between atoms: C_4  and  C_5 
REMARK    3  A    between atoms: C_4  and  C_12 
ROOT
HETATM    1  C   LIG     1      16.638  36.720  21.078  1.00  0.00     0.086 C 
ENDROOT
BRANCH   1   2
HETATM    2  C   LIG     1      17.868  37.343  20.369  1.00  0.00     0.191 C 
HETATM    3 CL   LIG     1      19.116  36.104  20.047  1.00  0.00    -0.107 Cl
HETATM    4 CL   LIG     1      18.626  38.596  21.394  1.00  0.00    -0.107 Cl
ENDBRANCH   1   2
BRANCH   1   5
HETATM    5  C   LIG     1      16.091  35.432  20.468  1.00  0.00    -0.047 A 
HETATM    6  C   LIG     1      16.068  35.180  19.078  1.00  0.00     0.009 A 
HETATM    7  C   LIG     1      15.557  33.977  18.582  1.00  0.00     0.024 A 
HETATM    8  C   LIG     1      15.061  33.010  19.459  1.00  0.00     0.034 A 
HETATM    9  C   LIG     1      15.077  33.244  20.835  1.00  0.00     0.024 A 
HETATM   10 CL   LIG     1      14.421  31.501  18.832  1.00  0.00    -0.084 Cl
HETATM   11  C   LIG     1      15.586  34.445  21.336  1.00  0.00     0.009 A 
ENDBRANCH   1   5
BRANCH   1  12
HETATM   12  C   LIG     1      16.871  36.541  22.578  1.00  0.00    -0.025 A 
HETATM   13  C   LIG     1      17.281  35.275  23.044  1.00  0.00     0.009 A 
HETATM   14  C   LIG     1      17.508  35.051  24.403  1.00  0.00     0.001 A 
HETATM   15  C   LIG     1      17.334  36.084  25.321  1.00  0.00     0.002 A 
HETATM   16  C   LIG     1      16.934  37.346  24.882  1.00  0.00     0.024 A 
HETATM   17  C   LIG     1      16.702  37.587  23.523  1.00  0.00     0.041 A 
HETATM   18 CL   LIG     1      16.222  39.220  23.072  1.00  0.00    -0.084 Cl
ENDBRANCH   1  12
TORSDOF 3
ENDMDL
MODEL 9
REMARK VINA RESULT:      -6.2     15.201     16.596
REMARK  3 active torsions:
REMARK  status: ('A' for Active; 'I' for Inactive)
REMARK    1  A    between atoms: C_2  and  C_4 
REMARK    2  A    between atoms: C_4  and  C_5 
REMARK    3  A    between atoms: C_4  and  C_12 
ROOT
HETATM    1  C   LIG     1      25.616  23.164  21.058  1.00  0.00     0.086 C 
ENDROOT
BRANCH   1   2
HETATM    2  C   LIG     1      26.324  22.277  22.115  1.00  0.00     0.191 C 
HETATM    3 CL   LIG     1      25.404  20.773  22.406  1.00  0.00    -0.107 Cl
HETATM    4 CL   LIG     1      26.445  23.129  23.681  1.00  0.00    -0.107 Cl
ENDBRANCH   1   2
BRANCH   1   5
HETATM    5  C   LIG     1      26.480  24.233  20.392  1.00  0.00    -0.047 A 
HETATM    6  C   LIG     1      27.871  24.352  20.606  1.00  0.00     0.009 A 
HETATM    7  C   LIG     1      28.606  25.352  19.962  1.00  0.00     0.024 A 
HETATM    8  C   LIG     1      27.970  26.246  19.097  1.00  0.00     0.034 A 
HETATM    9  C   LIG     1      26.595  26.140  18.875  1.00  0.00     0.024 A 
HETATM   10 CL   LIG     1      28.897  27.497  18.290  1.00  0.00    -0.084 Cl
HETATM   11  C   LIG     1      25.856  25.143  19.517  1.00  0.00     0.009 A 
ENDBRANCH   1   5
BRANCH   1  12
HETATM   12  C   LIG     1      24.892  22.330  20.001  1.00  0.00    -0.025 A 
HETATM   13  C   LIG     1      25.661  21.723  18.987  1.00  0.00     0.009 A 
HETATM   14  C   LIG     1      25.056  20.950  17.995  1.00  0.00     0.001 A 
HETATM   15  C   LIG     1      23.675  20.767  17.996  1.00  0.00     0.002 A 
HETATM   16  C   LIG     1      22.895  21.354  18.992  1.00  0.00     0.024 A 
HETATM   17  C   LIG     1      23.487  22.132  19.995  1.00  0.00     0.041 A 
HETATM   18 CL   LIG     1      22.416  22.809  21.217  1.00  0.00    -0.084 Cl
ENDBRANCH   1  12
TORSDOF 3
ENDMDL
MODEL 10
REMARK VINA RESULT:      -6.2      1.341      2.175
REMARK  3 active torsions:
REMARK  status: ('A' for Active; 'I' for Inactive)
REMARK    1  A    between atoms: C_2  and  C_4 
REMARK    2  A    between atoms: C_4  and  C_5 
REMARK    3  A    between atoms: C_4  and  C_12 
ROOT
HETATM    1  C   LIG     1      16.698  37.086  21.773  1.00  0.00     0.086 C 
ENDROOT
BRANCH   1   2
HETATM    2  C   LIG     1      16.079  35.892  21.001  1.00  0.00     0.191 C 
HETATM    3 CL   LIG     1      14.344  35.709  21.389  1.00  0.00    -0.107 Cl
HETATM    4 CL   LIG     1      16.883  34.360  21.451  1.00  0.00    -0.107 Cl
ENDBRANCH   1   2
BRANCH   1   5
HETATM    5  C   LIG     1      17.110  36.812  23.217  1.00  0.00    -0.047 A 
HETATM    6  C   LIG     1      17.461  37.829  24.131  1.00  0.00     0.009 A 
HETATM    7  C   LIG     1      17.827  37.511  25.442  1.00  0.00     0.024 A 
HETATM    8  C   LIG     1      17.850  36.180  25.863  1.00  0.00     0.034 A 
HETATM    9  C   LIG     1      17.505  35.162  24.970  1.00  0.00     0.024 A 
HETATM   10 CL   LIG     1      18.308  35.786  27.510  1.00  0.00    -0.084 Cl
HETATM   11  C   LIG     1      17.140  35.475  23.658  1.00  0.00     0.009 A 
ENDBRANCH   1   5
BRANCH   1  12
HETATM   12  C   LIG     1      17.851  37.731  21.003  1.00  0.00    -0.025 A 
HETATM   13  C   LIG     1      18.533  38.811  21.601  1.00  0.00     0.009 A 
HETATM   14  C   LIG     1      19.593  39.439  20.946  1.00  0.00     0.001 A 
HETATM   15  C   LIG     1      19.995  39.001  19.686  1.00  0.00     0.002 A 
HETATM   16  C   LIG     1      19.339  37.931  19.078  1.00  0.00     0.024 A 
HETATM   17  C   LIG     1      18.274  37.290  19.722  1.00  0.00     0.041 A 
HETATM   18 CL   LIG     1      17.529  35.937  18.878  1.00  0.00    -0.084 Cl
ENDBRANCH   1  12
TORSDOF 3
ENDMDL
MODEL 11
REMARK VINA RESULT:      -6.0     15.494     16.893
REMARK  3 active torsions:
REMARK  status: ('A' for Active; 'I' for Inactive)
REMARK    1  A    between atoms: C_2  and  C_4 
REMARK    2  A    between atoms: C_4  and  C_5 
REMARK    3  A    between atoms: C_4  and  C_12 
ROOT
HETATM    1  C   LIG     1      26.566  22.347  20.408  1.00  0.00     0.086 C 
ENDROOT
BRANCH   1   2
HETATM    2  C   LIG     1      27.063  21.053  19.713  1.00  0.00     0.191 C 
HETATM    3 CL   LIG     1      26.444  19.600  20.548  1.00  0.00    -0.107 Cl
HETATM    4 CL   LIG     1      28.847  20.958  19.747  1.00  0.00    -0.107 Cl
ENDBRANCH   1   2
BRANCH   1   5
HETATM    5  C   LIG     1      27.062  23.663  19.812  1.00  0.00    -0.047 A 
HETATM    6  C   LIG     1      27.292  23.852  18.431  1.00  0.00     0.009 A 
HETATM    7  C   LIG     1      27.743  25.083  17.948  1.00  0.00     0.024 A 
HETATM    8  C   LIG     1      27.972  26.143  18.828  1.00  0.00     0.034 A 
HETATM    9  C   LIG     1      27.748  25.972  20.196  1.00  0.00     0.024 A 
HETATM   10 CL   LIG     1      28.536  27.687  18.217  1.00  0.00    -0.084 Cl
HETATM   11  C   LIG     1      27.299  24.742  20.685  1.00  0.00     0.009 A 
ENDBRANCH   1   5
BRANCH   1  12
HETATM   12  C   LIG     1      25.045  22.371  20.557  1.00  0.00    -0.025 A 
HETATM   13  C   LIG     1      24.258  22.143  19.410  1.00  0.00     0.009 A 
HETATM   14  C   LIG     1      22.863  22.153  19.484  1.00  0.00     0.001 A 
HETATM   15  C   LIG     1      22.230  22.387  20.703  1.00  0.00     0.002 A 
HETATM   16  C   LIG     1      22.989  22.609  21.851  1.00  0.00     0.024 A 
HETATM   17  C   LIG     1      24.388  22.602  21.794  1.00  0.00     0.041 A 
HETATM   18 CL   LIG     1      25.250  22.872  23.304  1.00  0.00    -0.084 Cl
ENDBRANCH   1  12
TORSDOF 3
ENDMDL
MODEL 12
REMARK VINA RESULT:      -5.9     16.301     18.126
REMARK  3 active torsions:
REMARK  status: ('A' for Active; 'I' for Inactive)
REMARK    1  A    between atoms: C_2  and  C_4 
REMARK    2  A    between atoms: C_4  and  C_5 
REMARK    3  A    between atoms: C_4  and  C_12 
ROOT
HETATM    1  C   LIG     1      24.433  21.979  19.653  1.00  0.00     0.086 C 
ENDROOT
BRANCH   1   2
HETATM    2  C   LIG     1      25.815  22.675  19.561  1.00  0.00     0.191 C 
HETATM    3 CL   LIG     1      26.192  23.552  21.073  1.00  0.00    -0.107 Cl
HETATM    4 CL   LIG     1      25.835  23.878  18.239  1.00  0.00    -0.107 Cl
ENDBRANCH   1   2
BRANCH   1   5
HETATM    5  C   LIG     1      24.118  20.963  18.558  1.00  0.00    -0.047 A 
HETATM    6  C   LIG     1      25.112  20.322  17.785  1.00  0.00     0.009 A 
HETATM    7  C   LIG     1      24.758  19.398  16.798  1.00  0.00     0.024 A 
HETATM    8  C   LIG     1      23.414  19.098  16.565  1.00  0.00     0.034 A 
HETATM    9  C   LIG     1      22.420  19.723  17.321  1.00  0.00     0.024 A 
HETATM   10 CL   LIG     1      22.975  17.936  15.327  1.00  0.00    -0.084 Cl
HETATM   11  C   LIG     1      22.769  20.649  18.308  1.00  0.00     0.009 A 
ENDBRANCH   1   5
BRANCH   1  12
HETATM   12  C   LIG     1      24.190  21.366  21.033  1.00  0.00    -0.025 A 
HETATM   13  C   LIG     1      25.107  20.407  21.509  1.00  0.00     0.009 A 
HETATM   14  C   LIG     1      24.937  19.813  22.760  1.00  0.00     0.001 A 
HETATM   15  C   LIG     1      23.853  20.165  23.560  1.00  0.00     0.002 A 
HETATM   16  C   LIG     1      22.936  21.116  23.112  1.00  0.00     0.024 A 
HETATM   17  C   LIG     1      23.092  21.722  21.859  1.00  0.00     0.041 A 
HETATM   18 CL   LIG     1      21.892  22.924  21.398  1.00  0.00    -0.084 Cl
ENDBRANCH   1  12
TORSDOF 3
ENDMDL
MODEL 13
REMARK VINA RESULT:      -5.8      2.084      5.579
REMARK  3 active torsions:
REMARK  status: ('A' for Active; 'I' for Inactive)
REMARK    1  A    between atoms: C_2  and  C_4 
REMARK    2  A    between atoms: C_4  and  C_5 
REMARK    3  A    between atoms: C_4  and  C_12 
ROOT
HETATM    1  C   LIG     1      16.712  37.812  23.411  1.00  0.00     0.086 C 
ENDROOT
BRANCH   1   2
HETATM    2  C   LIG     1      17.618  39.032  23.105  1.00  0.00     0.191 C 
HETATM    3 CL   LIG     1      17.642  39.388  21.354  1.00  0.00    -0.107 Cl
HETATM    4 CL   LIG     1      19.306  38.709  23.597  1.00  0.00    -0.107 Cl
ENDBRANCH   1   2
BRANCH   1   5
HETATM    5  C   LIG     1      16.344  36.932  22.219  1.00  0.00    -0.047 A 
HETATM    6  C   LIG     1      15.034  36.464  21.974  1.00  0.00     0.009 A 
HETATM    7  C   LIG     1      14.762  35.664  20.861  1.00  0.00     0.024 A 
HETATM    8  C   LIG     1      15.785  35.317  19.977  1.00  0.00     0.034 A 
HETATM    9  C   LIG     1      17.086  35.773  20.205  1.00  0.00     0.024 A 
HETATM   10 CL   LIG     1      15.439  34.314  18.580  1.00  0.00    -0.084 Cl
HETATM   11  C   LIG     1      17.364  36.572  21.317  1.00  0.00     0.009 A 
ENDBRANCH   1   5
BRANCH   1  12
HETATM   12  C   LIG     1      17.266  36.958  24.552  1.00  0.00    -0.025 A 
HETATM   13  C   LIG     1      17.754  37.613  25.701  1.00  0.00     0.009 A 
HETATM   14  C   LIG     1      18.272  36.886  26.774  1.00  0.00     0.001 A 
HETATM   15  C   LIG     1      18.312  35.494  26.722  1.00  0.00     0.002 A 
HETATM   16  C   LIG     1      17.829  34.825  25.598  1.00  0.00     0.024 A 
HETATM   17  C   LIG     1      17.306  35.540  24.513  1.00  0.00     0.041 A 
HETATM   18 CL   LIG     1      16.704  34.598  23.153  1.00  0.00    -0.084 Cl
ENDBRANCH   1  12
TORSDOF 3
ENDMDL
MODEL 14
REMARK VINA RESULT:      -5.8     15.520     17.000
REMARK  3 active torsions:
REMARK  status: ('A' for Active; 'I' for Inactive)
REMARK    1  A    between atoms: C_2  and  C_4 
REMARK    2  A    between atoms: C_4  and  C_5 
REMARK    3  A    between atoms: C_4  and  C_12 
ROOT
HETATM    1  C   LIG     1      26.567  22.184  20.152  1.00  0.00     0.086 C 
ENDROOT
BRANCH   1   2
HETATM    2  C   LIG     1      26.787  21.050  19.118  1.00  0.00     0.191 C 
HETATM    3 CL   LIG     1      25.974  19.545  19.634  1.00  0.00    -0.107 Cl
HETATM    4 CL   LIG     1      28.527  20.675  18.947  1.00  0.00    -0.107 Cl
ENDBRANCH   1   2
BRANCH   1   5
HETATM    5  C   LIG     1      27.035  23.575  19.734  1.00  0.00    -0.047 A 
HETATM    6  C   LIG     1      27.258  24.628  20.649  1.00  0.00     0.009 A 
HETATM    7  C   LIG     1      27.691  25.879  20.201  1.00  0.00     0.024 A 
HETATM    8  C   LIG     1      27.906  26.103  18.840  1.00  0.00     0.034 A 
HETATM    9  C   LIG     1      27.690  25.073  17.922  1.00  0.00     0.024 A 
HETATM   10 CL   LIG     1      28.450  27.675  18.283  1.00  0.00    -0.084 Cl
HETATM   11  C   LIG     1      27.257  23.820  18.364  1.00  0.00     0.009 A 
ENDBRANCH   1   5
BRANCH   1  12
HETATM   12  C   LIG     1      25.122  22.235  20.647  1.00  0.00    -0.025 A 
HETATM   13  C   LIG     1      24.891  22.222  22.038  1.00  0.00     0.009 A 
HETATM   14  C   LIG     1      23.593  22.266  22.550  1.00  0.00     0.001 A 
HETATM   15  C   LIG     1      22.502  22.327  21.685  1.00  0.00     0.002 A 
HETATM   16  C   LIG     1      22.707  22.347  20.306  1.00  0.00     0.024 A 
HETATM   17  C   LIG     1      24.003  22.303  19.776  1.00  0.00     0.041 A 
HETATM   18 CL   LIG     1      24.152  22.355  18.024  1.00  0.00    -0.084 Cl
ENDBRANCH   1  12
TORSDOF 3
ENDMDL
