REMARK  1 active torsions:
REMARK  status: ('A' for Active; 'I' for Inactive)
REMARK    1  A    between atoms: O_1  and  C_2 
ROOT
HETATM    1  C   LIG     1       4.236  -0.054  -0.625  1.00  0.00     0.118 C 
HETATM    2  C   LIG     1       3.795   1.257   0.079  1.00  0.00     0.032 C 
HETATM    3  C   LIG     1       2.259   1.463   0.119  1.00  0.00     0.012 C 
HETATM    4  C   LIG     1       1.503   0.208   0.639  1.00  0.00    -0.036 C 
HETATM    5  C   LIG     1       1.908  -0.049   2.126  1.00  0.00     0.016 C 
HETATM    6  C   LIG     1       1.925  -0.979  -0.301  1.00  0.00    -0.004 C 
HETATM    7  C   LIG     1       0.968  -2.188  -0.186  1.00  0.00     0.006 C 
HETATM    8  C   LIG     1      -0.481  -1.813  -0.629  1.00  0.00     0.006 C 
HETATM    9  C   LIG     1      -0.706  -0.279  -0.664  1.00  0.00    -0.004 C 
HETATM   10  C   LIG     1      -0.074   0.362   0.606  1.00  0.00    -0.002 C 
HETATM   11  C   LIG     1      -0.658   1.773   0.896  1.00  0.00     0.007 C 
HETATM   12  C   LIG     1      -2.210   1.752   1.113  1.00  0.00     0.018 C 
HETATM   13  C   LIG     1      -2.931   0.559   0.406  1.00  0.00     0.021 C 
HETATM   14  C   LIG     1      -3.183  -0.629   1.377  1.00  0.00     0.024 C 
HETATM   15  C   LIG     1      -2.160   0.207  -0.873  1.00  0.00     0.006 C 
HETATM   16  C   LIG     1      -3.133  -0.545  -1.777  1.00  0.00     0.013 C 
HETATM   17  C   LIG     1      -4.468   0.180  -1.524  1.00  0.00     0.079 C 
HETATM   18  C   LIG     1      -4.263   0.871  -0.206  1.00  0.00     0.135 C 
HETATM   19  O   LIG     1      -5.116   1.560   0.331  1.00  0.00    -0.297 OA
HETATM   20  C   LIG     1       3.421  -1.300  -0.193  1.00  0.00     0.037 C 
ENDROOT
BRANCH   1  21
HETATM   21  O   LIG     1       5.610  -0.275  -0.437  1.00  0.00    -0.396 OA
HETATM   22  H   LIG     1       5.760  -0.419   0.534  1.00  0.00     0.210 HD
ENDBRANCH   1  21
TORSDOF 1
