REMARK  1 active torsions:
REMARK  status: ('A' for Active; 'I' for Inactive)
REMARK    1  A    between atoms: C_8  and  O_9 
ROOT
HETATM    1  C   LIG     1       0.959  -2.051   0.104  1.00  0.00     0.020 C 
HETATM    2  C   LIG     1       1.440  -0.619  -0.253  1.00  0.00    -0.017 C 
HETATM    3  C   LIG     1       2.253  -0.053   0.931  1.00  0.00    -0.072 C 
HETATM    4  C   LIG     1       1.600   0.383   2.026  1.00  0.00    -0.023 C 
HETATM    5  C   LIG     1       0.107   0.327   2.147  1.00  0.00     0.033 C 
HETATM    6  C   LIG     1       2.320  -0.758  -1.546  1.00  0.00     0.016 C 
HETATM    7  C   LIG     1       3.437   0.274  -1.638  1.00  0.00     0.033 C 
HETATM    8  C   LIG     1       4.415   0.029  -0.488  1.00  0.00     0.122 C 
HETATM    9  C   LIG     1       3.743   0.266   0.874  1.00  0.00     0.066 C 
HETATM   10  C   LIG     1       0.229   0.371  -0.477  1.00  0.00     0.003 C 
HETATM   11  C   LIG     1      -0.643   0.633   0.817  1.00  0.00    -0.001 C 
HETATM   12  C   LIG     1      -2.036  -0.084   0.777  1.00  0.00     0.006 C 
HETATM   13  C   LIG     1      -2.958   0.362   1.940  1.00  0.00     0.013 C 
HETATM   14  C   LIG     1      -3.861   1.464   1.400  1.00  0.00     0.079 C 
HETATM   15  C   LIG     1      -3.844   1.246  -0.063  1.00  0.00     0.135 C 
HETATM   16  O   LIG     1      -4.579   1.854  -0.828  1.00  0.00    -0.297 OA
HETATM   17  C   LIG     1      -2.854   0.219  -0.516  1.00  0.00     0.021 C 
HETATM   18  C   LIG     1      -3.623  -1.038  -0.981  1.00  0.00     0.024 C 
HETATM   19  C   LIG     1      -1.982   0.781  -1.664  1.00  0.00     0.018 C 
HETATM   20  C   LIG     1      -0.637   0.064  -1.728  1.00  0.00     0.007 C 
ENDROOT
BRANCH   8  21
HETATM   21  O   LIG     1       5.561   0.832  -0.625  1.00  0.00    -0.395 OA
HETATM   22  H   LIG     1       5.265   1.778  -0.674  1.00  0.00     0.210 HD
ENDBRANCH   8  21
TORSDOF 1
