MODEL 1
REMARK VINA RESULT:      -6.0      0.000      0.000
REMARK  1 active torsions:
REMARK  status: ('A' for Active; 'I' for Inactive)
REMARK    1  A    between atoms: O_1  and  C_2 
ROOT
HETATM    1  C   LIG     1      27.910  27.594  29.498  1.00  0.00     0.118 C 
HETATM    2  C   LIG     1      29.202  28.413  29.761  1.00  0.00     0.032 C 
HETATM    3  C   LIG     1      29.193  29.189  31.102  1.00  0.00     0.012 C 
HETATM    4  C   LIG     1      28.783  28.294  32.306  1.00  0.00    -0.036 C 
HETATM    5  C   LIG     1      29.861  27.180  32.500  1.00  0.00     0.016 C 
HETATM    6  C   LIG     1      27.374  27.696  31.948  1.00  0.00    -0.004 C 
HETATM    7  C   LIG     1      26.647  27.124  33.187  1.00  0.00     0.006 C 
HETATM    8  C   LIG     1      26.361  28.236  34.244  1.00  0.00     0.006 C 
HETATM    9  C   LIG     1      27.218  29.506  34.008  1.00  0.00    -0.004 C 
HETATM   10  C   LIG     1      28.680  29.085  33.675  1.00  0.00    -0.002 C 
HETATM   11  C   LIG     1      29.685  30.248  33.903  1.00  0.00     0.007 C 
HETATM   12  C   LIG     1      29.680  30.770  35.381  1.00  0.00     0.018 C 
HETATM   13  C   LIG     1      28.332  30.527  36.133  1.00  0.00     0.021 C 
HETATM   14  C   LIG     1      28.376  29.244  37.010  1.00  0.00     0.024 C 
HETATM   15  C   LIG     1      27.185  30.586  35.116  1.00  0.00     0.006 C 
HETATM   16  C   LIG     1      25.913  30.880  35.907  1.00  0.00     0.013 C 
HETATM   17  C   LIG     1      26.403  31.857  36.993  1.00  0.00     0.079 C 
HETATM   18  C   LIG     1      27.886  31.628  37.047  1.00  0.00     0.135 C 
HETATM   19  O   LIG     1      28.632  32.233  37.801  1.00  0.00    -0.297 OA
HETATM   20  C   LIG     1      27.430  26.775  30.723  1.00  0.00     0.037 C 
ENDROOT
BRANCH   1  21
HETATM   21  O   LIG     1      28.076  26.759  28.381  1.00  0.00    -0.396 OA
HETATM   22  H   LIG     1      28.557  25.945  28.685  1.00  0.00     0.210 HD
ENDBRANCH   1  21
TORSDOF 1
ENDMDL
MODEL 2
REMARK VINA RESULT:      -5.7      1.080      6.542
REMARK  1 active torsions:
REMARK  status: ('A' for Active; 'I' for Inactive)
REMARK    1  A    between atoms: O_1  and  C_2 
ROOT
HETATM    1  C   LIG     1      27.392  31.777  36.856  1.00  0.00     0.118 C 
HETATM    2  C   LIG     1      26.102  30.954  36.594  1.00  0.00     0.032 C 
HETATM    3  C   LIG     1      26.161  30.084  35.313  1.00  0.00     0.012 C 
HETATM    4  C   LIG     1      27.456  29.228  35.233  1.00  0.00    -0.036 C 
HETATM    5  C   LIG     1      27.460  28.201  36.411  1.00  0.00     0.016 C 
HETATM    6  C   LIG     1      28.656  30.238  35.328  1.00  0.00    -0.004 C 
HETATM    7  C   LIG     1      29.990  29.612  34.858  1.00  0.00     0.006 C 
HETATM    8  C   LIG     1      29.926  29.195  33.355  1.00  0.00     0.006 C 
HETATM    9  C   LIG     1      28.470  29.111  32.830  1.00  0.00    -0.004 C 
HETATM   10  C   LIG     1      27.582  28.396  33.890  1.00  0.00    -0.002 C 
HETATM   11  C   LIG     1      26.268  27.843  33.269  1.00  0.00     0.007 C 
HETATM   12  C   LIG     1      26.531  26.814  32.116  1.00  0.00     0.018 C 
HETATM   13  C   LIG     1      27.906  27.005  31.399  1.00  0.00     0.021 C 
HETATM   14  C   LIG     1      28.995  26.047  31.959  1.00  0.00     0.024 C 
HETATM   15  C   LIG     1      28.270  28.496  31.424  1.00  0.00     0.006 C 
HETATM   16  C   LIG     1      29.282  28.717  30.303  1.00  0.00     0.013 C 
HETATM   17  C   LIG     1      28.773  27.781  29.191  1.00  0.00     0.079 C 
HETATM   18  C   LIG     1      27.904  26.793  29.916  1.00  0.00     0.135 C 
HETATM   19  O   LIG     1      27.313  25.882  29.357  1.00  0.00    -0.297 OA
HETATM   20  C   LIG     1      28.699  30.962  36.679  1.00  0.00     0.037 C 
ENDROOT
BRANCH   1  21
HETATM   21  O   LIG     1      27.349  32.367  38.129  1.00  0.00    -0.396 OA
HETATM   22  H   LIG     1      26.393  32.453  38.387  1.00  0.00     0.210 HD
ENDBRANCH   1  21
TORSDOF 1
ENDMDL
MODEL 3
REMARK VINA RESULT:      -5.2     10.868     14.651
REMARK  1 active torsions:
REMARK  status: ('A' for Active; 'I' for Inactive)
REMARK    1  A    between atoms: O_1  and  C_2 
ROOT
HETATM    1  C   LIG     1      26.777  20.799  27.090  1.00  0.00     0.118 C 
HETATM    2  C   LIG     1      27.499  21.848  26.203  1.00  0.00     0.032 C 
HETATM    3  C   LIG     1      26.922  21.963  24.769  1.00  0.00     0.012 C 
HETATM    4  C   LIG     1      25.375  22.119  24.760  1.00  0.00    -0.036 C 
HETATM    5  C   LIG     1      24.997  23.469  25.450  1.00  0.00     0.016 C 
HETATM    6  C   LIG     1      24.805  20.879  25.540  1.00  0.00    -0.004 C 
HETATM    7  C   LIG     1      23.297  20.661  25.275  1.00  0.00     0.006 C 
HETATM    8  C   LIG     1      23.020  20.359  23.769  1.00  0.00     0.006 C 
HETATM    9  C   LIG     1      24.211  20.758  22.860  1.00  0.00    -0.004 C 
HETATM   10  C   LIG     1      24.751  22.150  23.304  1.00  0.00    -0.002 C 
HETATM   11  C   LIG     1      25.588  22.831  22.185  1.00  0.00     0.007 C 
HETATM   12  C   LIG     1      24.769  23.052  20.867  1.00  0.00     0.018 C 
HETATM   13  C   LIG     1      23.586  22.047  20.682  1.00  0.00     0.021 C 
HETATM   14  C   LIG     1      22.231  22.649  21.150  1.00  0.00     0.024 C 
HETATM   15  C   LIG     1      23.969  20.712  21.333  1.00  0.00     0.006 C 
HETATM   16  C   LIG     1      23.083  19.645  20.696  1.00  0.00     0.013 C 
HETATM   17  C   LIG     1      22.989  20.107  19.230  1.00  0.00     0.079 C 
HETATM   18  C   LIG     1      23.353  21.564  19.283  1.00  0.00     0.135 C 
HETATM   19  O   LIG     1      23.392  22.283  18.297  1.00  0.00    -0.297 OA
HETATM   20  C   LIG     1      25.230  20.874  27.013  1.00  0.00     0.037 C 
ENDROOT
BRANCH   1  21
HETATM   21  O   LIG     1      27.209  20.901  28.423  1.00  0.00    -0.396 OA
HETATM   22  H   LIG     1      26.859  20.111  28.912  1.00  0.00     0.210 HD
ENDBRANCH   1  21
TORSDOF 1
ENDMDL
MODEL 4
REMARK VINA RESULT:      -5.2     14.618     16.470
REMARK  1 active torsions:
REMARK  status: ('A' for Active; 'I' for Inactive)
REMARK    1  A    between atoms: O_1  and  C_2 
ROOT
HETATM    1  C   LIG     1      29.476  26.526  16.970  1.00  0.00     0.118 C 
HETATM    2  C   LIG     1      28.831  27.102  18.259  1.00  0.00     0.032 C 
HETATM    3  C   LIG     1      27.701  26.218  18.846  1.00  0.00     0.012 C 
HETATM    4  C   LIG     1      28.124  24.729  18.989  1.00  0.00    -0.036 C 
HETATM    5  C   LIG     1      29.287  24.628  20.028  1.00  0.00     0.016 C 
HETATM    6  C   LIG     1      28.569  24.260  17.557  1.00  0.00    -0.004 C 
HETATM    7  C   LIG     1      28.626  22.719  17.434  1.00  0.00     0.006 C 
HETATM    8  C   LIG     1      27.221  22.077  17.654  1.00  0.00     0.006 C 
HETATM    9  C   LIG     1      26.230  23.053  18.341  1.00  0.00    -0.004 C 
HETATM   10  C   LIG     1      26.957  23.788  19.504  1.00  0.00    -0.002 C 
HETATM   11  C   LIG     1      25.953  24.393  20.525  1.00  0.00     0.007 C 
HETATM   12  C   LIG     1      25.023  23.310  21.173  1.00  0.00     0.018 C 
HETATM   13  C   LIG     1      24.816  22.042  20.284  1.00  0.00     0.021 C 
HETATM   14  C   LIG     1      25.771  20.884  20.687  1.00  0.00     0.024 C 
HETATM   15  C   LIG     1      24.880  22.459  18.809  1.00  0.00     0.006 C 
HETATM   16  C   LIG     1      24.167  21.369  18.014  1.00  0.00     0.013 C 
HETATM   17  C   LIG     1      23.003  20.973  18.941  1.00  0.00     0.079 C 
HETATM   18  C   LIG     1      23.438  21.453  20.297  1.00  0.00     0.135 C 
HETATM   19  O   LIG     1      22.763  21.319  21.305  1.00  0.00    -0.297 OA
HETATM   20  C   LIG     1      29.809  25.014  17.059  1.00  0.00     0.037 C 
ENDROOT
BRANCH   1  21
HETATM   21  O   LIG     1      30.619  27.262  16.620  1.00  0.00    -0.396 OA
HETATM   22  H   LIG     1      31.246  27.224  17.389  1.00  0.00     0.210 HD
ENDBRANCH   1  21
TORSDOF 1
ENDMDL
MODEL 5
REMARK VINA RESULT:      -5.2     14.632     18.098
REMARK  1 active torsions:
REMARK  status: ('A' for Active; 'I' for Inactive)
REMARK    1  A    between atoms: O_1  and  C_2 
ROOT
HETATM    1  C   LIG     1      28.355  25.258  18.870  1.00  0.00     0.118 C 
HETATM    2  C   LIG     1      26.869  25.704  18.853  1.00  0.00     0.032 C 
HETATM    3  C   LIG     1      25.879  24.575  18.469  1.00  0.00     0.012 C 
HETATM    4  C   LIG     1      26.115  23.272  19.284  1.00  0.00    -0.036 C 
HETATM    5  C   LIG     1      25.825  23.557  20.792  1.00  0.00     0.016 C 
HETATM    6  C   LIG     1      27.613  22.866  19.037  1.00  0.00    -0.004 C 
HETATM    7  C   LIG     1      27.896  21.398  19.431  1.00  0.00     0.006 C 
HETATM    8  C   LIG     1      27.057  20.403  18.569  1.00  0.00     0.006 C 
HETATM    9  C   LIG     1      25.872  21.102  17.853  1.00  0.00    -0.004 C 
HETATM   10  C   LIG     1      25.173  22.075  18.847  1.00  0.00    -0.002 C 
HETATM   11  C   LIG     1      23.730  22.433  18.392  1.00  0.00     0.007 C 
HETATM   12  C   LIG     1      22.809  21.172  18.254  1.00  0.00     0.018 C 
HETATM   13  C   LIG     1      23.589  19.848  17.967  1.00  0.00     0.021 C 
HETATM   14  C   LIG     1      23.840  19.026  19.263  1.00  0.00     0.024 C 
HETATM   15  C   LIG     1      24.844  20.183  17.151  1.00  0.00     0.006 C 
HETATM   16  C   LIG     1      25.268  18.895  16.452  1.00  0.00     0.013 C 
HETATM   17  C   LIG     1      23.922  18.243  16.084  1.00  0.00     0.079 C 
HETATM   18  C   LIG     1      22.935  18.901  17.007  1.00  0.00     0.135 C 
HETATM   19  O   LIG     1      21.742  18.641  17.011  1.00  0.00    -0.297 OA
HETATM   20  C   LIG     1      28.594  23.906  19.591  1.00  0.00     0.037 C 
ENDROOT
BRANCH   1  21
HETATM   21  O   LIG     1      29.164  26.262  19.427  1.00  0.00    -0.396 OA
HETATM   22  H   LIG     1      30.032  26.249  18.946  1.00  0.00     0.210 HD
ENDBRANCH   1  21
TORSDOF 1
ENDMDL
MODEL 6
REMARK VINA RESULT:      -5.2     10.879     15.934
REMARK  1 active torsions:
REMARK  status: ('A' for Active; 'I' for Inactive)
REMARK    1  A    between atoms: O_1  and  C_2 
ROOT
HETATM    1  C   LIG     1      25.060  23.550  25.755  1.00  0.00     0.118 C 
HETATM    2  C   LIG     1      24.313  22.217  26.030  1.00  0.00     0.032 C 
HETATM    3  C   LIG     1      23.835  21.489  24.747  1.00  0.00     0.012 C 
HETATM    4  C   LIG     1      24.962  21.349  23.686  1.00  0.00    -0.036 C 
HETATM    5  C   LIG     1      26.092  20.437  24.263  1.00  0.00     0.016 C 
HETATM    6  C   LIG     1      25.473  22.807  23.393  1.00  0.00    -0.004 C 
HETATM    7  C   LIG     1      26.292  22.890  22.085  1.00  0.00     0.006 C 
HETATM    8  C   LIG     1      25.426  22.505  20.844  1.00  0.00     0.006 C 
HETATM    9  C   LIG     1      24.134  21.746  21.243  1.00  0.00    -0.004 C 
HETATM   10  C   LIG     1      24.475  20.687  22.331  1.00  0.00    -0.002 C 
HETATM   11  C   LIG     1      23.385  19.583  22.429  1.00  0.00     0.007 C 
HETATM   12  C   LIG     1      23.184  18.811  21.081  1.00  0.00     0.018 C 
HETATM   13  C   LIG     1      23.580  19.636  19.814  1.00  0.00     0.021 C 
HETATM   14  C   LIG     1      25.018  19.303  19.325  1.00  0.00     0.024 C 
HETATM   15  C   LIG     1      23.310  21.121  20.091  1.00  0.00     0.006 C 
HETATM   16  C   LIG     1      23.188  21.805  18.732  1.00  0.00     0.013 C 
HETATM   17  C   LIG     1      22.460  20.749  17.880  1.00  0.00     0.079 C 
HETATM   18  C   LIG     1      22.695  19.461  18.617  1.00  0.00     0.135 C 
HETATM   19  O   LIG     1      22.260  18.383  18.242  1.00  0.00    -0.297 OA
HETATM   20  C   LIG     1      26.117  23.453  24.626  1.00  0.00     0.037 C 
ENDROOT
BRANCH   1  21
HETATM   21  O   LIG     1      25.643  24.039  26.935  1.00  0.00    -0.396 OA
HETATM   22  H   LIG     1      25.319  24.969  27.066  1.00  0.00     0.210 HD
ENDBRANCH   1  21
TORSDOF 1
ENDMDL
MODEL 7
REMARK VINA RESULT:      -5.2     13.901     16.122
REMARK  1 active torsions:
REMARK  status: ('A' for Active; 'I' for Inactive)
REMARK    1  A    between atoms: O_1  and  C_2 
ROOT
HETATM    1  C   LIG     1      23.443  18.968  20.796  1.00  0.00     0.118 C 
HETATM    2  C   LIG     1      24.171  19.538  22.042  1.00  0.00     0.032 C 
HETATM    3  C   LIG     1      25.153  20.694  21.722  1.00  0.00     0.012 C 
HETATM    4  C   LIG     1      24.506  21.797  20.838  1.00  0.00    -0.036 C 
HETATM    5  C   LIG     1      23.344  22.471  21.635  1.00  0.00     0.016 C 
HETATM    6  C   LIG     1      23.990  21.073  19.542  1.00  0.00    -0.004 C 
HETATM    7  C   LIG     1      23.695  22.064  18.392  1.00  0.00     0.006 C 
HETATM    8  C   LIG     1      24.985  22.823  17.948  1.00  0.00     0.006 C 
HETATM    9  C   LIG     1      26.116  22.726  19.005  1.00  0.00    -0.004 C 
HETATM   10  C   LIG     1      25.515  22.947  20.423  1.00  0.00    -0.002 C 
HETATM   11  C   LIG     1      26.603  23.347  21.459  1.00  0.00     0.007 C 
HETATM   12  C   LIG     1      27.356  24.664  21.066  1.00  0.00     0.018 C 
HETATM   13  C   LIG     1      27.362  24.955  19.531  1.00  0.00     0.021 C 
HETATM   14  C   LIG     1      26.240  25.950  19.120  1.00  0.00     0.024 C 
HETATM   15  C   LIG     1      27.360  23.618  18.777  1.00  0.00     0.006 C 
HETATM   16  C   LIG     1      27.894  23.904  17.377  1.00  0.00     0.013 C 
HETATM   17  C   LIG     1      28.985  24.960  17.634  1.00  0.00     0.079 C 
HETATM   18  C   LIG     1      28.633  25.528  18.980  1.00  0.00     0.135 C 
HETATM   19  O   LIG     1      29.282  26.403  19.530  1.00  0.00    -0.297 OA
HETATM   20  C   LIG     1      22.880  20.058  19.848  1.00  0.00     0.037 C 
ENDROOT
BRANCH   1  21
HETATM   21  O   LIG     1      22.426  18.081  21.184  1.00  0.00    -0.396 OA
HETATM   22  H   LIG     1      22.053  17.674  20.358  1.00  0.00     0.210 HD
ENDBRANCH   1  21
TORSDOF 1
ENDMDL
MODEL 8
REMARK VINA RESULT:      -5.2     11.640     15.002
REMARK  1 active torsions:
REMARK  status: ('A' for Active; 'I' for Inactive)
REMARK    1  A    between atoms: O_1  and  C_2 
ROOT
HETATM    1  C   LIG     1      22.426  19.799  18.112  1.00  0.00     0.118 C 
HETATM    2  C   LIG     1      22.911  21.259  18.319  1.00  0.00     0.032 C 
HETATM    3  C   LIG     1      23.155  21.636  19.803  1.00  0.00     0.012 C 
HETATM    4  C   LIG     1      24.033  20.592  20.547  1.00  0.00    -0.036 C 
HETATM    5  C   LIG     1      25.456  20.574  19.903  1.00  0.00     0.016 C 
HETATM    6  C   LIG     1      23.298  19.211  20.392  1.00  0.00    -0.004 C 
HETATM    7  C   LIG     1      23.808  18.157  21.402  1.00  0.00     0.006 C 
HETATM    8  C   LIG     1      23.537  18.600  22.874  1.00  0.00     0.006 C 
HETATM    9  C   LIG     1      23.228  20.116  22.984  1.00  0.00    -0.004 C 
HETATM   10  C   LIG     1      24.223  20.909  22.088  1.00  0.00    -0.002 C 
HETATM   11  C   LIG     1      24.311  22.405  22.501  1.00  0.00     0.007 C 
HETATM   12  C   LIG     1      24.774  22.596  23.986  1.00  0.00     0.018 C 
HETATM   13  C   LIG     1      24.448  21.378  24.911  1.00  0.00     0.021 C 
HETATM   14  C   LIG     1      25.668  20.427  25.075  1.00  0.00     0.024 C 
HETATM   15  C   LIG     1      23.161  20.711  24.411  1.00  0.00     0.006 C 
HETATM   16  C   LIG     1      22.596  19.915  25.584  1.00  0.00     0.013 C 
HETATM   17  C   LIG     1      22.908  20.817  26.793  1.00  0.00     0.079 C 
HETATM   18  C   LIG     1      24.008  21.715  26.303  1.00  0.00     0.135 C 
HETATM   19  O   LIG     1      24.524  22.582  26.991  1.00  0.00    -0.297 OA
HETATM   20  C   LIG     1      23.227  18.753  18.929  1.00  0.00     0.037 C 
ENDROOT
BRANCH   1  21
HETATM   21  O   LIG     1      22.432  19.467  16.748  1.00  0.00    -0.396 OA
HETATM   22  H   LIG     1      22.513  18.480  16.680  1.00  0.00     0.210 HD
ENDBRANCH   1  21
TORSDOF 1
ENDMDL
MODEL 9
REMARK VINA RESULT:      -5.1     13.192     15.083
REMARK  1 active torsions:
REMARK  status: ('A' for Active; 'I' for Inactive)
REMARK    1  A    between atoms: O_1  and  C_2 
ROOT
HETATM    1  C   LIG     1      28.720  26.464  18.002  1.00  0.00     0.118 C 
HETATM    2  C   LIG     1      29.098  26.493  19.507  1.00  0.00     0.032 C 
HETATM    3  C   LIG     1      28.156  25.655  20.408  1.00  0.00     0.012 C 
HETATM    4  C   LIG     1      27.935  24.216  19.864  1.00  0.00    -0.036 C 
HETATM    5  C   LIG     1      29.295  23.448  19.890  1.00  0.00     0.016 C 
HETATM    6  C   LIG     1      27.378  24.380  18.403  1.00  0.00    -0.004 C 
HETATM    7  C   LIG     1      26.726  23.083  17.873  1.00  0.00     0.006 C 
HETATM    8  C   LIG     1      25.491  22.672  18.735  1.00  0.00     0.006 C 
HETATM    9  C   LIG     1      25.472  23.386  20.112  1.00  0.00    -0.004 C 
HETATM   10  C   LIG     1      26.905  23.368  20.720  1.00  0.00    -0.002 C 
HETATM   11  C   LIG     1      26.888  23.608  22.255  1.00  0.00     0.007 C 
HETATM   12  C   LIG     1      26.046  22.534  23.026  1.00  0.00     0.018 C 
HETATM   13  C   LIG     1      24.926  21.870  22.161  1.00  0.00     0.021 C 
HETATM   14  C   LIG     1      25.378  20.506  21.568  1.00  0.00     0.024 C 
HETATM   15  C   LIG     1      24.422  22.895  21.137  1.00  0.00     0.006 C 
HETATM   16  C   LIG     1      23.034  22.433  20.702  1.00  0.00     0.013 C 
HETATM   17  C   LIG     1      22.435  21.871  22.004  1.00  0.00     0.079 C 
HETATM   18  C   LIG     1      23.633  21.595  22.867  1.00  0.00     0.135 C 
HETATM   19  O   LIG     1      23.556  21.138  23.997  1.00  0.00    -0.297 OA
HETATM   20  C   LIG     1      28.396  25.045  17.467  1.00  0.00     0.037 C 
ENDROOT
BRANCH   1  21
HETATM   21  O   LIG     1      29.729  27.062  17.230  1.00  0.00    -0.396 OA
HETATM   22  H   LIG     1      29.336  27.862  16.792  1.00  0.00     0.210 HD
ENDBRANCH   1  21
TORSDOF 1
ENDMDL
MODEL 10
REMARK VINA RESULT:      -5.0     13.685     16.438
REMARK  1 active torsions:
REMARK  status: ('A' for Active; 'I' for Inactive)
REMARK    1  A    between atoms: O_1  and  C_2 
ROOT
HETATM    1  C   LIG     1      29.407  25.638  19.103  1.00  0.00     0.118 C 
HETATM    2  C   LIG     1      28.516  25.567  17.833  1.00  0.00     0.032 C 
HETATM    3  C   LIG     1      27.444  24.448  17.880  1.00  0.00     0.012 C 
HETATM    4  C   LIG     1      26.623  24.463  19.200  1.00  0.00    -0.036 C 
HETATM    5  C   LIG     1      25.810  25.795  19.277  1.00  0.00     0.016 C 
HETATM    6  C   LIG     1      27.669  24.341  20.367  1.00  0.00    -0.004 C 
HETATM    7  C   LIG     1      27.010  23.933  21.705  1.00  0.00     0.006 C 
HETATM    8  C   LIG     1      26.344  22.524  21.606  1.00  0.00     0.006 C 
HETATM    9  C   LIG     1      26.132  22.077  20.137  1.00  0.00    -0.004 C 
HETATM   10  C   LIG     1      25.581  23.275  19.309  1.00  0.00    -0.002 C 
HETATM   11  C   LIG     1      24.895  22.806  17.995  1.00  0.00     0.007 C 
HETATM   12  C   LIG     1      23.694  21.832  18.255  1.00  0.00     0.018 C 
HETATM   13  C   LIG     1      23.801  21.041  19.598  1.00  0.00     0.021 C 
HETATM   14  C   LIG     1      22.981  21.711  20.737  1.00  0.00     0.024 C 
HETATM   15  C   LIG     1      25.283  20.803  19.912  1.00  0.00     0.006 C 
HETATM   16  C   LIG     1      25.341  19.622  20.878  1.00  0.00     0.013 C 
HETATM   17  C   LIG     1      24.217  18.702  20.365  1.00  0.00     0.079 C 
HETATM   18  C   LIG     1      23.342  19.615  19.555  1.00  0.00     0.135 C 
HETATM   19  O   LIG     1      22.333  19.240  18.977  1.00  0.00    -0.297 OA
HETATM   20  C   LIG     1      28.611  25.550  20.430  1.00  0.00     0.037 C 
ENDROOT
BRANCH   1  21
HETATM   21  O   LIG     1      30.202  26.795  19.081  1.00  0.00    -0.396 OA
HETATM   22  H   LIG     1      31.035  26.577  18.587  1.00  0.00     0.210 HD
ENDBRANCH   1  21
TORSDOF 1
ENDMDL
MODEL 11
REMARK VINA RESULT:      -5.0     12.369     16.099
REMARK  1 active torsions:
REMARK  status: ('A' for Active; 'I' for Inactive)
REMARK    1  A    between atoms: O_1  and  C_2 
ROOT
HETATM    1  C   LIG     1      21.842  20.213  27.267  1.00  0.00     0.118 C 
HETATM    2  C   LIG     1      21.452  18.885  26.565  1.00  0.00     0.032 C 
HETATM    3  C   LIG     1      21.661  18.901  25.028  1.00  0.00     0.012 C 
HETATM    4  C   LIG     1      23.072  19.413  24.624  1.00  0.00    -0.036 C 
HETATM    5  C   LIG     1      24.147  18.415  25.160  1.00  0.00     0.016 C 
HETATM    6  C   LIG     1      23.221  20.841  25.266  1.00  0.00    -0.004 C 
HETATM    7  C   LIG     1      24.376  21.651  24.633  1.00  0.00     0.006 C 
HETATM    8  C   LIG     1      24.126  21.911  23.115  1.00  0.00     0.006 C 
HETATM    9  C   LIG     1      23.043  20.969  22.528  1.00  0.00    -0.004 C 
HETATM   10  C   LIG     1      23.278  19.524  23.057  1.00  0.00    -0.002 C 
HETATM   11  C   LIG     1      22.575  18.459  22.169  1.00  0.00     0.007 C 
HETATM   12  C   LIG     1      23.067  18.492  20.681  1.00  0.00     0.018 C 
HETATM   13  C   LIG     1      23.620  19.882  20.229  1.00  0.00     0.021 C 
HETATM   14  C   LIG     1      25.171  19.952  20.322  1.00  0.00     0.024 C 
HETATM   15  C   LIG     1      22.868  20.981  20.990  1.00  0.00     0.006 C 
HETATM   16  C   LIG     1      23.027  22.263  20.177  1.00  0.00     0.013 C 
HETATM   17  C   LIG     1      22.957  21.759  18.724  1.00  0.00     0.079 C 
HETATM   18  C   LIG     1      23.279  20.296  18.830  1.00  0.00     0.135 C 
HETATM   19  O   LIG     1      23.318  19.546  17.867  1.00  0.00    -0.297 OA
HETATM   20  C   LIG     1      23.201  20.792  26.799  1.00  0.00     0.037 C 
ENDROOT
BRANCH   1  21
HETATM   21  O   LIG     1      21.829  20.053  28.662  1.00  0.00    -0.396 OA
HETATM   22  H   LIG     1      22.536  19.396  28.895  1.00  0.00     0.210 HD
ENDBRANCH   1  21
TORSDOF 1
ENDMDL
MODEL 12
REMARK VINA RESULT:      -4.9     13.248     16.357
REMARK  1 active torsions:
REMARK  status: ('A' for Active; 'I' for Inactive)
REMARK    1  A    between atoms: O_1  and  C_2 
ROOT
HETATM    1  C   LIG     1      22.775  19.383  19.180  1.00  0.00     0.118 C 
HETATM    2  C   LIG     1      22.611  20.476  18.091  1.00  0.00     0.032 C 
HETATM    3  C   LIG     1      23.578  21.677  18.254  1.00  0.00     0.012 C 
HETATM    4  C   LIG     1      25.054  21.230  18.451  1.00  0.00    -0.036 C 
HETATM    5  C   LIG     1      25.541  20.500  17.158  1.00  0.00     0.016 C 
HETATM    6  C   LIG     1      25.061  20.279  19.703  1.00  0.00    -0.004 C 
HETATM    7  C   LIG     1      26.481  20.077  20.279  1.00  0.00     0.006 C 
HETATM    8  C   LIG     1      27.088  21.423  20.787  1.00  0.00     0.006 C 
HETATM    9  C   LIG     1      26.335  22.656  20.223  1.00  0.00    -0.004 C 
HETATM   10  C   LIG     1      26.050  22.435  18.709  1.00  0.00    -0.002 C 
HETATM   11  C   LIG     1      25.754  23.772  17.973  1.00  0.00     0.007 C 
HETATM   12  C   LIG     1      26.939  24.793  18.076  1.00  0.00     0.018 C 
HETATM   13  C   LIG     1      27.843  24.588  19.334  1.00  0.00     0.021 C 
HETATM   14  C   LIG     1      29.117  23.757  19.008  1.00  0.00     0.024 C 
HETATM   15  C   LIG     1      26.978  24.040  20.477  1.00  0.00     0.006 C 
HETATM   16  C   LIG     1      27.719  24.353  21.774  1.00  0.00     0.013 C 
HETATM   17  C   LIG     1      28.332  25.738  21.495  1.00  0.00     0.079 C 
HETATM   18  C   LIG     1      28.335  25.839  19.996  1.00  0.00     0.135 C 
HETATM   19  O   LIG     1      28.751  26.814  19.390  1.00  0.00    -0.297 OA
HETATM   20  C   LIG     1      24.250  18.999  19.463  1.00  0.00     0.037 C 
ENDROOT
BRANCH   1  21
HETATM   21  O   LIG     1      22.024  18.243  18.850  1.00  0.00    -0.396 OA
HETATM   22  H   LIG     1      22.402  17.478  19.358  1.00  0.00     0.210 HD
ENDBRANCH   1  21
TORSDOF 1
ENDMDL
MODEL 13
REMARK VINA RESULT:      -4.8     13.629     15.526
REMARK  1 active torsions:
REMARK  status: ('A' for Active; 'I' for Inactive)
REMARK    1  A    between atoms: O_1  and  C_2 
ROOT
HETATM    1  C   LIG     1      29.632  25.480  18.052  1.00  0.00     0.118 C 
HETATM    2  C   LIG     1      28.476  25.044  17.113  1.00  0.00     0.032 C 
HETATM    3  C   LIG     1      27.470  24.063  17.767  1.00  0.00     0.012 C 
HETATM    4  C   LIG     1      26.974  24.556  19.155  1.00  0.00    -0.036 C 
HETATM    5  C   LIG     1      26.169  25.881  18.965  1.00  0.00     0.016 C 
HETATM    6  C   LIG     1      28.261  24.768  20.031  1.00  0.00    -0.004 C 
HETATM    7  C   LIG     1      27.936  24.858  21.540  1.00  0.00     0.006 C 
HETATM    8  C   LIG     1      27.299  23.534  22.067  1.00  0.00     0.006 C 
HETATM    9  C   LIG     1      26.767  22.640  20.917  1.00  0.00    -0.004 C 
HETATM   10  C   LIG     1      26.012  23.528  19.884  1.00  0.00    -0.002 C 
HETATM   11  C   LIG     1      25.055  22.691  18.989  1.00  0.00     0.007 C 
HETATM   12  C   LIG     1      23.969  21.924  19.819  1.00  0.00     0.018 C 
HETATM   13  C   LIG     1      24.399  21.614  21.289  1.00  0.00     0.021 C 
HETATM   14  C   LIG     1      23.846  22.665  22.293  1.00  0.00     0.024 C 
HETATM   15  C   LIG     1      25.920  21.412  21.324  1.00  0.00     0.006 C 
HETATM   16  C   LIG     1      26.225  20.613  22.588  1.00  0.00     0.013 C 
HETATM   17  C   LIG     1      25.036  19.638  22.676  1.00  0.00     0.079 C 
HETATM   18  C   LIG     1      23.976  20.280  21.826  1.00  0.00     0.135 C 
HETATM   19  O   LIG     1      22.871  19.792  21.647  1.00  0.00    -0.297 OA
HETATM   20  C   LIG     1      29.164  25.877  19.476  1.00  0.00     0.037 C 
ENDROOT
BRANCH   1  21
HETATM   21  O   LIG     1      30.374  26.520  17.470  1.00  0.00    -0.396 OA
HETATM   22  H   LIG     1      30.081  26.604  16.525  1.00  0.00     0.210 HD
ENDBRANCH   1  21
TORSDOF 1
ENDMDL
MODEL 14
REMARK VINA RESULT:      -4.7      9.252     13.876
REMARK  1 active torsions:
REMARK  status: ('A' for Active; 'I' for Inactive)
REMARK    1  A    between atoms: O_1  and  C_2 
ROOT
HETATM    1  C   LIG     1      25.969  24.457  26.499  1.00  0.00     0.118 C 
HETATM    2  C   LIG     1      25.434  23.206  25.752  1.00  0.00     0.032 C 
HETATM    3  C   LIG     1      25.775  23.182  24.240  1.00  0.00     0.012 C 
HETATM    4  C   LIG     1      27.280  23.459  23.965  1.00  0.00    -0.036 C 
HETATM    5  C   LIG     1      28.130  22.302  24.582  1.00  0.00     0.016 C 
HETATM    6  C   LIG     1      27.600  24.846  24.630  1.00  0.00    -0.004 C 
HETATM    7  C   LIG     1      28.921  25.457  24.108  1.00  0.00     0.006 C 
HETATM    8  C   LIG     1      28.849  25.747  22.576  1.00  0.00     0.006 C 
HETATM    9  C   LIG     1      27.684  24.989  21.889  1.00  0.00    -0.004 C 
HETATM   10  C   LIG     1      27.637  23.527  22.422  1.00  0.00    -0.002 C 
HETATM   11  C   LIG     1      26.852  22.586  21.467  1.00  0.00     0.007 C 
HETATM   12  C   LIG     1      27.470  22.532  20.028  1.00  0.00     0.018 C 
HETATM   13  C   LIG     1      28.276  23.813  19.638  1.00  0.00     0.021 C 
HETATM   14  C   LIG     1      29.804  23.633  19.866  1.00  0.00     0.024 C 
HETATM   15  C   LIG     1      27.648  25.023  20.342  1.00  0.00     0.006 C 
HETATM   16  C   LIG     1      28.081  26.259  19.559  1.00  0.00     0.013 C 
HETATM   17  C   LIG     1      28.057  25.767  18.100  1.00  0.00     0.079 C 
HETATM   18  C   LIG     1      28.130  24.271  18.219  1.00  0.00     0.135 C 
HETATM   19  O   LIG     1      28.131  23.520  17.256  1.00  0.00    -0.297 OA
HETATM   20  C   LIG     1      27.440  24.808  26.155  1.00  0.00     0.037 C 
ENDROOT
BRANCH   1  21
HETATM   21  O   LIG     1      25.810  24.308  27.886  1.00  0.00    -0.396 OA
HETATM   22  H   LIG     1      25.354  25.122  28.224  1.00  0.00     0.210 HD
ENDBRANCH   1  21
TORSDOF 1
ENDMDL
MODEL 15
REMARK VINA RESULT:      -4.6      7.820     11.278
REMARK  1 active torsions:
REMARK  status: ('A' for Active; 'I' for Inactive)
REMARK    1  A    between atoms: O_1  and  C_2 
ROOT
HETATM    1  C   LIG     1      26.598  24.571  19.196  1.00  0.00     0.118 C 
HETATM    2  C   LIG     1      27.624  25.681  19.549  1.00  0.00     0.032 C 
HETATM    3  C   LIG     1      27.862  25.856  21.071  1.00  0.00     0.012 C 
HETATM    4  C   LIG     1      28.151  24.507  21.788  1.00  0.00    -0.036 C 
HETATM    5  C   LIG     1      29.492  23.919  21.242  1.00  0.00     0.016 C 
HETATM    6  C   LIG     1      26.926  23.573  21.475  1.00  0.00    -0.004 C 
HETATM    7  C   LIG     1      26.854  22.360  22.432  1.00  0.00     0.006 C 
HETATM    8  C   LIG     1      26.654  22.812  23.912  1.00  0.00     0.006 C 
HETATM    9  C   LIG     1      26.995  24.310  24.120  1.00  0.00    -0.004 C 
HETATM   10  C   LIG     1      28.310  24.648  23.358  1.00  0.00    -0.002 C 
HETATM   11  C   LIG     1      28.973  25.948  23.893  1.00  0.00     0.007 C 
HETATM   12  C   LIG     1      29.331  25.862  25.416  1.00  0.00     0.018 C 
HETATM   13  C   LIG     1      28.443  24.856  26.219  1.00  0.00     0.021 C 
HETATM   14  C   LIG     1      29.135  23.474  26.389  1.00  0.00     0.024 C 
HETATM   15  C   LIG     1      27.048  24.816  25.581  1.00  0.00     0.006 C 
HETATM   16  C   LIG     1      26.096  24.283  26.648  1.00  0.00     0.013 C 
HETATM   17  C   LIG     1      26.639  24.916  27.942  1.00  0.00     0.079 C 
HETATM   18  C   LIG     1      28.054  25.287  27.600  1.00  0.00     0.135 C 
HETATM   19  O   LIG     1      28.816  25.825  28.387  1.00  0.00    -0.297 OA
HETATM   20  C   LIG     1      26.809  23.251  19.980  1.00  0.00     0.037 C 
ENDROOT
BRANCH   1  21
HETATM   21  O   LIG     1      26.593  24.327  17.813  1.00  0.00    -0.396 OA
HETATM   22  H   LIG     1      27.096  23.486  17.656  1.00  0.00     0.210 HD
ENDBRANCH   1  21
TORSDOF 1
ENDMDL
MODEL 16
REMARK VINA RESULT:      -4.6     10.103     15.054
REMARK  1 active torsions:
REMARK  status: ('A' for Active; 'I' for Inactive)
REMARK    1  A    between atoms: O_1  and  C_2 
ROOT
HETATM    1  C   LIG     1      27.008  22.607  26.573  1.00  0.00     0.118 C 
HETATM    2  C   LIG     1      25.734  23.456  26.315  1.00  0.00     0.032 C 
HETATM    3  C   LIG     1      25.160  23.308  24.883  1.00  0.00     0.012 C 
HETATM    4  C   LIG     1      25.000  21.822  24.455  1.00  0.00    -0.036 C 
HETATM    5  C   LIG     1      23.941  21.139  25.380  1.00  0.00     0.016 C 
HETATM    6  C   LIG     1      26.421  21.167  24.603  1.00  0.00    -0.004 C 
HETATM    7  C   LIG     1      26.532  19.826  23.841  1.00  0.00     0.006 C 
HETATM    8  C   LIG     1      26.331  20.023  22.306  1.00  0.00     0.006 C 
HETATM    9  C   LIG     1      25.668  21.385  21.970  1.00  0.00    -0.004 C 
HETATM   10  C   LIG     1      24.498  21.644  22.963  1.00  0.00    -0.002 C 
HETATM   11  C   LIG     1      23.498  22.702  22.417  1.00  0.00     0.007 C 
HETATM   12  C   LIG     1      22.859  22.281  21.049  1.00  0.00     0.018 C 
HETATM   13  C   LIG     1      23.743  21.299  20.215  1.00  0.00     0.021 C 
HETATM   14  C   LIG     1      23.315  19.817  20.412  1.00  0.00     0.024 C 
HETATM   15  C   LIG     1      25.219  21.598  20.505  1.00  0.00     0.006 C 
HETATM   16  C   LIG     1      26.018  21.035  19.333  1.00  0.00     0.013 C 
HETATM   17  C   LIG     1      25.108  21.325  18.125  1.00  0.00     0.079 C 
HETATM   18  C   LIG     1      23.749  21.524  18.733  1.00  0.00     0.135 C 
HETATM   19  O   LIG     1      22.751  21.780  18.078  1.00  0.00    -0.297 OA
HETATM   20  C   LIG     1      26.902  21.149  26.059  1.00  0.00     0.037 C 
ENDROOT
BRANCH   1  21
HETATM   21  O   LIG     1      27.343  22.626  27.937  1.00  0.00    -0.396 OA
HETATM   22  H   LIG     1      28.298  22.365  28.014  1.00  0.00     0.210 HD
ENDBRANCH   1  21
TORSDOF 1
ENDMDL
MODEL 17
REMARK VINA RESULT:      -4.4      3.053      4.905
REMARK  1 active torsions:
REMARK  status: ('A' for Active; 'I' for Inactive)
REMARK    1  A    between atoms: O_1  and  C_2 
ROOT
HETATM    1  C   LIG     1      26.271  22.511  28.133  1.00  0.00     0.118 C 
HETATM    2  C   LIG     1      26.539  23.809  27.327  1.00  0.00     0.032 C 
HETATM    3  C   LIG     1      26.845  25.046  28.210  1.00  0.00     0.012 C 
HETATM    4  C   LIG     1      27.934  24.759  29.281  1.00  0.00    -0.036 C 
HETATM    5  C   LIG     1      29.284  24.442  28.561  1.00  0.00     0.016 C 
HETATM    6  C   LIG     1      27.412  23.536  30.121  1.00  0.00    -0.004 C 
HETATM    7  C   LIG     1      28.162  23.383  31.464  1.00  0.00     0.006 C 
HETATM    8  C   LIG     1      27.950  24.627  32.382  1.00  0.00     0.006 C 
HETATM    9  C   LIG     1      27.420  25.854  31.595  1.00  0.00    -0.004 C 
HETATM   10  C   LIG     1      28.201  25.981  30.254  1.00  0.00    -0.002 C 
HETATM   11  C   LIG     1      28.090  27.409  29.651  1.00  0.00     0.007 C 
HETATM   12  C   LIG     1      28.640  28.517  30.613  1.00  0.00     0.018 C 
HETATM   13  C   LIG     1      28.587  28.124  32.125  1.00  0.00     0.021 C 
HETATM   14  C   LIG     1      29.949  27.572  32.633  1.00  0.00     0.024 C 
HETATM   15  C   LIG     1      27.381  27.203  32.351  1.00  0.00     0.006 C 
HETATM   16  C   LIG     1      27.048  27.277  33.839  1.00  0.00     0.013 C 
HETATM   17  C   LIG     1      27.316  28.755  34.178  1.00  0.00     0.079 C 
HETATM   18  C   LIG     1      28.218  29.225  33.073  1.00  0.00     0.135 C 
HETATM   19  O   LIG     1      28.649  30.364  32.996  1.00  0.00    -0.297 OA
HETATM   20  C   LIG     1      27.291  22.262  29.275  1.00  0.00     0.037 C 
ENDROOT
BRANCH   1  21
HETATM   21  O   LIG     1      26.214  21.401  27.275  1.00  0.00    -0.396 OA
HETATM   22  H   LIG     1      26.587  20.623  27.766  1.00  0.00     0.210 HD
ENDBRANCH   1  21
TORSDOF 1
ENDMDL
MODEL 18
REMARK VINA RESULT:      -4.3      9.379     13.453
REMARK  1 active torsions:
REMARK  status: ('A' for Active; 'I' for Inactive)
REMARK    1  A    between atoms: O_1  and  C_2 
ROOT
HETATM    1  C   LIG     1      29.703  23.546  26.277  1.00  0.00     0.118 C 
HETATM    2  C   LIG     1      30.156  23.407  24.799  1.00  0.00     0.032 C 
HETATM    3  C   LIG     1      29.045  22.895  23.846  1.00  0.00     0.012 C 
HETATM    4  C   LIG     1      27.714  23.684  24.005  1.00  0.00    -0.036 C 
HETATM    5  C   LIG     1      27.950  25.168  23.578  1.00  0.00     0.016 C 
HETATM    6  C   LIG     1      27.310  23.562  25.519  1.00  0.00    -0.004 C 
HETATM    7  C   LIG     1      25.828  23.930  25.762  1.00  0.00     0.006 C 
HETATM    8  C   LIG     1      24.867  22.961  25.004  1.00  0.00     0.006 C 
HETATM    9  C   LIG     1      25.595  22.164  23.891  1.00  0.00    -0.004 C 
HETATM   10  C   LIG     1      26.537  23.122  23.105  1.00  0.00    -0.002 C 
HETATM   11  C   LIG     1      26.916  22.549  21.711  1.00  0.00     0.007 C 
HETATM   12  C   LIG     1      25.666  22.284  20.805  1.00  0.00     0.018 C 
HETATM   13  C   LIG     1      24.348  22.025  21.605  1.00  0.00     0.021 C 
HETATM   14  C   LIG     1      23.482  23.309  21.735  1.00  0.00     0.024 C 
HETATM   15  C   LIG     1      24.706  21.339  22.930  1.00  0.00     0.006 C 
HETATM   16  C   LIG     1      23.439  20.638  23.415  1.00  0.00     0.013 C 
HETATM   17  C   LIG     1      22.807  20.127  22.107  1.00  0.00     0.079 C 
HETATM   18  C   LIG     1      23.437  20.977  21.041  1.00  0.00     0.135 C 
HETATM   19  O   LIG     1      23.183  20.862  19.853  1.00  0.00    -0.297 OA
HETATM   20  C   LIG     1      28.326  24.239  26.446  1.00  0.00     0.037 C 
ENDROOT
BRANCH   1  21
HETATM   21  O   LIG     1      30.684  24.208  27.032  1.00  0.00    -0.396 OA
HETATM   22  H   LIG     1      31.554  24.080  26.571  1.00  0.00     0.210 HD
ENDBRANCH   1  21
TORSDOF 1
ENDMDL
MODEL 19
REMARK VINA RESULT:      -4.2     11.705     16.216
REMARK  1 active torsions:
REMARK  status: ('A' for Active; 'I' for Inactive)
REMARK    1  A    between atoms: O_1  and  C_2 
ROOT
HETATM    1  C   LIG     1      25.498  21.519  25.753  1.00  0.00     0.118 C 
HETATM    2  C   LIG     1      26.819  21.082  25.066  1.00  0.00     0.032 C 
HETATM    3  C   LIG     1      26.665  20.756  23.558  1.00  0.00     0.012 C 
HETATM    4  C   LIG     1      25.915  21.874  22.780  1.00  0.00    -0.036 C 
HETATM    5  C   LIG     1      26.770  23.181  22.819  1.00  0.00     0.016 C 
HETATM    6  C   LIG     1      24.529  22.054  23.500  1.00  0.00    -0.004 C 
HETATM    7  C   LIG     1      23.508  22.818  22.625  1.00  0.00     0.006 C 
HETATM    8  C   LIG     1      23.187  22.041  21.311  1.00  0.00     0.006 C 
HETATM    9  C   LIG     1      24.243  20.948  21.002  1.00  0.00    -0.004 C 
HETATM   10  C   LIG     1      25.667  21.524  21.255  1.00  0.00    -0.002 C 
HETATM   11  C   LIG     1      26.765  20.699  20.526  1.00  0.00     0.007 C 
HETATM   12  C   LIG     1      26.555  20.653  18.973  1.00  0.00     0.018 C 
HETATM   13  C   LIG     1      25.068  20.844  18.530  1.00  0.00     0.021 C 
HETATM   14  C   LIG     1      24.766  22.314  18.123  1.00  0.00     0.024 C 
HETATM   15  C   LIG     1      24.153  20.264  19.617  1.00  0.00     0.006 C 
HETATM   16  C   LIG     1      22.810  19.980  18.950  1.00  0.00     0.013 C 
HETATM   17  C   LIG     1      23.218  19.486  17.550  1.00  0.00     0.079 C 
HETATM   18  C   LIG     1      24.617  20.003  17.375  1.00  0.00     0.135 C 
HETATM   19  O   LIG     1      25.285  19.807  16.372  1.00  0.00    -0.297 OA
HETATM   20  C   LIG     1      24.685  22.559  24.940  1.00  0.00     0.037 C 
ENDROOT
BRANCH   1  21
HETATM   21  O   LIG     1      25.752  21.998  27.048  1.00  0.00    -0.396 OA
HETATM   22  H   LIG     1      25.882  22.980  26.985  1.00  0.00     0.210 HD
ENDBRANCH   1  21
TORSDOF 1
ENDMDL
