MODEL 1
REMARK VINA RESULT:      -5.8      0.000      0.000
REMARK  1 active torsions:
REMARK  status: ('A' for Active; 'I' for Inactive)
REMARK    1  A    between atoms: C_8  and  O_9 
ROOT
HETATM    1  C   LIG     1      26.283  21.528  20.362  1.00  0.00     0.020 C 
HETATM    2  C   LIG     1      25.437  21.960  19.135  1.00  0.00    -0.017 C 
HETATM    3  C   LIG     1      25.651  20.942  17.994  1.00  0.00    -0.072 C 
HETATM    4  C   LIG     1      26.796  20.983  17.285  1.00  0.00    -0.023 C 
HETATM    5  C   LIG     1      27.883  21.975  17.570  1.00  0.00     0.033 C 
HETATM    6  C   LIG     1      23.942  21.986  19.615  1.00  0.00     0.016 C 
HETATM    7  C   LIG     1      22.942  21.647  18.517  1.00  0.00     0.033 C 
HETATM    8  C   LIG     1      23.174  20.199  18.084  1.00  0.00     0.122 C 
HETATM    9  C   LIG     1      24.563  20.024  17.448  1.00  0.00     0.066 C 
HETATM   10  C   LIG     1      25.890  23.365  18.571  1.00  0.00     0.003 C 
HETATM   11  C   LIG     1      27.357  23.383  17.978  1.00  0.00    -0.001 C 
HETATM   12  C   LIG     1      28.385  24.123  18.900  1.00  0.00     0.006 C 
HETATM   13  C   LIG     1      29.756  24.325  18.206  1.00  0.00     0.013 C 
HETATM   14  C   LIG     1      29.755  25.728  17.611  1.00  0.00     0.079 C 
HETATM   15  C   LIG     1      28.724  26.442  18.395  1.00  0.00     0.135 C 
HETATM   16  O   LIG     1      28.542  27.647  18.302  1.00  0.00    -0.297 OA
HETATM   17  C   LIG     1      27.933  25.559  19.309  1.00  0.00     0.021 C 
HETATM   18  C   LIG     1      28.341  25.864  20.768  1.00  0.00     0.024 C 
HETATM   19  C   LIG     1      26.417  25.794  19.106  1.00  0.00     0.018 C 
HETATM   20  C   LIG     1      25.614  24.564  19.517  1.00  0.00     0.007 C 
ENDROOT
BRANCH   8  21
HETATM   21  O   LIG     1      22.165  19.771  17.204  1.00  0.00    -0.395 OA
HETATM   22  H   LIG     1      21.314  20.195  17.488  1.00  0.00     0.210 HD
ENDBRANCH   8  21
TORSDOF 1
ENDMDL
MODEL 2
REMARK VINA RESULT:      -5.6     11.306     13.867
REMARK  1 active torsions:
REMARK  status: ('A' for Active; 'I' for Inactive)
REMARK    1  A    between atoms: C_8  and  O_9 
ROOT
HETATM    1  C   LIG     1      29.412  25.444  31.147  1.00  0.00     0.020 C 
HETATM    2  C   LIG     1      28.266  26.022  30.274  1.00  0.00    -0.017 C 
HETATM    3  C   LIG     1      28.879  26.725  29.043  1.00  0.00    -0.072 C 
HETATM    4  C   LIG     1      29.445  27.938  29.195  1.00  0.00    -0.023 C 
HETATM    5  C   LIG     1      29.518  28.630  30.522  1.00  0.00     0.033 C 
HETATM    6  C   LIG     1      27.369  24.802  29.858  1.00  0.00     0.016 C 
HETATM    7  C   LIG     1      26.703  24.971  28.498  1.00  0.00     0.033 C 
HETATM    8  C   LIG     1      27.795  25.018  27.429  1.00  0.00     0.122 C 
HETATM    9  C   LIG     1      28.694  26.252  27.605  1.00  0.00     0.066 C 
HETATM   10  C   LIG     1      27.433  27.120  31.047  1.00  0.00     0.003 C 
HETATM   11  C   LIG     1      28.256  28.423  31.410  1.00  0.00    -0.001 C 
HETATM   12  C   LIG     1      28.614  28.521  32.932  1.00  0.00     0.006 C 
HETATM   13  C   LIG     1      29.217  29.899  33.304  1.00  0.00     0.013 C 
HETATM   14  C   LIG     1      28.079  30.759  33.838  1.00  0.00     0.079 C 
HETATM   15  C   LIG     1      27.064  29.771  34.266  1.00  0.00     0.135 C 
HETATM   16  O   LIG     1      26.059  30.086  34.888  1.00  0.00    -0.297 OA
HETATM   17  C   LIG     1      27.379  28.362  33.872  1.00  0.00     0.021 C 
HETATM   18  C   LIG     1      27.760  27.568  35.142  1.00  0.00     0.024 C 
HETATM   19  C   LIG     1      26.163  27.715  33.168  1.00  0.00     0.018 C 
HETATM   20  C   LIG     1      26.606  26.583  32.245  1.00  0.00     0.007 C 
ENDROOT
BRANCH   8  21
HETATM   21  O   LIG     1      27.235  24.988  26.139  1.00  0.00    -0.395 OA
HETATM   22  H   LIG     1      26.489  24.334  26.147  1.00  0.00     0.210 HD
ENDBRANCH   8  21
TORSDOF 1
ENDMDL
MODEL 3
REMARK VINA RESULT:      -5.6      1.529      6.145
REMARK  1 active torsions:
REMARK  status: ('A' for Active; 'I' for Inactive)
REMARK    1  A    between atoms: C_8  and  O_9 
ROOT
HETATM    1  C   LIG     1      29.094  23.490  19.375  1.00  0.00     0.020 C 
HETATM    2  C   LIG     1      28.302  24.042  18.159  1.00  0.00    -0.017 C 
HETATM    3  C   LIG     1      28.164  25.572  18.304  1.00  0.00    -0.072 C 
HETATM    4  C   LIG     1      27.269  26.070  19.180  1.00  0.00    -0.023 C 
HETATM    5  C   LIG     1      26.407  25.192  20.035  1.00  0.00     0.033 C 
HETATM    6  C   LIG     1      29.126  23.652  16.881  1.00  0.00     0.016 C 
HETATM    7  C   LIG     1      28.989  24.651  15.739  1.00  0.00     0.033 C 
HETATM    8  C   LIG     1      29.595  25.982  16.188  1.00  0.00     0.122 C 
HETATM    9  C   LIG     1      28.807  26.584  17.362  1.00  0.00     0.066 C 
HETATM   10  C   LIG     1      26.832  23.464  18.102  1.00  0.00     0.003 C 
HETATM   11  C   LIG     1      25.915  23.902  19.315  1.00  0.00    -0.001 C 
HETATM   12  C   LIG     1      25.658  22.746  20.342  1.00  0.00     0.006 C 
HETATM   13  C   LIG     1      24.585  23.124  21.394  1.00  0.00     0.013 C 
HETATM   14  C   LIG     1      23.257  22.561  20.904  1.00  0.00     0.079 C 
HETATM   15  C   LIG     1      23.656  21.481  19.974  1.00  0.00     0.135 C 
HETATM   16  O   LIG     1      22.851  20.697  19.493  1.00  0.00    -0.297 OA
HETATM   17  C   LIG     1      25.123  21.437  19.683  1.00  0.00     0.021 C 
HETATM   18  C   LIG     1      25.727  20.193  20.373  1.00  0.00     0.024 C 
HETATM   19  C   LIG     1      25.368  21.386  18.156  1.00  0.00     0.018 C 
HETATM   20  C   LIG     1      26.744  21.943  17.806  1.00  0.00     0.007 C 
ENDROOT
BRANCH   8  21
HETATM   21  O   LIG     1      29.663  26.889  15.116  1.00  0.00    -0.395 OA
HETATM   22  H   LIG     1      30.585  26.858  14.749  1.00  0.00     0.210 HD
ENDBRANCH   8  21
TORSDOF 1
ENDMDL
MODEL 4
REMARK VINA RESULT:      -5.3      4.178      6.863
REMARK  1 active torsions:
REMARK  status: ('A' for Active; 'I' for Inactive)
REMARK    1  A    between atoms: C_8  and  O_9 
ROOT
HETATM    1  C   LIG     1      26.860  20.951  23.750  1.00  0.00     0.020 C 
HETATM    2  C   LIG     1      26.122  22.299  23.969  1.00  0.00    -0.017 C 
HETATM    3  C   LIG     1      25.000  22.093  25.009  1.00  0.00    -0.072 C 
HETATM    4  C   LIG     1      23.864  21.471  24.634  1.00  0.00    -0.023 C 
HETATM    5  C   LIG     1      23.651  20.956  23.243  1.00  0.00     0.033 C 
HETATM    6  C   LIG     1      27.203  23.318  24.477  1.00  0.00     0.016 C 
HETATM    7  C   LIG     1      26.646  24.380  25.417  1.00  0.00     0.033 C 
HETATM    8  C   LIG     1      26.153  23.688  26.688  1.00  0.00     0.122 C 
HETATM    9  C   LIG     1      24.978  22.743  26.388  1.00  0.00     0.066 C 
HETATM   10  C   LIG     1      25.418  22.807  22.648  1.00  0.00     0.003 C 
HETATM   11  C   LIG     1      24.249  21.873  22.135  1.00  0.00    -0.001 C 
HETATM   12  C   LIG     1      24.635  21.043  20.863  1.00  0.00     0.006 C 
HETATM   13  C   LIG     1      23.416  20.310  20.249  1.00  0.00     0.013 C 
HETATM   14  C   LIG     1      22.882  21.191  19.126  1.00  0.00     0.079 C 
HETATM   15  C   LIG     1      24.037  22.044  18.770  1.00  0.00     0.135 C 
HETATM   16  O   LIG     1      24.033  22.786  17.798  1.00  0.00    -0.297 OA
HETATM   17  C   LIG     1      25.202  21.914  19.701  1.00  0.00     0.021 C 
HETATM   18  C   LIG     1      26.340  21.170  18.967  1.00  0.00     0.024 C 
HETATM   19  C   LIG     1      25.676  23.311  20.169  1.00  0.00     0.018 C 
HETATM   20  C   LIG     1      26.392  23.221  21.513  1.00  0.00     0.007 C 
ENDROOT
BRANCH   8  21
HETATM   21  O   LIG     1      25.796  24.632  27.667  1.00  0.00    -0.395 OA
HETATM   22  H   LIG     1      26.255  24.383  28.511  1.00  0.00     0.210 HD
ENDBRANCH   8  21
TORSDOF 1
ENDMDL
MODEL 5
REMARK VINA RESULT:      -5.3      2.088      3.630
REMARK  1 active torsions:
REMARK  status: ('A' for Active; 'I' for Inactive)
REMARK    1  A    between atoms: C_8  and  O_9 
ROOT
HETATM    1  C   LIG     1      24.335  18.248  18.745  1.00  0.00     0.020 C 
HETATM    2  C   LIG     1      23.576  19.164  17.748  1.00  0.00    -0.017 C 
HETATM    3  C   LIG     1      24.027  18.824  16.311  1.00  0.00    -0.072 C 
HETATM    4  C   LIG     1      25.227  19.261  15.880  1.00  0.00    -0.023 C 
HETATM    5  C   LIG     1      26.153  20.056  16.750  1.00  0.00     0.033 C 
HETATM    6  C   LIG     1      22.047  18.876  17.959  1.00  0.00     0.016 C 
HETATM    7  C   LIG     1      21.214  19.045  16.695  1.00  0.00     0.033 C 
HETATM    8  C   LIG     1      21.660  17.992  15.679  1.00  0.00     0.122 C 
HETATM    9  C   LIG     1      23.118  18.217  15.248  1.00  0.00     0.066 C 
HETATM   10  C   LIG     1      23.917  20.691  17.974  1.00  0.00     0.003 C 
HETATM   11  C   LIG     1      25.425  21.069  17.681  1.00  0.00    -0.001 C 
HETATM   12  C   LIG     1      26.256  21.338  18.982  1.00  0.00     0.006 C 
HETATM   13  C   LIG     1      27.658  21.921  18.672  1.00  0.00     0.013 C 
HETATM   14  C   LIG     1      27.553  23.435  18.802  1.00  0.00     0.079 C 
HETATM   15  C   LIG     1      26.368  23.632  19.666  1.00  0.00     0.135 C 
HETATM   16  O   LIG     1      26.056  24.725  20.116  1.00  0.00    -0.297 OA
HETATM   17  C   LIG     1      25.596  22.379  19.938  1.00  0.00     0.021 C 
HETATM   18  C   LIG     1      25.811  21.976  21.414  1.00  0.00     0.024 C 
HETATM   19  C   LIG     1      24.093  22.599  19.645  1.00  0.00     0.018 C 
HETATM   20  C   LIG     1      23.403  21.279  19.315  1.00  0.00     0.007 C 
ENDROOT
BRANCH   8  21
HETATM   21  O   LIG     1      20.806  17.979  14.562  1.00  0.00    -0.395 OA
HETATM   22  H   LIG     1      19.883  17.812  14.887  1.00  0.00     0.210 HD
ENDBRANCH   8  21
TORSDOF 1
ENDMDL
MODEL 6
REMARK VINA RESULT:      -5.2      3.839      6.543
REMARK  1 active torsions:
REMARK  status: ('A' for Active; 'I' for Inactive)
REMARK    1  A    between atoms: C_8  and  O_9 
ROOT
HETATM    1  C   LIG     1      22.494  22.368  21.674  1.00  0.00     0.020 C 
HETATM    2  C   LIG     1      23.510  21.417  22.362  1.00  0.00    -0.017 C 
HETATM    3  C   LIG     1      24.678  22.254  22.927  1.00  0.00    -0.072 C 
HETATM    4  C   LIG     1      25.614  22.727  22.082  1.00  0.00    -0.023 C 
HETATM    5  C   LIG     1      25.559  22.484  20.604  1.00  0.00     0.033 C 
HETATM    6  C   LIG     1      22.722  20.679  23.502  1.00  0.00     0.016 C 
HETATM    7  C   LIG     1      23.584  20.316  24.704  1.00  0.00     0.033 C 
HETATM    8  C   LIG     1      24.068  21.611  25.358  1.00  0.00     0.122 C 
HETATM    9  C   LIG     1      24.986  22.403  24.413  1.00  0.00     0.066 C 
HETATM   10  C   LIG     1      24.147  20.395  21.339  1.00  0.00     0.003 C 
HETATM   11  C   LIG     1      25.038  21.069  20.219  1.00  0.00    -0.001 C 
HETATM   12  C   LIG     1      24.350  21.085  18.811  1.00  0.00     0.006 C 
HETATM   13  C   LIG     1      25.319  21.540  17.690  1.00  0.00     0.013 C 
HETATM   14  C   LIG     1      25.889  20.281  17.050  1.00  0.00     0.079 C 
HETATM   15  C   LIG     1      24.897  19.236  17.387  1.00  0.00     0.135 C 
HETATM   16  O   LIG     1      24.941  18.110  16.913  1.00  0.00    -0.297 OA
HETATM   17  C   LIG     1      23.843  19.683  18.351  1.00  0.00     0.021 C 
HETATM   18  C   LIG     1      22.502  19.810  17.593  1.00  0.00     0.024 C 
HETATM   19  C   LIG     1      23.717  18.674  19.517  1.00  0.00     0.018 C 
HETATM   20  C   LIG     1      23.154  19.350  20.764  1.00  0.00     0.007 C 
ENDROOT
BRANCH   8  21
HETATM   21  O   LIG     1      24.717  21.346  26.577  1.00  0.00    -0.395 OA
HETATM   22  H   LIG     1      25.474  20.731  26.391  1.00  0.00     0.210 HD
ENDBRANCH   8  21
TORSDOF 1
ENDMDL
MODEL 7
REMARK VINA RESULT:      -5.1      4.437      6.324
REMARK  1 active torsions:
REMARK  status: ('A' for Active; 'I' for Inactive)
REMARK    1  A    between atoms: C_8  and  O_9 
ROOT
HETATM    1  C   LIG     1      23.255  23.455  21.789  1.00  0.00     0.020 C 
HETATM    2  C   LIG     1      24.192  22.302  21.341  1.00  0.00    -0.017 C 
HETATM    3  C   LIG     1      23.340  21.049  21.044  1.00  0.00    -0.072 C 
HETATM    4  C   LIG     1      22.856  20.326  22.073  1.00  0.00    -0.023 C 
HETATM    5  C   LIG     1      23.103  20.700  23.504  1.00  0.00     0.033 C 
HETATM    6  C   LIG     1      24.938  22.812  20.057  1.00  0.00     0.016 C 
HETATM    7  C   LIG     1      25.288  21.703  19.073  1.00  0.00     0.033 C 
HETATM    8  C   LIG     1      23.985  21.104  18.539  1.00  0.00     0.122 C 
HETATM    9  C   LIG     1      23.184  20.425  19.662  1.00  0.00     0.066 C 
HETATM   10  C   LIG     1      25.208  21.891  22.479  1.00  0.00     0.003 C 
HETATM   11  C   LIG     1      24.526  21.275  23.767  1.00  0.00    -0.001 C 
HETATM   12  C   LIG     1      24.521  22.255  24.990  1.00  0.00     0.006 C 
HETATM   13  C   LIG     1      24.055  21.560  26.295  1.00  0.00     0.013 C 
HETATM   14  C   LIG     1      25.309  21.128  27.046  1.00  0.00     0.079 C 
HETATM   15  C   LIG     1      26.365  22.009  26.501  1.00  0.00     0.135 C 
HETATM   16  O   LIG     1      27.492  22.055  26.974  1.00  0.00    -0.297 OA
HETATM   17  C   LIG     1      25.930  22.832  25.330  1.00  0.00     0.021 C 
HETATM   18  C   LIG     1      25.820  24.308  25.775  1.00  0.00     0.024 C 
HETATM   19  C   LIG     1      26.938  22.687  24.165  1.00  0.00     0.018 C 
HETATM   20  C   LIG     1      26.267  22.972  22.825  1.00  0.00     0.007 C 
ENDROOT
BRANCH   8  21
HETATM   21  O   LIG     1      24.241  20.201  17.492  1.00  0.00    -0.395 OA
HETATM   22  H   LIG     1      23.410  19.684  17.327  1.00  0.00     0.210 HD
ENDBRANCH   8  21
TORSDOF 1
ENDMDL
MODEL 8
REMARK VINA RESULT:      -5.0      5.101      7.958
REMARK  1 active torsions:
REMARK  status: ('A' for Active; 'I' for Inactive)
REMARK    1  A    between atoms: C_8  and  O_9 
ROOT
HETATM    1  C   LIG     1      25.515  19.743  22.106  1.00  0.00     0.020 C 
HETATM    2  C   LIG     1      24.206  20.424  21.624  1.00  0.00    -0.017 C 
HETATM    3  C   LIG     1      24.491  21.913  21.334  1.00  0.00    -0.072 C 
HETATM    4  C   LIG     1      24.617  22.769  22.367  1.00  0.00    -0.023 C 
HETATM    5  C   LIG     1      24.505  22.328  23.795  1.00  0.00     0.033 C 
HETATM    6  C   LIG     1      23.760  19.657  20.328  1.00  0.00     0.016 C 
HETATM    7  C   LIG     1      23.021  20.533  19.324  1.00  0.00     0.033 C 
HETATM    8  C   LIG     1      23.987  21.604  18.815  1.00  0.00     0.122 C 
HETATM    9  C   LIG     1      24.419  22.547  19.950  1.00  0.00     0.066 C 
HETATM   10  C   LIG     1      23.081  20.392  22.733  1.00  0.00     0.003 C 
HETATM   11  C   LIG     1      23.426  21.230  24.031  1.00  0.00    -0.001 C 
HETATM   12  C   LIG     1      23.792  20.335  25.264  1.00  0.00     0.006 C 
HETATM   13  C   LIG     1      23.906  21.158  26.572  1.00  0.00     0.013 C 
HETATM   14  C   LIG     1      22.566  21.050  27.288  1.00  0.00     0.079 C 
HETATM   15  C   LIG     1      21.966  19.820  26.728  1.00  0.00     0.135 C 
HETATM   16  O   LIG     1      20.940  19.325  27.174  1.00  0.00    -0.297 OA
HETATM   17  C   LIG     1      22.725  19.240  25.575  1.00  0.00     0.021 C 
HETATM   18  C   LIG     1      23.405  17.933  26.039  1.00  0.00     0.024 C 
HETATM   19  C   LIG     1      21.774  18.969  24.386  1.00  0.00     0.018 C 
HETATM   20  C   LIG     1      22.537  18.977  23.065  1.00  0.00     0.007 C 
ENDROOT
BRANCH   8  21
HETATM   21  O   LIG     1      23.418  22.329  17.753  1.00  0.00    -0.395 OA
HETATM   22  H   LIG     1      23.704  21.900  16.905  1.00  0.00     0.210 HD
ENDBRANCH   8  21
TORSDOF 1
ENDMDL
MODEL 9
REMARK VINA RESULT:      -5.0      3.999      5.220
REMARK  1 active torsions:
REMARK  status: ('A' for Active; 'I' for Inactive)
REMARK    1  A    between atoms: C_8  and  O_9 
ROOT
HETATM    1  C   LIG     1      26.245  20.476  21.876  1.00  0.00     0.020 C 
HETATM    2  C   LIG     1      25.233  21.606  21.550  1.00  0.00    -0.017 C 
HETATM    3  C   LIG     1      25.685  22.329  20.263  1.00  0.00    -0.072 C 
HETATM    4  C   LIG     1      26.714  23.197  20.326  1.00  0.00    -0.023 C 
HETATM    5  C   LIG     1      27.451  23.480  21.600  1.00  0.00     0.033 C 
HETATM    6  C   LIG     1      23.838  20.910  21.364  1.00  0.00     0.016 C 
HETATM    7  C   LIG     1      22.929  21.621  20.369  1.00  0.00     0.033 C 
HETATM    8  C   LIG     1      23.577  21.545  18.985  1.00  0.00     0.122 C 
HETATM    9  C   LIG     1      24.909  22.312  18.951  1.00  0.00     0.066 C 
HETATM   10  C   LIG     1      25.189  22.703  22.687  1.00  0.00     0.003 C 
HETATM   11  C   LIG     1      26.537  23.513  22.860  1.00  0.00    -0.001 C 
HETATM   12  C   LIG     1      27.336  23.111  24.147  1.00  0.00     0.006 C 
HETATM   13  C   LIG     1      28.529  24.062  24.418  1.00  0.00     0.013 C 
HETATM   14  C   LIG     1      28.053  25.106  25.419  1.00  0.00     0.079 C 
HETATM   15  C   LIG     1      26.900  24.458  26.081  1.00  0.00     0.135 C 
HETATM   16  O   LIG     1      26.343  24.940  27.057  1.00  0.00    -0.297 OA
HETATM   17  C   LIG     1      26.482  23.166  25.451  1.00  0.00     0.021 C 
HETATM   18  C   LIG     1      26.861  22.007  26.401  1.00  0.00     0.024 C 
HETATM   19  C   LIG     1      24.959  23.169  25.176  1.00  0.00     0.018 C 
HETATM   20  C   LIG     1      24.609  22.212  24.040  1.00  0.00     0.007 C 
ENDROOT
BRANCH   8  21
HETATM   21  O   LIG     1      22.701  22.023  17.995  1.00  0.00    -0.395 OA
HETATM   22  H   LIG     1      22.911  22.981  17.840  1.00  0.00     0.210 HD
ENDBRANCH   8  21
TORSDOF 1
ENDMDL
MODEL 10
REMARK VINA RESULT:      -4.9      3.046      4.370
REMARK  1 active torsions:
REMARK  status: ('A' for Active; 'I' for Inactive)
REMARK    1  A    between atoms: C_8  and  O_9 
ROOT
HETATM    1  C   LIG     1      23.111  23.182  21.636  1.00  0.00     0.020 C 
HETATM    2  C   LIG     1      23.839  21.821  21.802  1.00  0.00    -0.017 C 
HETATM    3  C   LIG     1      24.180  21.613  23.293  1.00  0.00    -0.072 C 
HETATM    4  C   LIG     1      25.214  22.291  23.830  1.00  0.00    -0.023 C 
HETATM    5  C   LIG     1      26.042  23.255  23.035  1.00  0.00     0.033 C 
HETATM    6  C   LIG     1      22.848  20.722  21.276  1.00  0.00     0.016 C 
HETATM    7  C   LIG     1      22.992  19.381  21.984  1.00  0.00     0.033 C 
HETATM    8  C   LIG     1      22.605  19.567  23.452  1.00  0.00     0.122 C 
HETATM    9  C   LIG     1      23.576  20.520  24.167  1.00  0.00     0.066 C 
HETATM   10  C   LIG     1      25.212  21.787  21.021  1.00  0.00     0.003 C 
HETATM   11  C   LIG     1      26.294  22.805  21.566  1.00  0.00    -0.001 C 
HETATM   12  C   LIG     1      26.507  24.041  20.626  1.00  0.00     0.006 C 
HETATM   13  C   LIG     1      27.719  24.904  21.058  1.00  0.00     0.013 C 
HETATM   14  C   LIG     1      28.911  24.457  20.220  1.00  0.00     0.079 C 
HETATM   15  C   LIG     1      28.289  23.819  19.039  1.00  0.00     0.135 C 
HETATM   16  O   LIG     1      28.937  23.466  18.064  1.00  0.00    -0.297 OA
HETATM   17  C   LIG     1      26.806  23.651  19.145  1.00  0.00     0.021 C 
HETATM   18  C   LIG     1      26.125  24.640  18.173  1.00  0.00     0.024 C 
HETATM   19  C   LIG     1      26.404  22.194  18.812  1.00  0.00     0.018 C 
HETATM   20  C   LIG     1      25.079  21.829  19.475  1.00  0.00     0.007 C 
ENDROOT
BRANCH   8  21
HETATM   21  O   LIG     1      22.542  18.329  24.115  1.00  0.00    -0.395 OA
HETATM   22  H   LIG     1      23.140  18.377  24.906  1.00  0.00     0.210 HD
ENDBRANCH   8  21
TORSDOF 1
ENDMDL
MODEL 11
REMARK VINA RESULT:      -4.9      4.831      7.233
REMARK  1 active torsions:
REMARK  status: ('A' for Active; 'I' for Inactive)
REMARK    1  A    between atoms: C_8  and  O_9 
ROOT
HETATM    1  C   LIG     1      24.733  23.196  25.370  1.00  0.00     0.020 C 
HETATM    2  C   LIG     1      25.248  21.746  25.164  1.00  0.00    -0.017 C 
HETATM    3  C   LIG     1      26.790  21.747  25.228  1.00  0.00    -0.072 C 
HETATM    4  C   LIG     1      27.490  22.202  24.170  1.00  0.00    -0.023 C 
HETATM    5  C   LIG     1      26.826  22.723  22.931  1.00  0.00     0.033 C 
HETATM    6  C   LIG     1      24.620  20.886  26.318  1.00  0.00     0.016 C 
HETATM    7  C   LIG     1      25.499  19.723  26.759  1.00  0.00     0.033 C 
HETATM    8  C   LIG     1      26.782  20.291  27.367  1.00  0.00     0.122 C 
HETATM    9  C   LIG     1      27.604  21.057  26.317  1.00  0.00     0.066 C 
HETATM   10  C   LIG     1      24.860  21.181  23.740  1.00  0.00     0.003 C 
HETATM   11  C   LIG     1      25.539  21.943  22.532  1.00  0.00    -0.001 C 
HETATM   12  C   LIG     1      24.544  22.863  21.745  1.00  0.00     0.006 C 
HETATM   13  C   LIG     1      25.168  23.422  20.441  1.00  0.00     0.013 C 
HETATM   14  C   LIG     1      24.729  22.506  19.305  1.00  0.00     0.079 C 
HETATM   15  C   LIG     1      23.514  21.849  19.833  1.00  0.00     0.135 C 
HETATM   16  O   LIG     1      22.791  21.147  19.140  1.00  0.00    -0.297 OA
HETATM   17  C   LIG     1      23.251  22.124  21.280  1.00  0.00     0.021 C 
HETATM   18  C   LIG     1      22.022  23.055  21.392  1.00  0.00     0.024 C 
HETATM   19  C   LIG     1      23.004  20.801  22.044  1.00  0.00     0.018 C 
HETATM   20  C   LIG     1      23.339  20.955  23.524  1.00  0.00     0.007 C 
ENDROOT
BRANCH   8  21
HETATM   21  O   LIG     1      27.552  19.273  27.957  1.00  0.00    -0.395 OA
HETATM   22  H   LIG     1      27.773  18.612  27.251  1.00  0.00     0.210 HD
ENDBRANCH   8  21
TORSDOF 1
ENDMDL
MODEL 12
REMARK VINA RESULT:      -4.9     14.684     17.019
REMARK  1 active torsions:
REMARK  status: ('A' for Active; 'I' for Inactive)
REMARK    1  A    between atoms: C_8  and  O_9 
ROOT
HETATM    1  C   LIG     1      19.187  20.534  35.293  1.00  0.00     0.020 C 
HETATM    2  C   LIG     1      20.708  20.779  35.105  1.00  0.00    -0.017 C 
HETATM    3  C   LIG     1      21.014  22.268  35.375  1.00  0.00    -0.072 C 
HETATM    4  C   LIG     1      20.698  23.183  34.438  1.00  0.00    -0.023 C 
HETATM    5  C   LIG     1      20.044  22.812  33.141  1.00  0.00     0.033 C 
HETATM    6  C   LIG     1      21.437  19.842  36.133  1.00  0.00     0.016 C 
HETATM    7  C   LIG     1      22.755  20.407  36.646  1.00  0.00     0.033 C 
HETATM    8  C   LIG     1      22.458  21.680  37.440  1.00  0.00     0.122 C 
HETATM    9  C   LIG     1      21.861  22.772  36.538  1.00  0.00     0.066 C 
HETATM   10  C   LIG     1      21.173  20.489  33.623  1.00  0.00     0.003 C 
HETATM   11  C   LIG     1      20.550  21.465  32.545  1.00  0.00    -0.001 C 
HETATM   12  C   LIG     1      19.445  20.787  31.665  1.00  0.00     0.006 C 
HETATM   13  C   LIG     1      19.009  21.683  30.478  1.00  0.00     0.013 C 
HETATM   14  C   LIG     1      19.809  21.235  29.261  1.00  0.00     0.079 C 
HETATM   15  C   LIG     1      20.217  19.853  29.597  1.00  0.00     0.135 C 
HETATM   16  O   LIG     1      20.756  19.111  28.789  1.00  0.00    -0.297 OA
HETATM   17  C   LIG     1      19.908  19.451  31.005  1.00  0.00     0.021 C 
HETATM   18  C   LIG     1      18.753  18.425  30.985  1.00  0.00     0.024 C 
HETATM   19  C   LIG     1      21.162  18.848  31.681  1.00  0.00     0.018 C 
HETATM   20  C   LIG     1      21.091  18.999  33.197  1.00  0.00     0.007 C 
ENDROOT
BRANCH   8  21
HETATM   21  O   LIG     1      23.613  22.146  38.091  1.00  0.00    -0.395 OA
HETATM   22  H   LIG     1      23.763  23.086  37.809  1.00  0.00     0.210 HD
ENDBRANCH   8  21
TORSDOF 1
ENDMDL
MODEL 13
REMARK VINA RESULT:      -4.9      5.268      7.577
REMARK  1 active torsions:
REMARK  status: ('A' for Active; 'I' for Inactive)
REMARK    1  A    between atoms: C_8  and  O_9 
ROOT
HETATM    1  C   LIG     1      24.965  19.415  24.692  1.00  0.00     0.020 C 
HETATM    2  C   LIG     1      23.632  20.191  24.869  1.00  0.00    -0.017 C 
HETATM    3  C   LIG     1      22.517  19.192  25.245  1.00  0.00    -0.072 C 
HETATM    4  C   LIG     1      21.992  18.403  24.287  1.00  0.00    -0.023 C 
HETATM    5  C   LIG     1      22.460  18.448  22.864  1.00  0.00     0.033 C 
HETATM    6  C   LIG     1      23.879  21.240  26.010  1.00  0.00     0.016 C 
HETATM    7  C   LIG     1      22.634  21.554  26.831  1.00  0.00     0.033 C 
HETATM    8  C   LIG     1      22.212  20.284  27.571  1.00  0.00     0.122 C 
HETATM    9  C   LIG     1      21.792  19.180  26.587  1.00  0.00     0.066 C 
HETATM   10  C   LIG     1      23.173  20.888  23.527  1.00  0.00     0.003 C 
HETATM   11  C   LIG     1      22.812  19.879  22.362  1.00  0.00    -0.001 C 
HETATM   12  C   LIG     1      23.896  19.831  21.231  1.00  0.00     0.006 C 
HETATM   13  C   LIG     1      23.423  19.014  20.002  1.00  0.00     0.013 C 
HETATM   14  C   LIG     1      22.864  20.008  18.991  1.00  0.00     0.079 C 
HETATM   15  C   LIG     1      23.497  21.289  19.372  1.00  0.00     0.135 C 
HETATM   16  O   LIG     1      23.401  22.300  18.690  1.00  0.00    -0.297 OA
HETATM   17  C   LIG     1      24.260  21.235  20.659  1.00  0.00     0.021 C 
HETATM   18  C   LIG     1      25.770  21.319  20.342  1.00  0.00     0.024 C 
HETATM   19  C   LIG     1      23.832  22.395  21.588  1.00  0.00     0.018 C 
HETATM   20  C   LIG     1      24.091  22.045  23.051  1.00  0.00     0.007 C 
ENDROOT
BRANCH   8  21
HETATM   21  O   LIG     1      21.179  20.557  28.485  1.00  0.00    -0.395 OA
HETATM   22  H   LIG     1      20.693  21.360  28.163  1.00  0.00     0.210 HD
ENDBRANCH   8  21
TORSDOF 1
ENDMDL
MODEL 14
REMARK VINA RESULT:      -4.9      1.559      2.451
REMARK  1 active torsions:
REMARK  status: ('A' for Active; 'I' for Inactive)
REMARK    1  A    between atoms: C_8  and  O_9 
ROOT
HETATM    1  C   LIG     1      23.628  22.653  20.823  1.00  0.00     0.020 C 
HETATM    2  C   LIG     1      24.094  21.707  19.683  1.00  0.00    -0.017 C 
HETATM    3  C   LIG     1      24.358  20.305  20.272  1.00  0.00    -0.072 C 
HETATM    4  C   LIG     1      25.484  20.092  20.980  1.00  0.00    -0.023 C 
HETATM    5  C   LIG     1      26.491  21.174  21.232  1.00  0.00     0.033 C 
HETATM    6  C   LIG     1      22.932  21.683  18.627  1.00  0.00     0.016 C 
HETATM    7  C   LIG     1      22.815  20.360  17.880  1.00  0.00     0.033 C 
HETATM    8  C   LIG     1      22.435  19.271  18.884  1.00  0.00     0.122 C 
HETATM    9  C   LIG     1      23.546  19.062  19.925  1.00  0.00     0.066 C 
HETATM   10  C   LIG     1      25.455  22.185  19.040  1.00  0.00     0.003 C 
HETATM   11  C   LIG     1      26.691  22.139  20.027  1.00  0.00    -0.001 C 
HETATM   12  C   LIG     1      27.146  23.559  20.511  1.00  0.00     0.006 C 
HETATM   13  C   LIG     1      28.484  23.511  21.291  1.00  0.00     0.013 C 
HETATM   14  C   LIG     1      29.594  23.838  20.300  1.00  0.00     0.079 C 
HETATM   15  C   LIG     1      28.894  24.566  19.218  1.00  0.00     0.135 C 
HETATM   16  O   LIG     1      29.490  25.122  18.306  1.00  0.00    -0.297 OA
HETATM   17  C   LIG     1      27.403  24.561  19.344  1.00  0.00     0.021 C 
HETATM   18  C   LIG     1      26.935  25.981  19.732  1.00  0.00     0.024 C 
HETATM   19  C   LIG     1      26.752  24.116  18.012  1.00  0.00     0.018 C 
HETATM   20  C   LIG     1      25.368  23.521  18.255  1.00  0.00     0.007 C 
ENDROOT
BRANCH   8  21
HETATM   21  O   LIG     1      22.134  18.066  18.226  1.00  0.00    -0.395 OA
HETATM   22  H   LIG     1      21.337  17.670  18.666  1.00  0.00     0.210 HD
ENDBRANCH   8  21
TORSDOF 1
ENDMDL
MODEL 15
REMARK VINA RESULT:      -4.9      1.830      2.519
REMARK  1 active torsions:
REMARK  status: ('A' for Active; 'I' for Inactive)
REMARK    1  A    between atoms: C_8  and  O_9 
ROOT
HETATM    1  C   LIG     1      27.627  21.746  20.820  1.00  0.00     0.020 C 
HETATM    2  C   LIG     1      26.362  22.646  20.816  1.00  0.00    -0.017 C 
HETATM    3  C   LIG     1      25.298  22.013  19.894  1.00  0.00    -0.072 C 
HETATM    4  C   LIG     1      25.441  22.119  18.558  1.00  0.00    -0.023 C 
HETATM    5  C   LIG     1      26.607  22.819  17.928  1.00  0.00     0.033 C 
HETATM    6  C   LIG     1      25.868  22.720  22.305  1.00  0.00     0.016 C 
HETATM    7  C   LIG     1      24.359  22.876  22.440  1.00  0.00     0.033 C 
HETATM    8  C   LIG     1      23.693  21.616  21.884  1.00  0.00     0.122 C 
HETATM    9  C   LIG     1      23.961  21.463  20.378  1.00  0.00     0.066 C 
HETATM   10  C   LIG     1      26.663  24.083  20.231  1.00  0.00     0.003 C 
HETATM   11  C   LIG     1      27.072  24.088  18.702  1.00  0.00    -0.001 C 
HETATM   12  C   LIG     1      28.598  24.362  18.473  1.00  0.00     0.006 C 
HETATM   13  C   LIG     1      28.935  24.585  16.977  1.00  0.00     0.013 C 
HETATM   14  C   LIG     1      28.950  26.090  16.740  1.00  0.00     0.079 C 
HETATM   15  C   LIG     1      29.176  26.655  18.088  1.00  0.00     0.135 C 
HETATM   16  O   LIG     1      29.397  27.843  18.275  1.00  0.00    -0.297 OA
HETATM   17  C   LIG     1      29.114  25.647  19.192  1.00  0.00     0.021 C 
HETATM   18  C   LIG     1      30.540  25.427  19.743  1.00  0.00     0.024 C 
HETATM   19  C   LIG     1      28.165  26.133  20.313  1.00  0.00     0.018 C 
HETATM   20  C   LIG     1      27.605  24.955  21.103  1.00  0.00     0.007 C 
ENDROOT
BRANCH   8  21
HETATM   21  O   LIG     1      22.312  21.621  22.147  1.00  0.00    -0.395 OA
HETATM   22  H   LIG     1      22.143  20.992  22.896  1.00  0.00     0.210 HD
ENDBRANCH   8  21
TORSDOF 1
ENDMDL
MODEL 16
REMARK VINA RESULT:      -4.8      3.882      5.616
REMARK  1 active torsions:
REMARK  status: ('A' for Active; 'I' for Inactive)
REMARK    1  A    between atoms: C_8  and  O_9 
ROOT
HETATM    1  C   LIG     1      27.294  21.346  23.086  1.00  0.00     0.020 C 
HETATM    2  C   LIG     1      26.877  22.760  23.573  1.00  0.00    -0.017 C 
HETATM    3  C   LIG     1      25.388  22.732  23.981  1.00  0.00    -0.072 C 
HETATM    4  C   LIG     1      24.445  22.728  23.018  1.00  0.00    -0.023 C 
HETATM    5  C   LIG     1      24.786  22.736  21.559  1.00  0.00     0.033 C 
HETATM    6  C   LIG     1      27.805  23.098  24.794  1.00  0.00     0.016 C 
HETATM    7  C   LIG     1      27.143  23.994  25.834  1.00  0.00     0.033 C 
HETATM    8  C   LIG     1      25.971  23.230  26.452  1.00  0.00     0.122 C 
HETATM    9  C   LIG     1      24.884  22.937  25.405  1.00  0.00     0.066 C 
HETATM   10  C   LIG     1      27.006  23.840  22.427  1.00  0.00     0.003 C 
HETATM   11  C   LIG     1      26.024  23.613  21.208  1.00  0.00    -0.001 C 
HETATM   12  C   LIG     1      26.749  23.078  19.925  1.00  0.00     0.006 C 
HETATM   13  C   LIG     1      25.819  23.075  18.685  1.00  0.00     0.013 C 
HETATM   14  C   LIG     1      26.088  24.364  17.919  1.00  0.00     0.079 C 
HETATM   15  C   LIG     1      27.441  24.763  18.367  1.00  0.00     0.135 C 
HETATM   16  O   LIG     1      28.061  25.682  17.852  1.00  0.00    -0.297 OA
HETATM   17  C   LIG     1      27.976  23.942  19.498  1.00  0.00     0.021 C 
HETATM   18  C   LIG     1      29.114  23.044  18.963  1.00  0.00     0.024 C 
HETATM   19  C   LIG     1      28.491  24.859  20.633  1.00  0.00     0.018 C 
HETATM   20  C   LIG     1      28.461  24.135  21.975  1.00  0.00     0.007 C 
ENDROOT
BRANCH   8  21
HETATM   21  O   LIG     1      25.435  23.933  27.545  1.00  0.00    -0.395 OA
HETATM   22  H   LIG     1      24.478  23.681  27.628  1.00  0.00     0.210 HD
ENDBRANCH   8  21
TORSDOF 1
ENDMDL
MODEL 17
REMARK VINA RESULT:      -4.8      6.979     10.660
REMARK  1 active torsions:
REMARK  status: ('A' for Active; 'I' for Inactive)
REMARK    1  A    between atoms: C_8  and  O_9 
ROOT
HETATM    1  C   LIG     1      29.784  24.449  28.113  1.00  0.00     0.020 C 
HETATM    2  C   LIG     1      29.150  25.718  27.484  1.00  0.00    -0.017 C 
HETATM    3  C   LIG     1      28.545  26.587  28.608  1.00  0.00    -0.072 C 
HETATM    4  C   LIG     1      27.377  26.217  29.166  1.00  0.00    -0.023 C 
HETATM    5  C   LIG     1      26.642  24.979  28.748  1.00  0.00     0.033 C 
HETATM    6  C   LIG     1      30.309  26.466  26.734  1.00  0.00     0.016 C 
HETATM    7  C   LIG     1      30.140  27.979  26.703  1.00  0.00     0.033 C 
HETATM    8  C   LIG     1      30.220  28.502  28.138  1.00  0.00     0.122 C 
HETATM    9  C   LIG     1      29.056  27.972  28.990  1.00  0.00     0.066 C 
HETATM   10  C   LIG     1      27.960  25.360  26.507  1.00  0.00     0.003 C 
HETATM   11  C   LIG     1      26.715  24.692  27.219  1.00  0.00    -0.001 C 
HETATM   12  C   LIG     1      26.588  23.158  26.926  1.00  0.00     0.006 C 
HETATM   13  C   LIG     1      25.249  22.572  27.442  1.00  0.00     0.013 C 
HETATM   14  C   LIG     1      24.282  22.557  26.266  1.00  0.00     0.079 C 
HETATM   15  C   LIG     1      25.168  22.585  25.082  1.00  0.00     0.135 C 
HETATM   16  O   LIG     1      24.751  22.434  23.943  1.00  0.00    -0.297 OA
HETATM   17  C   LIG     1      26.612  22.811  25.405  1.00  0.00     0.021 C 
HETATM   18  C   LIG     1      27.386  21.497  25.159  1.00  0.00     0.024 C 
HETATM   19  C   LIG     1      27.187  23.954  24.535  1.00  0.00     0.018 C 
HETATM   20  C   LIG     1      28.384  24.609  25.217  1.00  0.00     0.007 C 
ENDROOT
BRANCH   8  21
HETATM   21  O   LIG     1      30.254  29.908  28.158  1.00  0.00    -0.395 OA
HETATM   22  H   LIG     1      29.746  30.235  27.371  1.00  0.00     0.210 HD
ENDBRANCH   8  21
TORSDOF 1
ENDMDL
MODEL 18
REMARK VINA RESULT:      -4.7      1.866      6.654
REMARK  1 active torsions:
REMARK  status: ('A' for Active; 'I' for Inactive)
REMARK    1  A    between atoms: C_8  and  O_9 
ROOT
HETATM    1  C   LIG     1      27.920  21.554  19.463  1.00  0.00     0.020 C 
HETATM    2  C   LIG     1      26.813  22.628  19.285  1.00  0.00    -0.017 C 
HETATM    3  C   LIG     1      26.781  23.528  20.538  1.00  0.00    -0.072 C 
HETATM    4  C   LIG     1      26.217  23.059  21.668  1.00  0.00    -0.023 C 
HETATM    5  C   LIG     1      25.628  21.683  21.762  1.00  0.00     0.033 C 
HETATM    6  C   LIG     1      27.190  23.442  17.996  1.00  0.00     0.016 C 
HETATM    7  C   LIG     1      26.745  24.898  18.042  1.00  0.00     0.033 C 
HETATM    8  C   LIG     1      27.507  25.599  19.168  1.00  0.00     0.122 C 
HETATM    9  C   LIG     1      27.140  25.010  20.539  1.00  0.00     0.066 C 
HETATM   10  C   LIG     1      25.377  21.979  19.164  1.00  0.00     0.003 C 
HETATM   11  C   LIG     1      24.893  21.225  20.468  1.00  0.00    -0.001 C 
HETATM   12  C   LIG     1      24.923  19.665  20.324  1.00  0.00     0.006 C 
HETATM   13  C   LIG     1      24.240  18.954  21.520  1.00  0.00     0.013 C 
HETATM   14  C   LIG     1      22.806  18.651  21.102  1.00  0.00     0.079 C 
HETATM   15  C   LIG     1      22.860  18.666  19.624  1.00  0.00     0.135 C 
HETATM   16  O   LIG     1      21.919  18.316  18.927  1.00  0.00    -0.297 OA
HETATM   17  C   LIG     1      24.164  19.142  19.066  1.00  0.00     0.021 C 
HETATM   18  C   LIG     1      24.906  17.937  18.445  1.00  0.00     0.024 C 
HETATM   19  C   LIG     1      23.926  20.243  18.004  1.00  0.00     0.018 C 
HETATM   20  C   LIG     1      25.147  21.147  17.874  1.00  0.00     0.007 C 
ENDROOT
BRANCH   8  21
HETATM   21  O   LIG     1      27.275  26.986  19.143  1.00  0.00    -0.395 OA
HETATM   22  H   LIG     1      27.411  27.333  20.062  1.00  0.00     0.210 HD
ENDBRANCH   8  21
TORSDOF 1
ENDMDL
MODEL 19
REMARK VINA RESULT:      -4.7      3.351      6.830
REMARK  1 active torsions:
REMARK  status: ('A' for Active; 'I' for Inactive)
REMARK    1  A    between atoms: C_8  and  O_9 
ROOT
HETATM    1  C   LIG     1      27.604  22.122  20.400  1.00  0.00     0.020 C 
HETATM    2  C   LIG     1      26.808  23.425  20.682  1.00  0.00    -0.017 C 
HETATM    3  C   LIG     1      27.764  24.477  21.283  1.00  0.00    -0.072 C 
HETATM    4  C   LIG     1      28.137  24.364  22.573  1.00  0.00    -0.023 C 
HETATM    5  C   LIG     1      27.668  23.242  23.449  1.00  0.00     0.033 C 
HETATM    6  C   LIG     1      26.225  23.894  19.301  1.00  0.00     0.016 C 
HETATM    7  C   LIG     1      26.084  25.406  19.180  1.00  0.00     0.033 C 
HETATM    8  C   LIG     1      27.482  26.026  19.229  1.00  0.00     0.122 C 
HETATM    9  C   LIG     1      28.151  25.780  20.591  1.00  0.00     0.066 C 
HETATM   10  C   LIG     1      25.665  23.199  21.749  1.00  0.00     0.003 C 
HETATM   11  C   LIG     1      26.191  22.820  23.193  1.00  0.00    -0.001 C 
HETATM   12  C   LIG     1      25.965  21.312  23.554  1.00  0.00     0.006 C 
HETATM   13  C   LIG     1      26.278  21.013  25.042  1.00  0.00     0.013 C 
HETATM   14  C   LIG     1      24.957  21.068  25.800  1.00  0.00     0.079 C 
HETATM   15  C   LIG     1      23.941  20.842  24.749  1.00  0.00     0.135 C 
HETATM   16  O   LIG     1      22.757  20.670  25.004  1.00  0.00    -0.297 OA
HETATM   17  C   LIG     1      24.491  20.839  23.357  1.00  0.00     0.021 C 
HETATM   18  C   LIG     1      24.451  19.394  22.812  1.00  0.00     0.024 C 
HETATM   19  C   LIG     1      23.670  21.788  22.451  1.00  0.00     0.018 C 
HETATM   20  C   LIG     1      24.508  22.280  21.275  1.00  0.00     0.007 C 
ENDROOT
BRANCH   8  21
HETATM   21  O   LIG     1      27.431  27.401  18.940  1.00  0.00    -0.395 OA
HETATM   22  H   LIG     1      28.363  27.736  18.896  1.00  0.00     0.210 HD
ENDBRANCH   8  21
TORSDOF 1
ENDMDL
MODEL 20
REMARK VINA RESULT:      -4.7      5.996      7.626
REMARK  1 active torsions:
REMARK  status: ('A' for Active; 'I' for Inactive)
REMARK    1  A    between atoms: C_8  and  O_9 
ROOT
HETATM    1  C   LIG     1      27.851  21.974  24.871  1.00  0.00     0.020 C 
HETATM    2  C   LIG     1      26.818  23.017  24.366  1.00  0.00    -0.017 C 
HETATM    3  C   LIG     1      27.339  23.646  23.056  1.00  0.00    -0.072 C 
HETATM    4  C   LIG     1      28.320  24.568  23.116  1.00  0.00    -0.023 C 
HETATM    5  C   LIG     1      28.939  25.000  24.411  1.00  0.00     0.033 C 
HETATM    6  C   LIG     1      25.475  22.235  24.139  1.00  0.00     0.016 C 
HETATM    7  C   LIG     1      24.618  22.807  23.017  1.00  0.00     0.033 C 
HETATM    8  C   LIG     1      25.378  22.643  21.700  1.00  0.00     0.122 C 
HETATM    9  C   LIG     1      26.672  23.472  21.696  1.00  0.00     0.066 C 
HETATM   10  C   LIG     1      26.633  24.206  25.390  1.00  0.00     0.003 C 
HETATM   11  C   LIG     1      27.926  25.097  25.590  1.00  0.00    -0.001 C 
HETATM   12  C   LIG     1      28.636  24.852  26.966  1.00  0.00     0.006 C 
HETATM   13  C   LIG     1      29.759  25.885  27.236  1.00  0.00     0.013 C 
HETATM   14  C   LIG     1      29.158  26.987  28.099  1.00  0.00     0.079 C 
HETATM   15  C   LIG     1      27.986  26.341  28.728  1.00  0.00     0.135 C 
HETATM   16  O   LIG     1      27.332  26.878  29.611  1.00  0.00    -0.297 OA
HETATM   17  C   LIG     1      27.678  24.978  28.190  1.00  0.00     0.021 C 
HETATM   18  C   LIG     1      28.032  23.930  29.268  1.00  0.00     0.024 C 
HETATM   19  C   LIG     1      26.184  24.877  27.801  1.00  0.00     0.018 C 
HETATM   20  C   LIG     1      25.970  23.807  26.735  1.00  0.00     0.007 C 
ENDROOT
BRANCH   8  21
HETATM   21  O   LIG     1      24.563  22.985  20.606  1.00  0.00    -0.395 OA
HETATM   22  H   LIG     1      23.618  22.861  20.880  1.00  0.00     0.210 HD
ENDBRANCH   8  21
TORSDOF 1
ENDMDL
