REMARK  0 active torsions:
REMARK  status: ('A' for Active; 'I' for Inactive)
ROOT
HETATM    1  C   LIG     1       1.429   0.048  -0.089  1.00  0.00    -0.014 A 
HETATM    2  C   LIG     1       2.857   0.051  -0.177  1.00  0.00    -0.015 A 
HETATM    3  C   LIG     1       3.613   1.203  -0.514  1.00  0.00     0.013 A 
HETATM    4  C   LIG     1       5.007   1.151  -0.587  1.00  0.00     0.001 A 
HETATM    5  C   LIG     1       5.683  -0.038  -0.330  1.00  0.00     0.001 A 
HETATM    6  C   LIG     1       4.970  -1.187   0.004  1.00  0.00     0.012 A 
HETATM    7  C   LIG     1       3.568  -1.156   0.082  1.00  0.00    -0.025 A 
HETATM    8  C   LIG     1       2.878  -2.323   0.419  1.00  0.00     0.013 A 
HETATM    9  C   LIG     1       1.492  -2.323   0.504  1.00  0.00     0.013 A 
HETATM   10  C   LIG     1       0.760  -1.155   0.255  1.00  0.00    -0.024 A 
HETATM   11  C   LIG     1      -0.641  -1.194   0.352  1.00  0.00     0.025 A 
HETATM   12  C   LIG     1      -1.429  -0.048   0.112  1.00  0.00    -0.014 A 
HETATM   13  C   LIG     1      -0.760   1.155  -0.232  1.00  0.00    -0.024 A 
HETATM   14  C   LIG     1      -1.492   2.323  -0.481  1.00  0.00     0.013 A 
HETATM   15  C   LIG     1      -2.878   2.323  -0.395  1.00  0.00     0.013 A 
HETATM   16  C   LIG     1      -3.568   1.156  -0.059  1.00  0.00    -0.025 A 
HETATM   17  C   LIG     1      -2.857  -0.051   0.201  1.00  0.00    -0.015 A 
HETATM   18  C   LIG     1      -3.613  -1.203   0.537  1.00  0.00     0.013 A 
HETATM   19  C   LIG     1      -5.007  -1.151   0.610  1.00  0.00     0.001 A 
HETATM   20  C   LIG     1      -5.683   0.038   0.353  1.00  0.00     0.001 A 
HETATM   21  C   LIG     1      -4.970   1.187   0.020  1.00  0.00     0.012 A 
HETATM   22  C   LIG     1       0.641   1.194  -0.328  1.00  0.00     0.025 A 
ENDROOT
TORSDOF 0
