MODEL 1
REMARK VINA RESULT:      -8.5      0.000      0.000
REMARK  0 active torsions:
REMARK  status: ('A' for Active; 'I' for Inactive)
ROOT
HETATM    1  C   LIG     1      16.652  35.699  21.731  1.00  0.00    -0.014 A 
HETATM    2  C   LIG     1      17.091  36.490  22.839  1.00  0.00    -0.015 A 
HETATM    3  C   LIG     1      16.843  36.140  24.191  1.00  0.00     0.013 A 
HETATM    4  C   LIG     1      17.293  36.950  25.236  1.00  0.00     0.001 A 
HETATM    5  C   LIG     1      17.997  38.121  24.969  1.00  0.00     0.001 A 
HETATM    6  C   LIG     1      18.257  38.493  23.652  1.00  0.00     0.012 A 
HETATM    7  C   LIG     1      17.812  37.693  22.587  1.00  0.00    -0.025 A 
HETATM    8  C   LIG     1      18.086  38.090  21.276  1.00  0.00     0.013 A 
HETATM    9  C   LIG     1      17.659  37.319  20.202  1.00  0.00     0.013 A 
HETATM   10  C   LIG     1      16.947  36.132  20.412  1.00  0.00    -0.024 A 
HETATM   11  C   LIG     1      16.533  35.379  19.300  1.00  0.00     0.025 A 
HETATM   12  C   LIG     1      15.812  34.175  19.452  1.00  0.00    -0.014 A 
HETATM   13  C   LIG     1      15.517  33.742  20.771  1.00  0.00    -0.024 A 
HETATM   14  C   LIG     1      14.805  32.554  20.981  1.00  0.00     0.013 A 
HETATM   15  C   LIG     1      14.379  31.784  19.907  1.00  0.00     0.013 A 
HETATM   16  C   LIG     1      14.652  32.181  18.596  1.00  0.00    -0.025 A 
HETATM   17  C   LIG     1      15.374  33.383  18.344  1.00  0.00    -0.015 A 
HETATM   18  C   LIG     1      15.621  33.733  16.992  1.00  0.00     0.013 A 
HETATM   19  C   LIG     1      15.170  32.924  15.947  1.00  0.00     0.001 A 
HETATM   20  C   LIG     1      14.467  31.753  16.214  1.00  0.00     0.001 A 
HETATM   21  C   LIG     1      14.208  31.381  17.531  1.00  0.00     0.012 A 
HETATM   22  C   LIG     1      15.932  34.495  21.882  1.00  0.00     0.025 A 
ENDROOT
TORSDOF 0
ENDMDL
MODEL 2
REMARK VINA RESULT:      -8.5      0.019      7.386
REMARK  0 active torsions:
REMARK  status: ('A' for Active; 'I' for Inactive)
ROOT
HETATM    1  C   LIG     1      15.814  34.171  19.451  1.00  0.00    -0.014 A 
HETATM    2  C   LIG     1      15.374  33.375  18.347  1.00  0.00    -0.015 A 
HETATM    3  C   LIG     1      15.627  33.716  16.993  1.00  0.00     0.013 A 
HETATM    4  C   LIG     1      15.174  32.903  15.951  1.00  0.00     0.001 A 
HETATM    5  C   LIG     1      14.462  31.738  16.224  1.00  0.00     0.001 A 
HETATM    6  C   LIG     1      14.198  31.375  17.542  1.00  0.00     0.012 A 
HETATM    7  C   LIG     1      14.644  32.179  18.604  1.00  0.00    -0.025 A 
HETATM    8  C   LIG     1      14.365  31.791  19.917  1.00  0.00     0.013 A 
HETATM    9  C   LIG     1      14.794  32.565  20.987  1.00  0.00     0.013 A 
HETATM   10  C   LIG     1      15.513  33.748  20.772  1.00  0.00    -0.024 A 
HETATM   11  C   LIG     1      15.930  34.504  21.880  1.00  0.00     0.025 A 
HETATM   12  C   LIG     1      16.657  35.703  21.723  1.00  0.00    -0.014 A 
HETATM   13  C   LIG     1      16.958  36.126  20.402  1.00  0.00    -0.024 A 
HETATM   14  C   LIG     1      17.678  37.309  20.187  1.00  0.00     0.013 A 
HETATM   15  C   LIG     1      18.106  38.083  21.258  1.00  0.00     0.013 A 
HETATM   16  C   LIG     1      17.827  37.695  22.570  1.00  0.00    -0.025 A 
HETATM   17  C   LIG     1      17.098  36.499  22.827  1.00  0.00    -0.015 A 
HETATM   18  C   LIG     1      16.844  36.158  24.181  1.00  0.00     0.013 A 
HETATM   19  C   LIG     1      17.297  36.971  25.223  1.00  0.00     0.001 A 
HETATM   20  C   LIG     1      18.009  38.136  24.950  1.00  0.00     0.001 A 
HETATM   21  C   LIG     1      18.274  38.499  23.632  1.00  0.00     0.012 A 
HETATM   22  C   LIG     1      16.542  35.370  19.294  1.00  0.00     0.025 A 
ENDROOT
TORSDOF 0
ENDMDL
MODEL 3
REMARK VINA RESULT:      -7.3      5.737     12.043
REMARK  0 active torsions:
REMARK  status: ('A' for Active; 'I' for Inactive)
ROOT
HETATM    1  C   LIG     1      13.876  27.352  12.626  1.00  0.00    -0.014 A 
HETATM    2  C   LIG     1      13.503  26.230  11.821  1.00  0.00    -0.015 A 
HETATM    3  C   LIG     1      12.211  25.647  11.851  1.00  0.00     0.013 A 
HETATM    4  C   LIG     1      11.899  24.550  11.043  1.00  0.00     0.001 A 
HETATM    5  C   LIG     1      12.856  24.008  10.190  1.00  0.00     0.001 A 
HETATM    6  C   LIG     1      14.135  24.558  10.137  1.00  0.00     0.012 A 
HETATM    7  C   LIG     1      14.468  25.660  10.941  1.00  0.00    -0.025 A 
HETATM    8  C   LIG     1      15.758  26.192  10.868  1.00  0.00     0.013 A 
HETATM    9  C   LIG     1      16.117  27.281  11.651  1.00  0.00     0.013 A 
HETATM   10  C   LIG     1      15.195  27.867  12.527  1.00  0.00    -0.024 A 
HETATM   11  C   LIG     1      15.595  28.968  13.303  1.00  0.00     0.025 A 
HETATM   12  C   LIG     1      14.708  29.598  14.202  1.00  0.00    -0.014 A 
HETATM   13  C   LIG     1      13.389  29.083  14.301  1.00  0.00    -0.024 A 
HETATM   14  C   LIG     1      12.467  29.669  15.177  1.00  0.00     0.013 A 
HETATM   15  C   LIG     1      12.826  30.759  15.960  1.00  0.00     0.013 A 
HETATM   16  C   LIG     1      14.116  31.290  15.887  1.00  0.00    -0.025 A 
HETATM   17  C   LIG     1      15.081  30.721  15.007  1.00  0.00    -0.015 A 
HETATM   18  C   LIG     1      16.373  31.304  14.978  1.00  0.00     0.013 A 
HETATM   19  C   LIG     1      16.685  32.400  15.786  1.00  0.00     0.001 A 
HETATM   20  C   LIG     1      15.728  32.943  16.638  1.00  0.00     0.001 A 
HETATM   21  C   LIG     1      14.449  32.393  16.691  1.00  0.00     0.012 A 
HETATM   22  C   LIG     1      12.989  27.983  13.525  1.00  0.00     0.025 A 
ENDROOT
TORSDOF 0
ENDMDL
MODEL 4
REMARK VINA RESULT:      -7.2     14.811     15.770
REMARK  0 active torsions:
REMARK  status: ('A' for Active; 'I' for Inactive)
ROOT
HETATM    1  C   LIG     1      25.744  22.839  20.314  1.00  0.00    -0.014 A 
HETATM    2  C   LIG     1      26.664  23.809  20.823  1.00  0.00    -0.015 A 
HETATM    3  C   LIG     1      27.190  23.766  22.140  1.00  0.00     0.013 A 
HETATM    4  C   LIG     1      28.086  24.740  22.587  1.00  0.00     0.001 A 
HETATM    5  C   LIG     1      28.480  25.776  21.746  1.00  0.00     0.001 A 
HETATM    6  C   LIG     1      27.983  25.846  20.447  1.00  0.00     0.012 A 
HETATM    7  C   LIG     1      27.080  24.878  19.978  1.00  0.00    -0.025 A 
HETATM    8  C   LIG     1      26.597  24.972  18.671  1.00  0.00     0.013 A 
HETATM    9  C   LIG     1      25.704  24.029  18.179  1.00  0.00     0.013 A 
HETATM   10  C   LIG     1      25.272  22.966  18.982  1.00  0.00    -0.024 A 
HETATM   11  C   LIG     1      24.369  22.031  18.449  1.00  0.00     0.025 A 
HETATM   12  C   LIG     1      23.900  20.940  19.212  1.00  0.00    -0.014 A 
HETATM   13  C   LIG     1      24.372  20.813  20.544  1.00  0.00    -0.024 A 
HETATM   14  C   LIG     1      23.941  19.750  21.347  1.00  0.00     0.013 A 
HETATM   15  C   LIG     1      23.048  18.807  20.855  1.00  0.00     0.013 A 
HETATM   16  C   LIG     1      22.564  18.902  19.549  1.00  0.00    -0.025 A 
HETATM   17  C   LIG     1      22.981  19.970  18.703  1.00  0.00    -0.015 A 
HETATM   18  C   LIG     1      22.454  20.013  17.386  1.00  0.00     0.013 A 
HETATM   19  C   LIG     1      21.558  19.039  16.939  1.00  0.00     0.001 A 
HETATM   20  C   LIG     1      21.164  18.004  17.781  1.00  0.00     0.001 A 
HETATM   21  C   LIG     1      21.662  17.933  19.079  1.00  0.00     0.012 A 
HETATM   22  C   LIG     1      25.276  21.748  21.077  1.00  0.00     0.025 A 
ENDROOT
TORSDOF 0
ENDMDL
MODEL 5
REMARK VINA RESULT:      -7.2     14.782     17.177
REMARK  0 active torsions:
REMARK  status: ('A' for Active; 'I' for Inactive)
ROOT
HETATM    1  C   LIG     1      23.907  20.954  19.143  1.00  0.00    -0.014 A 
HETATM    2  C   LIG     1      22.996  19.979  18.627  1.00  0.00    -0.015 A 
HETATM    3  C   LIG     1      22.474  20.025  17.309  1.00  0.00     0.013 A 
HETATM    4  C   LIG     1      21.585  19.048  16.854  1.00  0.00     0.001 A 
HETATM    5  C   LIG     1      21.194  18.006  17.690  1.00  0.00     0.001 A 
HETATM    6  C   LIG     1      21.689  17.933  18.990  1.00  0.00     0.012 A 
HETATM    7  C   LIG     1      22.583  18.906  19.467  1.00  0.00    -0.025 A 
HETATM    8  C   LIG     1      23.064  18.807  20.775  1.00  0.00     0.013 A 
HETATM    9  C   LIG     1      23.948  19.754  21.273  1.00  0.00     0.013 A 
HETATM   10  C   LIG     1      24.376  20.824  20.477  1.00  0.00    -0.024 A 
HETATM   11  C   LIG     1      25.272  21.762  21.016  1.00  0.00     0.025 A 
HETATM   12  C   LIG     1      25.736  22.859  20.259  1.00  0.00    -0.014 A 
HETATM   13  C   LIG     1      25.268  22.989  18.926  1.00  0.00    -0.024 A 
HETATM   14  C   LIG     1      25.695  24.058  18.129  1.00  0.00     0.013 A 
HETATM   15  C   LIG     1      26.580  25.005  18.628  1.00  0.00     0.013 A 
HETATM   16  C   LIG     1      27.061  24.907  19.936  1.00  0.00    -0.025 A 
HETATM   17  C   LIG     1      26.648  23.833  20.776  1.00  0.00    -0.015 A 
HETATM   18  C   LIG     1      27.170  23.788  22.094  1.00  0.00     0.013 A 
HETATM   19  C   LIG     1      28.058  24.765  22.549  1.00  0.00     0.001 A 
HETATM   20  C   LIG     1      28.449  25.806  21.712  1.00  0.00     0.001 A 
HETATM   21  C   LIG     1      27.955  25.880  20.412  1.00  0.00     0.012 A 
HETATM   22  C   LIG     1      24.372  22.050  18.387  1.00  0.00     0.025 A 
ENDROOT
TORSDOF 0
ENDMDL
MODEL 6
REMARK VINA RESULT:      -7.0     14.817     16.334
REMARK  0 active torsions:
REMARK  status: ('A' for Active; 'I' for Inactive)
ROOT
HETATM    1  C   LIG     1      25.564  23.007  19.719  1.00  0.00    -0.014 A 
HETATM    2  C   LIG     1      24.640  22.319  20.567  1.00  0.00    -0.015 A 
HETATM    3  C   LIG     1      24.149  22.861  21.783  1.00  0.00     0.013 A 
HETATM    4  C   LIG     1      23.247  22.146  22.575  1.00  0.00     0.001 A 
HETATM    5  C   LIG     1      22.811  20.883  22.184  1.00  0.00     0.001 A 
HETATM    6  C   LIG     1      23.274  20.324  20.996  1.00  0.00     0.012 A 
HETATM    7  C   LIG     1      24.182  21.025  20.185  1.00  0.00    -0.025 A 
HETATM    8  C   LIG     1      24.630  20.440  18.999  1.00  0.00     0.013 A 
HETATM    9  C   LIG     1      25.527  21.110  18.177  1.00  0.00     0.013 A 
HETATM   10  C   LIG     1      25.999  22.383  18.522  1.00  0.00    -0.024 A 
HETATM   11  C   LIG     1      26.906  23.029  17.664  1.00  0.00     0.025 A 
HETATM   12  C   LIG     1      27.414  24.312  17.961  1.00  0.00    -0.014 A 
HETATM   13  C   LIG     1      26.979  24.936  19.159  1.00  0.00    -0.024 A 
HETATM   14  C   LIG     1      27.451  26.209  19.503  1.00  0.00     0.013 A 
HETATM   15  C   LIG     1      28.348  26.879  18.681  1.00  0.00     0.013 A 
HETATM   16  C   LIG     1      28.796  26.293  17.495  1.00  0.00    -0.025 A 
HETATM   17  C   LIG     1      28.338  25.000  17.112  1.00  0.00    -0.015 A 
HETATM   18  C   LIG     1      28.830  24.458  15.897  1.00  0.00     0.013 A 
HETATM   19  C   LIG     1      29.732  25.172  15.105  1.00  0.00     0.001 A 
HETATM   20  C   LIG     1      30.167  26.435  15.496  1.00  0.00     0.001 A 
HETATM   21  C   LIG     1      29.704  26.995  16.684  1.00  0.00     0.012 A 
HETATM   22  C   LIG     1      26.072  24.290  20.015  1.00  0.00     0.025 A 
ENDROOT
TORSDOF 0
ENDMDL
MODEL 7
REMARK VINA RESULT:      -7.0     14.815     16.082
REMARK  0 active torsions:
REMARK  status: ('A' for Active; 'I' for Inactive)
ROOT
HETATM    1  C   LIG     1      27.407  24.313  17.953  1.00  0.00    -0.014 A 
HETATM    2  C   LIG     1      28.328  25.004  17.104  1.00  0.00    -0.015 A 
HETATM    3  C   LIG     1      28.803  24.474  15.877  1.00  0.00     0.013 A 
HETATM    4  C   LIG     1      29.703  25.191  15.085  1.00  0.00     0.001 A 
HETATM    5  C   LIG     1      30.155  26.444  15.489  1.00  0.00     0.001 A 
HETATM    6  C   LIG     1      29.708  26.993  16.689  1.00  0.00     0.012 A 
HETATM    7  C   LIG     1      28.803  26.288  17.499  1.00  0.00    -0.025 A 
HETATM    8  C   LIG     1      28.372  26.862  18.698  1.00  0.00     0.013 A 
HETATM    9  C   LIG     1      27.477  26.189  19.520  1.00  0.00     0.013 A 
HETATM   10  C   LIG     1      26.990  24.925  19.164  1.00  0.00    -0.024 A 
HETATM   11  C   LIG     1      26.086  24.276  20.021  1.00  0.00     0.025 A 
HETATM   12  C   LIG     1      25.563  23.001  19.713  1.00  0.00    -0.014 A 
HETATM   13  C   LIG     1      25.980  22.390  18.502  1.00  0.00    -0.024 A 
HETATM   14  C   LIG     1      25.493  21.126  18.146  1.00  0.00     0.013 A 
HETATM   15  C   LIG     1      24.598  20.453  18.968  1.00  0.00     0.013 A 
HETATM   16  C   LIG     1      24.167  21.027  20.166  1.00  0.00    -0.025 A 
HETATM   17  C   LIG     1      24.641  22.311  20.561  1.00  0.00    -0.015 A 
HETATM   18  C   LIG     1      24.168  22.840  21.789  1.00  0.00     0.013 A 
HETATM   19  C   LIG     1      23.267  22.123  22.580  1.00  0.00     0.001 A 
HETATM   20  C   LIG     1      22.815  20.870  22.177  1.00  0.00     0.001 A 
HETATM   21  C   LIG     1      23.261  20.322  20.977  1.00  0.00     0.012 A 
HETATM   22  C   LIG     1      26.884  23.040  17.645  1.00  0.00     0.025 A 
ENDROOT
TORSDOF 0
ENDMDL
MODEL 8
REMARK VINA RESULT:      -6.7     14.819     16.339
REMARK  0 active torsions:
REMARK  status: ('A' for Active; 'I' for Inactive)
ROOT
HETATM    1  C   LIG     1      24.827  22.625  21.236  1.00  0.00    -0.014 A 
HETATM    2  C   LIG     1      25.495  23.458  20.284  1.00  0.00    -0.015 A 
HETATM    3  C   LIG     1      26.397  24.490  20.651  1.00  0.00     0.013 A 
HETATM    4  C   LIG     1      27.022  25.276  19.681  1.00  0.00     0.001 A 
HETATM    5  C   LIG     1      26.771  25.061  18.329  1.00  0.00     0.001 A 
HETATM    6  C   LIG     1      25.891  24.055  17.935  1.00  0.00     0.012 A 
HETATM    7  C   LIG     1      25.251  23.255  18.895  1.00  0.00    -0.025 A 
HETATM    8  C   LIG     1      24.373  22.253  18.473  1.00  0.00     0.013 A 
HETATM    9  C   LIG     1      23.726  21.446  19.399  1.00  0.00     0.013 A 
HETATM   10  C   LIG     1      23.942  21.618  20.772  1.00  0.00    -0.024 A 
HETATM   11  C   LIG     1      23.270  20.781  21.678  1.00  0.00     0.025 A 
HETATM   12  C   LIG     1      23.449  20.909  23.072  1.00  0.00    -0.014 A 
HETATM   13  C   LIG     1      24.334  21.915  23.536  1.00  0.00    -0.024 A 
HETATM   14  C   LIG     1      24.550  22.088  24.910  1.00  0.00     0.013 A 
HETATM   15  C   LIG     1      23.903  21.279  25.835  1.00  0.00     0.013 A 
HETATM   16  C   LIG     1      23.025  20.279  25.413  1.00  0.00    -0.025 A 
HETATM   17  C   LIG     1      22.781  20.075  24.024  1.00  0.00    -0.015 A 
HETATM   18  C   LIG     1      21.879  19.044  23.657  1.00  0.00     0.013 A 
HETATM   19  C   LIG     1      21.253  18.258  24.628  1.00  0.00     0.001 A 
HETATM   20  C   LIG     1      21.505  18.473  25.979  1.00  0.00     0.001 A 
HETATM   21  C   LIG     1      22.386  19.477  26.373  1.00  0.00     0.012 A 
HETATM   22  C   LIG     1      25.007  22.752  22.630  1.00  0.00     0.025 A 
ENDROOT
TORSDOF 0
ENDMDL
MODEL 9
REMARK VINA RESULT:      -6.7     14.847     16.243
REMARK  0 active torsions:
REMARK  status: ('A' for Active; 'I' for Inactive)
ROOT
HETATM    1  C   LIG     1      23.464  20.949  23.108  1.00  0.00    -0.014 A 
HETATM    2  C   LIG     1      22.793  20.126  24.067  1.00  0.00    -0.015 A 
HETATM    3  C   LIG     1      21.886  19.096  23.710  1.00  0.00     0.013 A 
HETATM    4  C   LIG     1      21.257  18.322  24.688  1.00  0.00     0.001 A 
HETATM    5  C   LIG     1      21.509  18.549  26.038  1.00  0.00     0.001 A 
HETATM    6  C   LIG     1      22.395  19.553  26.422  1.00  0.00     0.012 A 
HETATM    7  C   LIG     1      23.038  20.343  25.454  1.00  0.00    -0.025 A 
HETATM    8  C   LIG     1      23.921  21.343  25.867  1.00  0.00     0.013 A 
HETATM    9  C   LIG     1      24.571  22.139  24.934  1.00  0.00     0.013 A 
HETATM   10  C   LIG     1      24.355  21.956  23.562  1.00  0.00    -0.024 A 
HETATM   11  C   LIG     1      25.031  22.780  22.648  1.00  0.00     0.025 A 
HETATM   12  C   LIG     1      24.851  22.640  21.255  1.00  0.00    -0.014 A 
HETATM   13  C   LIG     1      23.961  21.633  20.801  1.00  0.00    -0.024 A 
HETATM   14  C   LIG     1      23.744  21.450  19.429  1.00  0.00     0.013 A 
HETATM   15  C   LIG     1      24.395  22.246  18.496  1.00  0.00     0.013 A 
HETATM   16  C   LIG     1      25.278  23.246  18.909  1.00  0.00    -0.025 A 
HETATM   17  C   LIG     1      25.523  23.462  20.295  1.00  0.00    -0.015 A 
HETATM   18  C   LIG     1      26.429  24.493  20.653  1.00  0.00     0.013 A 
HETATM   19  C   LIG     1      27.058  25.267  19.675  1.00  0.00     0.001 A 
HETATM   20  C   LIG     1      26.806  25.039  18.325  1.00  0.00     0.001 A 
HETATM   21  C   LIG     1      25.921  24.035  17.941  1.00  0.00     0.012 A 
HETATM   22  C   LIG     1      23.285  20.808  21.715  1.00  0.00     0.025 A 
ENDROOT
TORSDOF 0
ENDMDL
MODEL 10
REMARK VINA RESULT:      -6.6     15.007     16.170
REMARK  0 active torsions:
REMARK  status: ('A' for Active; 'I' for Inactive)
ROOT
HETATM    1  C   LIG     1      24.752  22.099  24.330  1.00  0.00    -0.014 A 
HETATM    2  C   LIG     1      25.231  22.735  25.519  1.00  0.00    -0.015 A 
HETATM    3  C   LIG     1      25.773  24.046  25.535  1.00  0.00     0.013 A 
HETATM    4  C   LIG     1      26.228  24.620  26.725  1.00  0.00     0.001 A 
HETATM    5  C   LIG     1      26.158  23.912  27.921  1.00  0.00     0.001 A 
HETATM    6  C   LIG     1      25.631  22.623  27.939  1.00  0.00     0.012 A 
HETATM    7  C   LIG     1      25.169  22.027  26.754  1.00  0.00    -0.025 A 
HETATM    8  C   LIG     1      24.645  20.733  26.800  1.00  0.00     0.013 A 
HETATM    9  C   LIG     1      24.180  20.119  25.645  1.00  0.00     0.013 A 
HETATM   10  C   LIG     1      24.227  20.784  24.413  1.00  0.00    -0.024 A 
HETATM   11  C   LIG     1      23.746  20.130  23.266  1.00  0.00     0.025 A 
HETATM   12  C   LIG     1      23.768  20.752  21.999  1.00  0.00    -0.014 A 
HETATM   13  C   LIG     1      24.293  22.067  21.916  1.00  0.00    -0.024 A 
HETATM   14  C   LIG     1      24.339  22.732  20.684  1.00  0.00     0.013 A 
HETATM   15  C   LIG     1      23.873  22.118  19.529  1.00  0.00     0.013 A 
HETATM   16  C   LIG     1      23.350  20.824  19.575  1.00  0.00    -0.025 A 
HETATM   17  C   LIG     1      23.288  20.116  20.810  1.00  0.00    -0.015 A 
HETATM   18  C   LIG     1      22.747  18.805  20.793  1.00  0.00     0.013 A 
HETATM   19  C   LIG     1      22.292  18.231  19.604  1.00  0.00     0.001 A 
HETATM   20  C   LIG     1      22.361  18.939  18.407  1.00  0.00     0.001 A 
HETATM   21  C   LIG     1      22.887  20.228  18.390  1.00  0.00     0.012 A 
HETATM   22  C   LIG     1      24.772  22.721  23.063  1.00  0.00     0.025 A 
ENDROOT
TORSDOF 0
ENDMDL
MODEL 11
REMARK VINA RESULT:      -6.5     15.238     17.036
REMARK  0 active torsions:
REMARK  status: ('A' for Active; 'I' for Inactive)
ROOT
HETATM    1  C   LIG     1      25.295  22.741  22.024  1.00  0.00    -0.014 A 
HETATM    2  C   LIG     1      24.821  22.345  20.733  1.00  0.00    -0.015 A 
HETATM    3  C   LIG     1      25.526  22.607  19.531  1.00  0.00     0.013 A 
HETATM    4  C   LIG     1      25.017  22.199  18.296  1.00  0.00     0.001 A 
HETATM    5  C   LIG     1      23.802  21.525  18.222  1.00  0.00     0.001 A 
HETATM    6  C   LIG     1      23.084  21.252  19.384  1.00  0.00     0.012 A 
HETATM    7  C   LIG     1      23.578  21.655  20.635  1.00  0.00    -0.025 A 
HETATM    8  C   LIG     1      22.838  21.368  21.785  1.00  0.00     0.013 A 
HETATM    9  C   LIG     1      23.301  21.753  23.036  1.00  0.00     0.013 A 
HETATM   10  C   LIG     1      24.517  22.434  23.170  1.00  0.00    -0.024 A 
HETATM   11  C   LIG     1      24.953  22.806  24.453  1.00  0.00     0.025 A 
HETATM   12  C   LIG     1      26.170  23.494  24.647  1.00  0.00    -0.014 A 
HETATM   13  C   LIG     1      26.948  23.801  23.501  1.00  0.00    -0.024 A 
HETATM   14  C   LIG     1      28.164  24.483  23.635  1.00  0.00     0.013 A 
HETATM   15  C   LIG     1      28.627  24.867  24.886  1.00  0.00     0.013 A 
HETATM   16  C   LIG     1      27.887  24.581  26.036  1.00  0.00    -0.025 A 
HETATM   17  C   LIG     1      26.645  23.889  25.938  1.00  0.00    -0.015 A 
HETATM   18  C   LIG     1      25.939  23.628  27.140  1.00  0.00     0.013 A 
HETATM   19  C   LIG     1      26.448  24.036  28.375  1.00  0.00     0.001 A 
HETATM   20  C   LIG     1      27.663  24.710  28.449  1.00  0.00     0.001 A 
HETATM   21  C   LIG     1      28.381  24.982  27.287  1.00  0.00     0.012 A 
HETATM   22  C   LIG     1      26.512  23.428  22.218  1.00  0.00     0.025 A 
ENDROOT
TORSDOF 0
ENDMDL
MODEL 12
REMARK VINA RESULT:      -6.5     15.288     15.456
REMARK  0 active torsions:
REMARK  status: ('A' for Active; 'I' for Inactive)
ROOT
HETATM    1  C   LIG     1      26.113  23.480  24.666  1.00  0.00    -0.014 A 
HETATM    2  C   LIG     1      26.580  23.885  25.956  1.00  0.00    -0.015 A 
HETATM    3  C   LIG     1      25.895  23.585  27.161  1.00  0.00     0.013 A 
HETATM    4  C   LIG     1      26.394  24.006  28.395  1.00  0.00     0.001 A 
HETATM    5  C   LIG     1      27.579  24.732  28.466  1.00  0.00     0.001 A 
HETATM    6  C   LIG     1      28.277  25.043  27.301  1.00  0.00     0.012 A 
HETATM    7  C   LIG     1      27.791  24.630  26.050  1.00  0.00    -0.025 A 
HETATM    8  C   LIG     1      28.511  24.955  24.898  1.00  0.00     0.013 A 
HETATM    9  C   LIG     1      28.056  24.560  23.647  1.00  0.00     0.013 A 
HETATM   10  C   LIG     1      26.869  23.828  23.516  1.00  0.00    -0.024 A 
HETATM   11  C   LIG     1      26.441  23.445  22.234  1.00  0.00     0.025 A 
HETATM   12  C   LIG     1      25.253  22.707  22.042  1.00  0.00    -0.014 A 
HETATM   13  C   LIG     1      24.498  22.359  23.192  1.00  0.00    -0.024 A 
HETATM   14  C   LIG     1      23.311  21.627  23.061  1.00  0.00     0.013 A 
HETATM   15  C   LIG     1      22.856  21.231  21.810  1.00  0.00     0.013 A 
HETATM   16  C   LIG     1      23.576  21.557  20.658  1.00  0.00    -0.025 A 
HETATM   17  C   LIG     1      24.787  22.301  20.752  1.00  0.00    -0.015 A 
HETATM   18  C   LIG     1      25.472  22.602  19.547  1.00  0.00     0.013 A 
HETATM   19  C   LIG     1      24.973  22.180  18.313  1.00  0.00     0.001 A 
HETATM   20  C   LIG     1      23.788  21.454  18.242  1.00  0.00     0.001 A 
HETATM   21  C   LIG     1      23.090  21.143  19.407  1.00  0.00     0.012 A 
HETATM   22  C   LIG     1      24.927  22.741  24.474  1.00  0.00     0.025 A 
ENDROOT
TORSDOF 0
ENDMDL
MODEL 13
REMARK VINA RESULT:      -6.5     14.930     16.095
REMARK  0 active torsions:
REMARK  status: ('A' for Active; 'I' for Inactive)
ROOT
HETATM    1  C   LIG     1      26.855  24.135  18.942  1.00  0.00    -0.014 A 
HETATM    2  C   LIG     1      27.646  25.220  18.447  1.00  0.00    -0.015 A 
HETATM    3  C   LIG     1      27.596  26.530  18.989  1.00  0.00     0.013 A 
HETATM    4  C   LIG     1      28.389  27.554  18.467  1.00  0.00     0.001 A 
HETATM    5  C   LIG     1      29.247  27.307  17.400  1.00  0.00     0.001 A 
HETATM    6  C   LIG     1      29.320  26.031  16.845  1.00  0.00     0.012 A 
HETATM    7  C   LIG     1      28.530  24.988  17.355  1.00  0.00    -0.025 A 
HETATM    8  C   LIG     1      28.623  23.719  16.779  1.00  0.00     0.013 A 
HETATM    9  C   LIG     1      27.855  22.668  17.262  1.00  0.00     0.013 A 
HETATM   10  C   LIG     1      26.974  22.859  18.334  1.00  0.00    -0.024 A 
HETATM   11  C   LIG     1      26.214  21.771  18.795  1.00  0.00     0.025 A 
HETATM   12  C   LIG     1      25.310  21.906  19.871  1.00  0.00    -0.014 A 
HETATM   13  C   LIG     1      25.192  23.182  20.479  1.00  0.00    -0.024 A 
HETATM   14  C   LIG     1      24.311  23.374  21.551  1.00  0.00     0.013 A 
HETATM   15  C   LIG     1      23.543  22.322  22.034  1.00  0.00     0.013 A 
HETATM   16  C   LIG     1      23.635  21.053  21.458  1.00  0.00    -0.025 A 
HETATM   17  C   LIG     1      24.520  20.821  20.366  1.00  0.00    -0.015 A 
HETATM   18  C   LIG     1      24.570  19.511  19.824  1.00  0.00     0.013 A 
HETATM   19  C   LIG     1      23.776  18.487  20.346  1.00  0.00     0.001 A 
HETATM   20  C   LIG     1      22.918  18.734  21.413  1.00  0.00     0.001 A 
HETATM   21  C   LIG     1      22.846  20.009  21.969  1.00  0.00     0.012 A 
HETATM   22  C   LIG     1      25.952  24.270  20.019  1.00  0.00     0.025 A 
ENDROOT
TORSDOF 0
ENDMDL
MODEL 14
REMARK VINA RESULT:      -6.3     15.105     16.897
REMARK  0 active torsions:
REMARK  status: ('A' for Active; 'I' for Inactive)
ROOT
HETATM    1  C   LIG     1      25.152  22.726  22.151  1.00  0.00    -0.014 A 
HETATM    2  C   LIG     1      24.621  22.471  20.848  1.00  0.00    -0.015 A 
HETATM    3  C   LIG     1      23.361  21.858  20.628  1.00  0.00     0.013 A 
HETATM    4  C   LIG     1      22.890  21.631  19.332  1.00  0.00     0.001 A 
HETATM    5  C   LIG     1      23.651  22.004  18.229  1.00  0.00     0.001 A 
HETATM    6  C   LIG     1      24.893  22.608  18.411  1.00  0.00     0.012 A 
HETATM    7  C   LIG     1      25.385  22.845  19.705  1.00  0.00    -0.025 A 
HETATM    8  C   LIG     1      26.634  23.453  19.859  1.00  0.00     0.013 A 
HETATM    9  C   LIG     1      27.147  23.699  21.125  1.00  0.00     0.013 A 
HETATM   10  C   LIG     1      26.424  23.345  22.271  1.00  0.00    -0.024 A 
HETATM   11  C   LIG     1      26.975  23.611  23.536  1.00  0.00     0.025 A 
HETATM   12  C   LIG     1      26.292  23.276  24.724  1.00  0.00    -0.014 A 
HETATM   13  C   LIG     1      25.020  22.657  24.604  1.00  0.00    -0.024 A 
HETATM   14  C   LIG     1      24.297  22.303  25.750  1.00  0.00     0.013 A 
HETATM   15  C   LIG     1      24.810  22.550  27.017  1.00  0.00     0.013 A 
HETATM   16  C   LIG     1      26.059  23.157  27.171  1.00  0.00    -0.025 A 
HETATM   17  C   LIG     1      26.823  23.532  26.028  1.00  0.00    -0.015 A 
HETATM   18  C   LIG     1      28.083  24.144  26.248  1.00  0.00     0.013 A 
HETATM   19  C   LIG     1      28.554  24.371  27.543  1.00  0.00     0.001 A 
HETATM   20  C   LIG     1      27.793  23.998  28.647  1.00  0.00     0.001 A 
HETATM   21  C   LIG     1      26.551  23.394  28.464  1.00  0.00     0.012 A 
HETATM   22  C   LIG     1      24.469  22.392  23.340  1.00  0.00     0.025 A 
ENDROOT
TORSDOF 0
ENDMDL
MODEL 15
REMARK VINA RESULT:      -6.3     15.115     15.763
REMARK  0 active torsions:
REMARK  status: ('A' for Active; 'I' for Inactive)
ROOT
HETATM    1  C   LIG     1      26.323  23.383  24.678  1.00  0.00    -0.014 A 
HETATM    2  C   LIG     1      26.867  23.675  25.968  1.00  0.00    -0.015 A 
HETATM    3  C   LIG     1      28.113  24.326  26.158  1.00  0.00     0.013 A 
HETATM    4  C   LIG     1      28.599  24.586  27.442  1.00  0.00     0.001 A 
HETATM    5  C   LIG     1      27.867  24.208  28.563  1.00  0.00     0.001 A 
HETATM    6  C   LIG     1      26.640  23.567  28.411  1.00  0.00     0.012 A 
HETATM    7  C   LIG     1      26.134  23.296  27.129  1.00  0.00    -0.025 A 
HETATM    8  C   LIG     1      24.900  22.651  27.006  1.00  0.00     0.013 A 
HETATM    9  C   LIG     1      24.374  22.370  25.752  1.00  0.00     0.013 A 
HETATM   10  C   LIG     1      25.068  22.727  24.588  1.00  0.00    -0.024 A 
HETATM   11  C   LIG     1      24.503  22.427  23.338  1.00  0.00     0.025 A 
HETATM   12  C   LIG     1      25.157  22.763  22.133  1.00  0.00    -0.014 A 
HETATM   13  C   LIG     1      26.412  23.419  22.222  1.00  0.00    -0.024 A 
HETATM   14  C   LIG     1      27.106  23.776  21.059  1.00  0.00     0.013 A 
HETATM   15  C   LIG     1      26.579  23.496  19.805  1.00  0.00     0.013 A 
HETATM   16  C   LIG     1      25.347  22.851  19.681  1.00  0.00    -0.025 A 
HETATM   17  C   LIG     1      24.612  22.473  20.842  1.00  0.00    -0.015 A 
HETATM   18  C   LIG     1      23.367  21.821  20.652  1.00  0.00     0.013 A 
HETATM   19  C   LIG     1      22.881  21.561  19.369  1.00  0.00     0.001 A 
HETATM   20  C   LIG     1      23.613  21.939  18.247  1.00  0.00     0.001 A 
HETATM   21  C   LIG     1      24.840  22.581  18.400  1.00  0.00     0.012 A 
HETATM   22  C   LIG     1      26.976  23.720  23.473  1.00  0.00     0.025 A 
ENDROOT
TORSDOF 0
ENDMDL
MODEL 16
REMARK VINA RESULT:      -6.0     18.146     19.738
REMARK  0 active torsions:
REMARK  status: ('A' for Active; 'I' for Inactive)
ROOT
HETATM    1  C   LIG     1      22.005  21.564  34.617  1.00  0.00    -0.014 A 
HETATM    2  C   LIG     1      22.584  22.139  35.792  1.00  0.00    -0.015 A 
HETATM    3  C   LIG     1      23.852  21.757  36.300  1.00  0.00     0.013 A 
HETATM    4  C   LIG     1      24.371  22.350  37.454  1.00  0.00     0.001 A 
HETATM    5  C   LIG     1      23.650  23.330  38.129  1.00  0.00     0.001 A 
HETATM    6  C   LIG     1      22.401  23.727  37.656  1.00  0.00     0.012 A 
HETATM    7  C   LIG     1      21.861  23.143  36.498  1.00  0.00    -0.025 A 
HETATM    8  C   LIG     1      20.607  23.560  36.046  1.00  0.00     0.013 A 
HETATM    9  C   LIG     1      20.048  23.001  34.904  1.00  0.00     0.013 A 
HETATM   10  C   LIG     1      20.729  22.010  34.185  1.00  0.00    -0.024 A 
HETATM   11  C   LIG     1      20.131  21.469  33.035  1.00  0.00     0.025 A 
HETATM   12  C   LIG     1      20.771  20.469  32.272  1.00  0.00    -0.014 A 
HETATM   13  C   LIG     1      22.047  20.023  32.703  1.00  0.00    -0.024 A 
HETATM   14  C   LIG     1      22.728  19.032  31.984  1.00  0.00     0.013 A 
HETATM   15  C   LIG     1      22.169  18.474  30.843  1.00  0.00     0.013 A 
HETATM   16  C   LIG     1      20.915  18.890  30.390  1.00  0.00    -0.025 A 
HETATM   17  C   LIG     1      20.193  19.895  31.096  1.00  0.00    -0.015 A 
HETATM   18  C   LIG     1      18.924  20.275  30.588  1.00  0.00     0.013 A 
HETATM   19  C   LIG     1      18.405  19.682  29.435  1.00  0.00     0.001 A 
HETATM   20  C   LIG     1      19.126  18.703  28.760  1.00  0.00     0.001 A 
HETATM   21  C   LIG     1      20.375  18.306  29.233  1.00  0.00     0.012 A 
HETATM   22  C   LIG     1      22.645  20.565  33.853  1.00  0.00     0.025 A 
ENDROOT
TORSDOF 0
ENDMDL
MODEL 17
REMARK VINA RESULT:      -6.0     15.148     16.020
REMARK  0 active torsions:
REMARK  status: ('A' for Active; 'I' for Inactive)
ROOT
HETATM    1  C   LIG     1      27.137  24.288  20.675  1.00  0.00    -0.014 A 
HETATM    2  C   LIG     1      28.022  25.112  19.910  1.00  0.00    -0.015 A 
HETATM    3  C   LIG     1      29.153  25.763  20.466  1.00  0.00     0.013 A 
HETATM    4  C   LIG     1      29.985  26.558  19.674  1.00  0.00     0.001 A 
HETATM    5  C   LIG     1      29.718  26.727  18.319  1.00  0.00     0.001 A 
HETATM    6  C   LIG     1      28.615  26.101  17.743  1.00  0.00     0.012 A 
HETATM    7  C   LIG     1      27.766  25.298  18.521  1.00  0.00    -0.025 A 
HETATM    8  C   LIG     1      26.667  24.683  17.918  1.00  0.00     0.013 A 
HETATM    9  C   LIG     1      25.810  23.883  18.662  1.00  0.00     0.013 A 
HETATM   10  C   LIG     1      26.030  23.678  20.030  1.00  0.00    -0.024 A 
HETATM   11  C   LIG     1      25.141  22.861  20.749  1.00  0.00     0.025 A 
HETATM   12  C   LIG     1      25.314  22.620  22.129  1.00  0.00    -0.014 A 
HETATM   13  C   LIG     1      26.421  23.230  22.774  1.00  0.00    -0.024 A 
HETATM   14  C   LIG     1      26.641  23.024  24.142  1.00  0.00     0.013 A 
HETATM   15  C   LIG     1      25.784  22.224  24.886  1.00  0.00     0.013 A 
HETATM   16  C   LIG     1      24.685  21.609  24.282  1.00  0.00    -0.025 A 
HETATM   17  C   LIG     1      24.429  21.795  22.893  1.00  0.00    -0.015 A 
HETATM   18  C   LIG     1      23.298  21.145  22.337  1.00  0.00     0.013 A 
HETATM   19  C   LIG     1      22.466  20.350  23.129  1.00  0.00     0.001 A 
HETATM   20  C   LIG     1      22.733  20.180  24.484  1.00  0.00     0.001 A 
HETATM   21  C   LIG     1      23.836  20.805  25.061  1.00  0.00     0.012 A 
HETATM   22  C   LIG     1      27.310  24.045  22.054  1.00  0.00     0.025 A 
ENDROOT
TORSDOF 0
ENDMDL
MODEL 18
REMARK VINA RESULT:      -6.0     15.716     17.654
REMARK  0 active torsions:
REMARK  status: ('A' for Active; 'I' for Inactive)
ROOT
HETATM    1  C   LIG     1      25.170  22.548  24.955  1.00  0.00    -0.014 A 
HETATM    2  C   LIG     1      24.445  21.804  23.971  1.00  0.00    -0.015 A 
HETATM    3  C   LIG     1      24.703  21.897  22.580  1.00  0.00     0.013 A 
HETATM    4  C   LIG     1      23.963  21.148  21.661  1.00  0.00     0.001 A 
HETATM    5  C   LIG     1      22.954  20.294  22.096  1.00  0.00     0.001 A 
HETATM    6  C   LIG     1      22.677  20.180  23.457  1.00  0.00     0.012 A 
HETATM    7  C   LIG     1      23.408  20.924  24.396  1.00  0.00    -0.025 A 
HETATM    8  C   LIG     1      23.108  20.790  25.754  1.00  0.00     0.013 A 
HETATM    9  C   LIG     1      23.814  21.514  26.707  1.00  0.00     0.013 A 
HETATM   10  C   LIG     1      24.839  22.389  26.325  1.00  0.00    -0.024 A 
HETATM   11  C   LIG     1      25.532  23.102  27.318  1.00  0.00     0.025 A 
HETATM   12  C   LIG     1      26.573  23.997  26.992  1.00  0.00    -0.014 A 
HETATM   13  C   LIG     1      26.904  24.156  25.621  1.00  0.00    -0.024 A 
HETATM   14  C   LIG     1      27.929  25.032  25.240  1.00  0.00     0.013 A 
HETATM   15  C   LIG     1      28.636  25.754  26.193  1.00  0.00     0.013 A 
HETATM   16  C   LIG     1      28.336  25.621  27.550  1.00  0.00    -0.025 A 
HETATM   17  C   LIG     1      27.299  24.740  27.975  1.00  0.00    -0.015 A 
HETATM   18  C   LIG     1      27.041  24.648  29.367  1.00  0.00     0.013 A 
HETATM   19  C   LIG     1      27.780  25.397  30.286  1.00  0.00     0.001 A 
HETATM   20  C   LIG     1      28.789  26.251  29.850  1.00  0.00     0.001 A 
HETATM   21  C   LIG     1      29.067  26.365  28.490  1.00  0.00     0.012 A 
HETATM   22  C   LIG     1      26.212  23.442  24.629  1.00  0.00     0.025 A 
ENDROOT
TORSDOF 0
ENDMDL
MODEL 19
REMARK VINA RESULT:      -5.8     15.503     17.139
REMARK  0 active torsions:
REMARK  status: ('A' for Active; 'I' for Inactive)
ROOT
HETATM    1  C   LIG     1      25.659  23.025  23.710  1.00  0.00    -0.014 A 
HETATM    2  C   LIG     1      24.848  22.299  22.781  1.00  0.00    -0.015 A 
HETATM    3  C   LIG     1      23.660  21.619  23.152  1.00  0.00     0.013 A 
HETATM    4  C   LIG     1      22.905  20.924  22.205  1.00  0.00     0.001 A 
HETATM    5  C   LIG     1      23.307  20.884  20.874  1.00  0.00     0.001 A 
HETATM    6  C   LIG     1      24.469  21.541  20.477  1.00  0.00     0.012 A 
HETATM    7  C   LIG     1      25.243  22.245  21.414  1.00  0.00    -0.025 A 
HETATM    8  C   LIG     1      26.404  22.895  20.988  1.00  0.00     0.013 A 
HETATM    9  C   LIG     1      27.189  23.599  21.892  1.00  0.00     0.013 A 
HETATM   10  C   LIG     1      26.833  23.673  23.244  1.00  0.00    -0.024 A 
HETATM   11  C   LIG     1      27.652  24.395  24.128  1.00  0.00     0.025 A 
HETATM   12  C   LIG     1      27.341  24.503  25.500  1.00  0.00    -0.014 A 
HETATM   13  C   LIG     1      26.168  23.855  25.966  1.00  0.00    -0.024 A 
HETATM   14  C   LIG     1      25.811  23.928  27.319  1.00  0.00     0.013 A 
HETATM   15  C   LIG     1      26.596  24.633  28.222  1.00  0.00     0.013 A 
HETATM   16  C   LIG     1      27.757  25.282  27.797  1.00  0.00    -0.025 A 
HETATM   17  C   LIG     1      28.152  25.230  26.428  1.00  0.00    -0.015 A 
HETATM   18  C   LIG     1      29.341  25.908  26.058  1.00  0.00     0.013 A 
HETATM   19  C   LIG     1      30.096  26.604  27.005  1.00  0.00     0.001 A 
HETATM   20  C   LIG     1      29.693  26.644  28.337  1.00  0.00     0.001 A 
HETATM   21  C   LIG     1      28.531  25.987  28.733  1.00  0.00     0.012 A 
HETATM   22  C   LIG     1      25.349  23.133  25.082  1.00  0.00     0.025 A 
ENDROOT
TORSDOF 0
ENDMDL
MODEL 20
REMARK VINA RESULT:      -5.8     15.369     15.990
REMARK  0 active torsions:
REMARK  status: ('A' for Active; 'I' for Inactive)
ROOT
HETATM    1  C   LIG     1      25.403  22.693  23.617  1.00  0.00    -0.014 A 
HETATM    2  C   LIG     1      24.800  22.183  24.809  1.00  0.00    -0.015 A 
HETATM    3  C   LIG     1      23.661  21.337  24.805  1.00  0.00     0.013 A 
HETATM    4  C   LIG     1      23.110  20.867  25.999  1.00  0.00     0.001 A 
HETATM    5  C   LIG     1      23.672  21.222  27.222  1.00  0.00     0.001 A 
HETATM    6  C   LIG     1      24.791  22.050  27.262  1.00  0.00     0.012 A 
HETATM    7  C   LIG     1      25.359  22.534  26.072  1.00  0.00    -0.025 A 
HETATM    8  C   LIG     1      26.481  23.363  26.140  1.00  0.00     0.013 A 
HETATM    9  C   LIG     1      27.065  23.857  24.981  1.00  0.00     0.013 A 
HETATM   10  C   LIG     1      26.541  23.533  23.723  1.00  0.00    -0.024 A 
HETATM   11  C   LIG     1      27.160  24.051  22.572  1.00  0.00     0.025 A 
HETATM   12  C   LIG     1      26.676  23.758  21.279  1.00  0.00    -0.014 A 
HETATM   13  C   LIG     1      25.537  22.918  21.174  1.00  0.00    -0.024 A 
HETATM   14  C   LIG     1      25.014  22.594  19.915  1.00  0.00     0.013 A 
HETATM   15  C   LIG     1      25.598  23.087  18.756  1.00  0.00     0.013 A 
HETATM   16  C   LIG     1      26.720  23.917  18.824  1.00  0.00    -0.025 A 
HETATM   17  C   LIG     1      27.280  24.268  20.087  1.00  0.00    -0.015 A 
HETATM   18  C   LIG     1      28.418  25.114  20.092  1.00  0.00     0.013 A 
HETATM   19  C   LIG     1      28.969  25.584  18.897  1.00  0.00     0.001 A 
HETATM   20  C   LIG     1      28.407  25.229  17.674  1.00  0.00     0.001 A 
HETATM   21  C   LIG     1      27.289  24.400  17.635  1.00  0.00     0.012 A 
HETATM   22  C   LIG     1      24.919  22.400  22.324  1.00  0.00     0.025 A 
ENDROOT
TORSDOF 0
ENDMDL
