REMARK  5 active torsions:
REMARK  status: ('A' for Active; 'I' for Inactive)
REMARK    1  A    between atoms: C_7  and  C_8 
REMARK       I    between atoms: C_8  and  N_9 
REMARK    2  A    between atoms: C_12  and  C_13 
REMARK    3  A    between atoms: C_13  and  C_14 
REMARK    4  A    between atoms: C_14  and  O_15 
REMARK    5  A    between atoms: C_19  and  O_20 
ROOT
HETATM    1  C   LIG     1       2.013  -0.946   0.762  1.00  0.00     0.263 C 
HETATM    2  N   LIG     1       0.604  -0.916   0.482  1.00  0.00    -0.281 N 
HETATM    3  C   LIG     1      -0.204  -1.977   0.221  1.00  0.00     0.024 A 
HETATM    4  C   LIG     1       0.264  -3.397   0.078  1.00  0.00     0.069 C 
HETATM    5  C   LIG     1      -1.510  -1.541  -0.015  1.00  0.00    -0.013 A 
HETATM    6  C   LIG     1      -1.484  -0.170   0.164  1.00  0.00     0.003 A 
HETATM    7  C   LIG     1      -2.504   0.779   0.099  1.00  0.00     0.051 A 
HETATM    8  C   LIG     1      -2.182   2.127   0.346  1.00  0.00     0.069 A 
HETATM    9  C   LIG     1      -0.842   2.483   0.657  1.00  0.00     0.039 A 
HETATM   10  C   LIG     1       0.164   1.503   0.720  1.00  0.00     0.034 A 
HETATM   11  C   LIG     1      -0.190   0.177   0.459  1.00  0.00     0.053 A 
HETATM   12  O   LIG     1       2.430  -1.620   1.742  1.00  0.00    -0.267 OA
ENDROOT
BRANCH   1  13
HETATM   13  C   LIG     1       2.975  -0.192  -0.078  1.00  0.00     0.033 A 
HETATM   14  C   LIG     1       4.281   0.054   0.384  1.00  0.00     0.018 A 
HETATM   15  C   LIG     1       5.188   0.768  -0.406  1.00  0.00     0.025 A 
HETATM   16  C   LIG     1       4.805   1.238  -1.665  1.00  0.00     0.034 A 
HETATM   17 CL   LIG     1       5.945   2.134  -2.652  1.00  0.00    -0.084 Cl
HETATM   18  C   LIG     1       3.514   0.989  -2.138  1.00  0.00     0.025 A 
HETATM   19  C   LIG     1       2.603   0.276  -1.353  1.00  0.00     0.018 A 
ENDBRANCH   1  13
BRANCH   5  20
HETATM   20  C   LIG     1      -2.715  -2.390  -0.321  1.00  0.00     0.151 C 
BRANCH  20  21
HETATM   21  C   LIG     1      -3.428  -2.846   0.922  1.00  0.00     0.143 C 
HETATM   22  O   LIG     1      -3.016  -2.516   2.067  1.00  0.00    -0.650 OA
BRANCH  21  23
HETATM   23  O   LIG     1      -4.561  -3.645   0.814  1.00  0.00    -0.776 OA
HETATM   24  H   LIG     1      -4.917  -3.928  -0.091  1.00  0.00     0.167 HD
ENDBRANCH  21  23
ENDBRANCH  20  21
ENDBRANCH   5  20
BRANCH   8  25
HETATM   25  O   LIG     1      -3.212   3.077   0.276  1.00  0.00    -0.356 OA
HETATM   26  C   LIG     1      -3.035   4.471   0.503  1.00  0.00     0.210 C 
ENDBRANCH   8  25
TORSDOF 5
