MODEL 1
REMARK VINA RESULT:      -5.7      0.000      0.000
REMARK  5 active torsions:
REMARK  status: ('A' for Active; 'I' for Inactive)
REMARK    1  A    between atoms: C_7  and  C_8 
REMARK       I    between atoms: C_8  and  N_9 
REMARK    2  A    between atoms: C_12  and  C_13 
REMARK    3  A    between atoms: C_13  and  C_14 
REMARK    4  A    between atoms: C_14  and  O_15 
REMARK    5  A    between atoms: C_19  and  O_20 
ROOT
HETATM    1  C   LIG     1      14.069  33.023  16.861  1.00  0.00     0.263 C 
HETATM    2  N   LIG     1      14.759  32.390  15.771  1.00  0.00    -0.281 N 
HETATM    3  C   LIG     1      14.445  31.209  15.176  1.00  0.00     0.024 A 
HETATM    4  C   LIG     1      13.351  30.285  15.628  1.00  0.00     0.069 C 
HETATM    5  C   LIG     1      15.361  30.923  14.161  1.00  0.00    -0.013 A 
HETATM    6  C   LIG     1      16.223  32.003  14.121  1.00  0.00     0.003 A 
HETATM    7  C   LIG     1      17.302  32.280  13.281  1.00  0.00     0.051 A 
HETATM    8  C   LIG     1      18.002  33.488  13.465  1.00  0.00     0.069 A 
HETATM    9  C   LIG     1      17.593  34.387  14.487  1.00  0.00     0.039 A 
HETATM   10  C   LIG     1      16.499  34.083  15.315  1.00  0.00     0.034 A 
HETATM   11  C   LIG     1      15.835  32.871  15.110  1.00  0.00     0.053 A 
HETATM   12  O   LIG     1      12.848  33.309  16.731  1.00  0.00    -0.267 OA
ENDROOT
BRANCH   1  13
HETATM   13  C   LIG     1      14.773  33.349  18.124  1.00  0.00     0.033 A 
HETATM   14  C   LIG     1      15.127  34.679  18.419  1.00  0.00     0.018 A 
HETATM   15  C   LIG     1      15.794  34.987  19.609  1.00  0.00     0.025 A 
HETATM   16  C   LIG     1      16.110  33.975  20.519  1.00  0.00     0.034 A 
HETATM   17 CL   LIG     1      16.949  34.365  22.009  1.00  0.00    -0.084 Cl
HETATM   18  C   LIG     1      15.754  32.652  20.242  1.00  0.00     0.025 A 
HETATM   19  C   LIG     1      15.086  32.338  19.054  1.00  0.00     0.018 A 
ENDBRANCH   1  13
BRANCH   5  20
HETATM   20  C   LIG     1      15.367  29.727  13.246  1.00  0.00     0.151 C 
BRANCH  20  21
HETATM   21  C   LIG     1      15.650  28.444  13.977  1.00  0.00     0.143 C 
HETATM   22  O   LIG     1      14.935  27.421  13.799  1.00  0.00    -0.650 OA
BRANCH  21  23
HETATM   23  O   LIG     1      16.718  28.378  14.866  1.00  0.00    -0.776 OA
HETATM   24  H   LIG     1      16.667  27.809  15.702  1.00  0.00     0.167 HD
ENDBRANCH  21  23
ENDBRANCH  20  21
ENDBRANCH   5  20
BRANCH   8  25
HETATM   25  O   LIG     1      19.088  33.759  12.619  1.00  0.00    -0.356 OA
HETATM   26  C   LIG     1      19.366  33.049  11.417  1.00  0.00     0.210 C 
ENDBRANCH   8  25
TORSDOF 5
ENDMDL
MODEL 2
REMARK VINA RESULT:      -5.2     14.051     15.845
REMARK  5 active torsions:
REMARK  status: ('A' for Active; 'I' for Inactive)
REMARK    1  A    between atoms: C_7  and  C_8 
REMARK       I    between atoms: C_8  and  N_9 
REMARK    2  A    between atoms: C_12  and  C_13 
REMARK    3  A    between atoms: C_13  and  C_14 
REMARK    4  A    between atoms: C_14  and  O_15 
REMARK    5  A    between atoms: C_19  and  O_20 
ROOT
HETATM    1  C   LIG     1      26.923  22.544  19.880  1.00  0.00     0.263 C 
HETATM    2  N   LIG     1      25.939  22.421  20.920  1.00  0.00    -0.281 N 
HETATM    3  C   LIG     1      24.713  21.842  20.827  1.00  0.00     0.024 A 
HETATM    4  C   LIG     1      24.114  21.303  19.559  1.00  0.00     0.069 C 
HETATM    5  C   LIG     1      24.044  21.931  22.049  1.00  0.00    -0.013 A 
HETATM    6  C   LIG     1      24.931  22.542  22.917  1.00  0.00     0.003 A 
HETATM    7  C   LIG     1      24.818  22.848  24.273  1.00  0.00     0.051 A 
HETATM    8  C   LIG     1      25.907  23.469  24.913  1.00  0.00     0.069 A 
HETATM    9  C   LIG     1      27.083  23.761  24.171  1.00  0.00     0.039 A 
HETATM   10  C   LIG     1      27.170  23.436  22.806  1.00  0.00     0.034 A 
HETATM   11  C   LIG     1      26.066  22.830  22.202  1.00  0.00     0.053 A 
HETATM   12  O   LIG     1      27.357  21.503  19.319  1.00  0.00    -0.267 OA
ENDROOT
BRANCH   1  13
HETATM   13  C   LIG     1      27.435  23.874  19.467  1.00  0.00     0.033 A 
HETATM   14  C   LIG     1      26.556  24.965  19.338  1.00  0.00     0.018 A 
HETATM   15  C   LIG     1      27.037  26.218  18.945  1.00  0.00     0.025 A 
HETATM   16  C   LIG     1      28.398  26.397  18.684  1.00  0.00     0.034 A 
HETATM   17 CL   LIG     1      28.997  27.970  18.190  1.00  0.00    -0.084 Cl
HETATM   18  C   LIG     1      29.281  25.323  18.820  1.00  0.00     0.025 A 
HETATM   19  C   LIG     1      28.806  24.068  19.212  1.00  0.00     0.018 A 
ENDBRANCH   1  13
BRANCH   5  20
HETATM   20  C   LIG     1      22.674  21.401  22.382  1.00  0.00     0.151 C 
BRANCH  20  21
HETATM   21  C   LIG     1      22.718  20.008  22.946  1.00  0.00     0.143 C 
HETATM   22  O   LIG     1      22.772  19.001  22.189  1.00  0.00    -0.650 OA
BRANCH  21  23
HETATM   23  O   LIG     1      22.698  19.820  24.323  1.00  0.00    -0.776 OA
HETATM   24  H   LIG     1      22.062  20.343  24.913  1.00  0.00     0.167 HD
ENDBRANCH  21  23
ENDBRANCH  20  21
ENDBRANCH   5  20
BRANCH   8  25
HETATM   25  O   LIG     1      25.786  23.777  26.276  1.00  0.00    -0.356 OA
HETATM   26  C   LIG     1      26.563  24.761  26.949  1.00  0.00     0.210 C 
ENDBRANCH   8  25
TORSDOF 5
ENDMDL
MODEL 3
REMARK VINA RESULT:      -5.1     13.585     14.812
REMARK  5 active torsions:
REMARK  status: ('A' for Active; 'I' for Inactive)
REMARK    1  A    between atoms: C_7  and  C_8 
REMARK       I    between atoms: C_8  and  N_9 
REMARK    2  A    between atoms: C_12  and  C_13 
REMARK    3  A    between atoms: C_13  and  C_14 
REMARK    4  A    between atoms: C_14  and  O_15 
REMARK    5  A    between atoms: C_19  and  O_20 
ROOT
HETATM    1  C   LIG     1      25.399  22.616  18.951  1.00  0.00     0.263 C 
HETATM    2  N   LIG     1      26.613  23.089  18.345  1.00  0.00    -0.281 N 
HETATM    3  C   LIG     1      27.452  22.391  17.535  1.00  0.00     0.024 A 
HETATM    4  C   LIG     1      27.308  20.934  17.202  1.00  0.00     0.069 C 
HETATM    5  C   LIG     1      28.533  23.192  17.158  1.00  0.00    -0.013 A 
HETATM    6  C   LIG     1      28.297  24.430  17.726  1.00  0.00     0.003 A 
HETATM    7  C   LIG     1      29.018  25.622  17.650  1.00  0.00     0.051 A 
HETATM    8  C   LIG     1      28.521  26.750  18.332  1.00  0.00     0.069 A 
HETATM    9  C   LIG     1      27.310  26.648  19.067  1.00  0.00     0.039 A 
HETATM   10  C   LIG     1      26.603  25.434  19.121  1.00  0.00     0.034 A 
HETATM   11  C   LIG     1      27.130  24.334  18.441  1.00  0.00     0.053 A 
HETATM   12  O   LIG     1      24.473  22.182  18.214  1.00  0.00    -0.267 OA
ENDROOT
BRANCH   1  13
HETATM   13  C   LIG     1      25.221  22.640  20.423  1.00  0.00     0.033 A 
HETATM   14  C   LIG     1      26.334  22.523  21.276  1.00  0.00     0.018 A 
HETATM   15  C   LIG     1      26.166  22.542  22.664  1.00  0.00     0.025 A 
HETATM   16  C   LIG     1      24.890  22.684  23.216  1.00  0.00     0.034 A 
HETATM   17 CL   LIG     1      24.684  22.706  24.958  1.00  0.00    -0.084 Cl
HETATM   18  C   LIG     1      23.780  22.813  22.378  1.00  0.00     0.025 A 
HETATM   19  C   LIG     1      23.941  22.794  20.989  1.00  0.00     0.018 A 
ENDBRANCH   1  13
BRANCH   5  20
HETATM   20  C   LIG     1      29.677  22.815  16.255  1.00  0.00     0.151 C 
BRANCH  20  21
HETATM   21  C   LIG     1      29.339  22.979  14.799  1.00  0.00     0.143 C 
HETATM   22  O   LIG     1      28.886  22.016  14.123  1.00  0.00    -0.650 OA
BRANCH  21  23
HETATM   23  O   LIG     1      29.527  24.211  14.181  1.00  0.00    -0.776 OA
HETATM   24  H   LIG     1      29.478  25.073  14.709  1.00  0.00     0.167 HD
ENDBRANCH  21  23
ENDBRANCH  20  21
ENDBRANCH   5  20
BRANCH   8  25
HETATM   25  O   LIG     1      29.252  27.945  18.255  1.00  0.00    -0.356 OA
HETATM   26  C   LIG     1      30.639  28.058  18.555  1.00  0.00     0.210 C 
ENDBRANCH   8  25
TORSDOF 5
ENDMDL
MODEL 4
REMARK VINA RESULT:      -5.0     13.900     16.176
REMARK  5 active torsions:
REMARK  status: ('A' for Active; 'I' for Inactive)
REMARK    1  A    between atoms: C_7  and  C_8 
REMARK       I    between atoms: C_8  and  N_9 
REMARK    2  A    between atoms: C_12  and  C_13 
REMARK    3  A    between atoms: C_13  and  C_14 
REMARK    4  A    between atoms: C_14  and  O_15 
REMARK    5  A    between atoms: C_19  and  O_20 
ROOT
HETATM    1  C   LIG     1      25.444  23.255  18.677  1.00  0.00     0.263 C 
HETATM    2  N   LIG     1      26.158  23.352  19.920  1.00  0.00    -0.281 N 
HETATM    3  C   LIG     1      27.455  23.717  20.095  1.00  0.00     0.024 A 
HETATM    4  C   LIG     1      28.425  23.998  18.983  1.00  0.00     0.069 C 
HETATM    5  C   LIG     1      27.788  23.676  21.451  1.00  0.00    -0.013 A 
HETATM    6  C   LIG     1      26.625  23.320  22.110  1.00  0.00     0.003 A 
HETATM    7  C   LIG     1      26.356  23.169  23.470  1.00  0.00     0.051 A 
HETATM    8  C   LIG     1      25.053  22.807  23.859  1.00  0.00     0.069 A 
HETATM    9  C   LIG     1      24.053  22.613  22.869  1.00  0.00     0.039 A 
HETATM   10  C   LIG     1      24.353  22.778  21.505  1.00  0.00     0.034 A 
HETATM   11  C   LIG     1      25.660  23.127  21.155  1.00  0.00     0.053 A 
HETATM   12  O   LIG     1      25.350  24.275  17.942  1.00  0.00    -0.267 OA
ENDROOT
BRANCH   1  13
HETATM   13  C   LIG     1      24.813  21.981  18.255  1.00  0.00     0.033 A 
HETATM   14  C   LIG     1      23.413  21.841  18.274  1.00  0.00     0.018 A 
HETATM   15  C   LIG     1      22.818  20.638  17.879  1.00  0.00     0.025 A 
HETATM   16  C   LIG     1      23.610  19.567  17.457  1.00  0.00     0.034 A 
HETATM   17 CL   LIG     1      22.859  18.060  16.964  1.00  0.00    -0.084 Cl
HETATM   18  C   LIG     1      25.000  19.700  17.423  1.00  0.00     0.025 A 
HETATM   19  C   LIG     1      25.601  20.900  17.816  1.00  0.00     0.018 A 
ENDBRANCH   1  13
BRANCH   5  20
HETATM   20  C   LIG     1      29.112  24.024  22.078  1.00  0.00     0.151 C 
BRANCH  20  21
HETATM   21  C   LIG     1      29.276  25.503  22.292  1.00  0.00     0.143 C 
HETATM   22  O   LIG     1      30.057  26.182  21.572  1.00  0.00    -0.650 OA
BRANCH  21  23
HETATM   23  O   LIG     1      28.558  26.138  23.299  1.00  0.00    -0.776 OA
HETATM   24  H   LIG     1      28.801  26.012  24.274  1.00  0.00     0.167 HD
ENDBRANCH  21  23
ENDBRANCH  20  21
ENDBRANCH   5  20
BRANCH   8  25
HETATM   25  O   LIG     1      24.789  22.653  25.229  1.00  0.00    -0.356 OA
HETATM   26  C   LIG     1      25.509  23.315  26.264  1.00  0.00     0.210 C 
ENDBRANCH   8  25
TORSDOF 5
ENDMDL
MODEL 5
REMARK VINA RESULT:      -5.0     15.040     17.010
REMARK  5 active torsions:
REMARK  status: ('A' for Active; 'I' for Inactive)
REMARK    1  A    between atoms: C_7  and  C_8 
REMARK       I    between atoms: C_8  and  N_9 
REMARK    2  A    between atoms: C_12  and  C_13 
REMARK    3  A    between atoms: C_13  and  C_14 
REMARK    4  A    between atoms: C_14  and  O_15 
REMARK    5  A    between atoms: C_19  and  O_20 
ROOT
HETATM    1  C   LIG     1      25.486  21.465  23.862  1.00  0.00     0.263 C 
HETATM    2  N   LIG     1      25.957  22.635  24.550  1.00  0.00    -0.281 N 
HETATM    3  C   LIG     1      25.603  23.055  25.793  1.00  0.00     0.024 A 
HETATM    4  C   LIG     1      24.555  22.407  26.651  1.00  0.00     0.069 C 
HETATM    5  C   LIG     1      26.265  24.245  26.106  1.00  0.00    -0.013 A 
HETATM    6  C   LIG     1      27.083  24.513  25.024  1.00  0.00     0.003 A 
HETATM    7  C   LIG     1      27.998  25.542  24.803  1.00  0.00     0.051 A 
HETATM    8  C   LIG     1      28.716  25.553  23.592  1.00  0.00     0.069 A 
HETATM    9  C   LIG     1      28.497  24.524  22.638  1.00  0.00     0.039 A 
HETATM   10  C   LIG     1      27.572  23.496  22.891  1.00  0.00     0.034 A 
HETATM   11  C   LIG     1      26.870  23.523  24.098  1.00  0.00     0.053 A 
HETATM   12  O   LIG     1      25.654  20.333  24.391  1.00  0.00    -0.267 OA
ENDROOT
BRANCH   1  13
HETATM   13  C   LIG     1      24.817  21.571  22.543  1.00  0.00     0.033 A 
HETATM   14  C   LIG     1      23.647  22.338  22.400  1.00  0.00     0.018 A 
HETATM   15  C   LIG     1      23.013  22.437  21.157  1.00  0.00     0.025 A 
HETATM   16  C   LIG     1      23.542  21.777  20.044  1.00  0.00     0.034 A 
HETATM   17 CL   LIG     1      22.744  21.902  18.487  1.00  0.00    -0.084 Cl
HETATM   18  C   LIG     1      24.711  21.022  20.173  1.00  0.00     0.025 A 
HETATM   19  C   LIG     1      25.349  20.920  21.413  1.00  0.00     0.018 A 
ENDBRANCH   1  13
BRANCH   5  20
HETATM   20  C   LIG     1      26.172  25.032  27.386  1.00  0.00     0.151 C 
BRANCH  20  21
HETATM   21  C   LIG     1      27.159  24.567  28.421  1.00  0.00     0.143 C 
HETATM   22  O   LIG     1      26.939  23.535  29.112  1.00  0.00    -0.650 OA
BRANCH  21  23
HETATM   23  O   LIG     1      28.334  25.281  28.624  1.00  0.00    -0.776 OA
HETATM   24  H   LIG     1      28.920  25.557  27.845  1.00  0.00     0.167 HD
ENDBRANCH  21  23
ENDBRANCH  20  21
ENDBRANCH   5  20
BRANCH   8  25
HETATM   25  O   LIG     1      29.632  26.593  23.375  1.00  0.00    -0.356 OA
HETATM   26  C   LIG     1      29.937  27.606  24.328  1.00  0.00     0.210 C 
ENDBRANCH   8  25
TORSDOF 5
ENDMDL
MODEL 6
REMARK VINA RESULT:      -5.0     15.166     17.155
REMARK  5 active torsions:
REMARK  status: ('A' for Active; 'I' for Inactive)
REMARK    1  A    between atoms: C_7  and  C_8 
REMARK       I    between atoms: C_8  and  N_9 
REMARK    2  A    between atoms: C_12  and  C_13 
REMARK    3  A    between atoms: C_13  and  C_14 
REMARK    4  A    between atoms: C_14  and  O_15 
REMARK    5  A    between atoms: C_19  and  O_20 
ROOT
HETATM    1  C   LIG     1      23.591  19.900  26.895  1.00  0.00     0.263 C 
HETATM    2  N   LIG     1      24.108  20.991  26.115  1.00  0.00    -0.281 N 
HETATM    3  C   LIG     1      24.942  21.978  26.536  1.00  0.00     0.024 A 
HETATM    4  C   LIG     1      25.405  22.164  27.953  1.00  0.00     0.069 C 
HETATM    5  C   LIG     1      25.208  22.863  25.488  1.00  0.00    -0.013 A 
HETATM    6  C   LIG     1      24.544  22.350  24.389  1.00  0.00     0.003 A 
HETATM    7  C   LIG     1      24.490  22.792  23.067  1.00  0.00     0.051 A 
HETATM    8  C   LIG     1      23.733  22.048  22.142  1.00  0.00     0.069 A 
HETATM    9  C   LIG     1      23.055  20.875  22.572  1.00  0.00     0.039 A 
HETATM   10  C   LIG     1      23.133  20.452  23.911  1.00  0.00     0.034 A 
HETATM   11  C   LIG     1      23.885  21.221  24.803  1.00  0.00     0.053 A 
HETATM   12  O   LIG     1      24.397  19.106  27.449  1.00  0.00    -0.267 OA
ENDROOT
BRANCH   1  13
HETATM   13  C   LIG     1      22.130  19.695  27.046  1.00  0.00     0.033 A 
HETATM   14  C   LIG     1      21.523  18.522  26.560  1.00  0.00     0.018 A 
HETATM   15  C   LIG     1      20.145  18.329  26.699  1.00  0.00     0.025 A 
HETATM   16  C   LIG     1      19.360  19.298  27.329  1.00  0.00     0.034 A 
HETATM   17 CL   LIG     1      17.631  19.052  27.501  1.00  0.00    -0.084 Cl
HETATM   18  C   LIG     1      19.954  20.461  27.826  1.00  0.00     0.025 A 
HETATM   19  C   LIG     1      21.331  20.660  27.690  1.00  0.00     0.018 A 
ENDBRANCH   1  13
BRANCH   5  20
HETATM   20  C   LIG     1      26.096  24.078  25.522  1.00  0.00     0.151 C 
BRANCH  20  21
HETATM   21  C   LIG     1      27.498  23.779  25.068  1.00  0.00     0.143 C 
HETATM   22  O   LIG     1      27.859  23.998  23.880  1.00  0.00    -0.650 OA
BRANCH  21  23
HETATM   23  O   LIG     1      28.417  23.251  25.968  1.00  0.00    -0.776 OA
HETATM   24  H   LIG     1      28.282  23.342  26.968  1.00  0.00     0.167 HD
ENDBRANCH  21  23
ENDBRANCH  20  21
ENDBRANCH   5  20
BRANCH   8  25
HETATM   25  O   LIG     1      23.679  22.500  20.815  1.00  0.00    -0.356 OA
HETATM   26  C   LIG     1      23.073  21.781  19.747  1.00  0.00     0.210 C 
ENDBRANCH   8  25
TORSDOF 5
ENDMDL
MODEL 7
REMARK VINA RESULT:      -4.8     19.505     21.913
REMARK  5 active torsions:
REMARK  status: ('A' for Active; 'I' for Inactive)
REMARK    1  A    between atoms: C_7  and  C_8 
REMARK       I    between atoms: C_8  and  N_9 
REMARK    2  A    between atoms: C_12  and  C_13 
REMARK    3  A    between atoms: C_13  and  C_14 
REMARK    4  A    between atoms: C_14  and  O_15 
REMARK    5  A    between atoms: C_19  and  O_20 
ROOT
HETATM    1  C   LIG     1      28.816  26.999  32.689  1.00  0.00     0.263 C 
HETATM    2  N   LIG     1      28.474  28.331  33.107  1.00  0.00    -0.281 N 
HETATM    3  C   LIG     1      27.689  28.686  34.158  1.00  0.00     0.024 A 
HETATM    4  C   LIG     1      26.940  27.722  35.032  1.00  0.00     0.069 C 
HETATM    5  C   LIG     1      27.582  30.077  34.231  1.00  0.00    -0.013 A 
HETATM    6  C   LIG     1      28.379  30.566  33.212  1.00  0.00     0.003 A 
HETATM    7  C   LIG     1      28.683  31.876  32.840  1.00  0.00     0.051 A 
HETATM    8  C   LIG     1      29.552  32.078  31.751  1.00  0.00     0.069 A 
HETATM    9  C   LIG     1      30.095  30.957  31.068  1.00  0.00     0.039 A 
HETATM   10  C   LIG     1      29.773  29.648  31.470  1.00  0.00     0.034 A 
HETATM   11  C   LIG     1      28.900  29.485  32.548  1.00  0.00     0.053 A 
HETATM   12  O   LIG     1      29.400  26.232  33.500  1.00  0.00    -0.267 OA
ENDROOT
BRANCH   1  13
HETATM   13  C   LIG     1      28.499  26.523  31.320  1.00  0.00     0.033 A 
HETATM   14  C   LIG     1      29.465  25.831  30.567  1.00  0.00     0.018 A 
HETATM   15  C   LIG     1      29.168  25.384  29.275  1.00  0.00     0.025 A 
HETATM   16  C   LIG     1      27.905  25.618  28.724  1.00  0.00     0.034 A 
HETATM   17 CL   LIG     1      27.537  25.057  27.103  1.00  0.00    -0.084 Cl
HETATM   18  C   LIG     1      26.935  26.294  29.468  1.00  0.00     0.025 A 
HETATM   19  C   LIG     1      27.225  26.743  30.760  1.00  0.00     0.018 A 
ENDBRANCH   1  13
BRANCH   5  20
HETATM   20  C   LIG     1      26.825  30.882  35.254  1.00  0.00     0.151 C 
BRANCH  20  21
HETATM   21  C   LIG     1      27.549  30.966  36.569  1.00  0.00     0.143 C 
HETATM   22  O   LIG     1      27.175  30.286  37.563  1.00  0.00    -0.650 OA
BRANCH  21  23
HETATM   23  O   LIG     1      28.649  31.807  36.699  1.00  0.00    -0.776 OA
HETATM   24  H   LIG     1      28.554  32.811  36.607  1.00  0.00     0.167 HD
ENDBRANCH  21  23
ENDBRANCH  20  21
ENDBRANCH   5  20
BRANCH   8  25
HETATM   25  O   LIG     1      29.851  33.398  31.380  1.00  0.00    -0.356 OA
HETATM   26  C   LIG     1      28.880  34.362  30.990  1.00  0.00     0.210 C 
ENDBRANCH   8  25
TORSDOF 5
ENDMDL
MODEL 8
REMARK VINA RESULT:      -4.8     14.726     16.468
REMARK  5 active torsions:
REMARK  status: ('A' for Active; 'I' for Inactive)
REMARK    1  A    between atoms: C_7  and  C_8 
REMARK       I    between atoms: C_8  and  N_9 
REMARK    2  A    between atoms: C_12  and  C_13 
REMARK    3  A    between atoms: C_13  and  C_14 
REMARK    4  A    between atoms: C_14  and  O_15 
REMARK    5  A    between atoms: C_19  and  O_20 
ROOT
HETATM    1  C   LIG     1      25.508  23.043  19.597  1.00  0.00     0.263 C 
HETATM    2  N   LIG     1      25.626  22.550  20.942  1.00  0.00    -0.281 N 
HETATM    3  C   LIG     1      24.677  22.580  21.914  1.00  0.00     0.024 A 
HETATM    4  C   LIG     1      23.335  23.240  21.782  1.00  0.00     0.069 C 
HETATM    5  C   LIG     1      25.176  22.016  23.091  1.00  0.00    -0.013 A 
HETATM    6  C   LIG     1      26.456  21.589  22.788  1.00  0.00     0.003 A 
HETATM    7  C   LIG     1      27.403  20.920  23.562  1.00  0.00     0.051 A 
HETATM    8  C   LIG     1      28.639  20.593  22.975  1.00  0.00     0.069 A 
HETATM    9  C   LIG     1      28.887  20.943  21.620  1.00  0.00     0.039 A 
HETATM   10  C   LIG     1      27.911  21.613  20.862  1.00  0.00     0.034 A 
HETATM   11  C   LIG     1      26.699  21.931  21.482  1.00  0.00     0.053 A 
HETATM   12  O   LIG     1      24.602  22.583  18.852  1.00  0.00    -0.267 OA
ENDROOT
BRANCH   1  13
HETATM   13  C   LIG     1      26.439  24.074  19.077  1.00  0.00     0.033 A 
HETATM   14  C   LIG     1      26.567  25.312  19.734  1.00  0.00     0.018 A 
HETATM   15  C   LIG     1      27.442  26.286  19.242  1.00  0.00     0.025 A 
HETATM   16  C   LIG     1      28.201  26.035  18.096  1.00  0.00     0.034 A 
HETATM   17 CL   LIG     1      29.296  27.260  17.482  1.00  0.00    -0.084 Cl
HETATM   18  C   LIG     1      28.090  24.805  17.444  1.00  0.00     0.025 A 
HETATM   19  C   LIG     1      27.217  23.827  17.930  1.00  0.00     0.018 A 
ENDBRANCH   1  13
BRANCH   5  20
HETATM   20  C   LIG     1      24.448  21.836  24.396  1.00  0.00     0.151 C 
BRANCH  20  21
HETATM   21  C   LIG     1      24.812  22.887  25.408  1.00  0.00     0.143 C 
HETATM   22  O   LIG     1      25.667  23.775  25.145  1.00  0.00    -0.650 OA
BRANCH  21  23
HETATM   23  O   LIG     1      24.200  22.885  26.657  1.00  0.00    -0.776 OA
HETATM   24  H   LIG     1      24.609  22.388  27.439  1.00  0.00     0.167 HD
ENDBRANCH  21  23
ENDBRANCH  20  21
ENDBRANCH   5  20
BRANCH   8  25
HETATM   25  O   LIG     1      29.589  19.923  23.760  1.00  0.00    -0.356 OA
HETATM   26  C   LIG     1      29.515  19.798  25.176  1.00  0.00     0.210 C 
ENDBRANCH   8  25
TORSDOF 5
ENDMDL
MODEL 9
REMARK VINA RESULT:      -4.8     13.993     15.943
REMARK  5 active torsions:
REMARK  status: ('A' for Active; 'I' for Inactive)
REMARK    1  A    between atoms: C_7  and  C_8 
REMARK       I    between atoms: C_8  and  N_9 
REMARK    2  A    between atoms: C_12  and  C_13 
REMARK    3  A    between atoms: C_13  and  C_14 
REMARK    4  A    between atoms: C_14  and  O_15 
REMARK    5  A    between atoms: C_19  and  O_20 
ROOT
HETATM    1  C   LIG     1      24.671  19.140  19.825  1.00  0.00     0.263 C 
HETATM    2  N   LIG     1      24.716  20.425  20.467  1.00  0.00    -0.281 N 
HETATM    3  C   LIG     1      24.385  20.713  21.753  1.00  0.00     0.024 A 
HETATM    4  C   LIG     1      23.804  19.730  22.729  1.00  0.00     0.069 C 
HETATM    5  C   LIG     1      24.548  22.078  21.999  1.00  0.00    -0.013 A 
HETATM    6  C   LIG     1      25.046  22.612  20.824  1.00  0.00     0.003 A 
HETATM    7  C   LIG     1      25.434  23.913  20.505  1.00  0.00     0.051 A 
HETATM    8  C   LIG     1      25.926  24.166  19.210  1.00  0.00     0.069 A 
HETATM    9  C   LIG     1      26.019  23.102  18.273  1.00  0.00     0.039 A 
HETATM   10  C   LIG     1      25.624  21.800  18.626  1.00  0.00     0.034 A 
HETATM   11  C   LIG     1      25.131  21.587  19.916  1.00  0.00     0.053 A 
HETATM   12  O   LIG     1      25.344  18.190  20.306  1.00  0.00    -0.267 OA
ENDROOT
BRANCH   1  13
HETATM   13  C   LIG     1      23.853  18.923  18.607  1.00  0.00     0.033 A 
HETATM   14  C   LIG     1      24.471  18.608  17.383  1.00  0.00     0.018 A 
HETATM   15  C   LIG     1      23.700  18.407  16.233  1.00  0.00     0.025 A 
HETATM   16  C   LIG     1      22.308  18.511  16.293  1.00  0.00     0.034 A 
HETATM   17 CL   LIG     1      21.346  18.259  14.848  1.00  0.00    -0.084 Cl
HETATM   18  C   LIG     1      21.684  18.813  17.506  1.00  0.00     0.025 A 
HETATM   19  C   LIG     1      22.449  19.015  18.659  1.00  0.00     0.018 A 
ENDBRANCH   1  13
BRANCH   5  20
HETATM   20  C   LIG     1      24.312  22.808  23.294  1.00  0.00     0.151 C 
BRANCH  20  21
HETATM   21  C   LIG     1      25.493  22.731  24.222  1.00  0.00     0.143 C 
HETATM   22  O   LIG     1      25.507  21.928  25.193  1.00  0.00    -0.650 OA
BRANCH  21  23
HETATM   23  O   LIG     1      26.591  23.558  24.010  1.00  0.00    -0.776 OA
HETATM   24  H   LIG     1      27.478  23.375  24.463  1.00  0.00     0.167 HD
ENDBRANCH  21  23
ENDBRANCH  20  21
ENDBRANCH   5  20
BRANCH   8  25
HETATM   25  O   LIG     1      26.313  25.478  18.894  1.00  0.00    -0.356 OA
HETATM   26  C   LIG     1      27.487  26.110  19.392  1.00  0.00     0.210 C 
ENDBRANCH   8  25
TORSDOF 5
ENDMDL
MODEL 10
REMARK VINA RESULT:      -4.8     13.936     15.768
REMARK  5 active torsions:
REMARK  status: ('A' for Active; 'I' for Inactive)
REMARK    1  A    between atoms: C_7  and  C_8 
REMARK       I    between atoms: C_8  and  N_9 
REMARK    2  A    between atoms: C_12  and  C_13 
REMARK    3  A    between atoms: C_13  and  C_14 
REMARK    4  A    between atoms: C_14  and  O_15 
REMARK    5  A    between atoms: C_19  and  O_20 
ROOT
HETATM    1  C   LIG     1      28.094  22.793  19.427  1.00  0.00     0.263 C 
HETATM    2  N   LIG     1      26.927  22.572  20.236  1.00  0.00    -0.281 N 
HETATM    3  C   LIG     1      25.765  21.981  19.855  1.00  0.00     0.024 A 
HETATM    4  C   LIG     1      25.449  21.530  18.457  1.00  0.00     0.069 C 
HETATM    5  C   LIG     1      24.861  21.964  20.920  1.00  0.00    -0.013 A 
HETATM    6  C   LIG     1      25.536  22.522  21.990  1.00  0.00     0.003 A 
HETATM    7  C   LIG     1      25.144  22.721  23.314  1.00  0.00     0.051 A 
HETATM    8  C   LIG     1      26.062  23.310  24.204  1.00  0.00     0.069 A 
HETATM    9  C   LIG     1      27.353  23.679  23.738  1.00  0.00     0.039 A 
HETATM   10  C   LIG     1      27.721  23.461  22.399  1.00  0.00     0.034 A 
HETATM   11  C   LIG     1      26.781  22.884  21.542  1.00  0.00     0.053 A 
HETATM   12  O   LIG     1      28.667  21.806  18.892  1.00  0.00    -0.267 OA
ENDROOT
BRANCH   1  13
HETATM   13  C   LIG     1      28.635  24.159  19.223  1.00  0.00     0.033 A 
HETATM   14  C   LIG     1      27.793  25.198  18.783  1.00  0.00     0.018 A 
HETATM   15  C   LIG     1      28.303  26.485  18.587  1.00  0.00     0.025 A 
HETATM   16  C   LIG     1      29.652  26.752  18.832  1.00  0.00     0.034 A 
HETATM   17 CL   LIG     1      30.287  28.368  18.583  1.00  0.00    -0.084 Cl
HETATM   18  C   LIG     1      30.494  25.731  19.280  1.00  0.00     0.025 A 
HETATM   19  C   LIG     1      29.991  24.441  19.478  1.00  0.00     0.018 A 
ENDBRANCH   1  13
BRANCH   5  20
HETATM   20  C   LIG     1      23.471  21.386  20.930  1.00  0.00     0.151 C 
BRANCH  20  21
HETATM   21  C   LIG     1      22.433  22.378  20.482  1.00  0.00     0.143 C 
HETATM   22  O   LIG     1      22.157  22.524  19.260  1.00  0.00    -0.650 OA
BRANCH  21  23
HETATM   23  O   LIG     1      21.763  23.149  21.425  1.00  0.00    -0.776 OA
HETATM   24  H   LIG     1      21.964  24.136  21.532  1.00  0.00     0.167 HD
ENDBRANCH  21  23
ENDBRANCH  20  21
ENDBRANCH   5  20
BRANCH   8  25
HETATM   25  O   LIG     1      25.660  23.510  25.533  1.00  0.00    -0.356 OA
HETATM   26  C   LIG     1      26.187  24.519  26.388  1.00  0.00     0.210 C 
ENDBRANCH   8  25
TORSDOF 5
ENDMDL
MODEL 11
REMARK VINA RESULT:      -4.7     14.855     17.164
REMARK  5 active torsions:
REMARK  status: ('A' for Active; 'I' for Inactive)
REMARK    1  A    between atoms: C_7  and  C_8 
REMARK       I    between atoms: C_8  and  N_9 
REMARK    2  A    between atoms: C_12  and  C_13 
REMARK    3  A    between atoms: C_13  and  C_14 
REMARK    4  A    between atoms: C_14  and  O_15 
REMARK    5  A    between atoms: C_19  and  O_20 
ROOT
HETATM    1  C   LIG     1      23.540  19.256  23.502  1.00  0.00     0.263 C 
HETATM    2  N   LIG     1      23.381  19.946  24.753  1.00  0.00    -0.281 N 
HETATM    3  C   LIG     1      22.453  19.699  25.714  1.00  0.00     0.024 A 
HETATM    4  C   LIG     1      21.338  18.700  25.594  1.00  0.00     0.069 C 
HETATM    5  C   LIG     1      22.612  20.592  26.777  1.00  0.00    -0.013 A 
HETATM    6  C   LIG     1      23.711  21.365  26.453  1.00  0.00     0.003 A 
HETATM    7  C   LIG     1      24.352  22.383  27.160  1.00  0.00     0.051 A 
HETATM    8  C   LIG     1      25.479  22.995  26.580  1.00  0.00     0.069 A 
HETATM    9  C   LIG     1      25.935  22.562  25.306  1.00  0.00     0.039 A 
HETATM   10  C   LIG     1      25.272  21.530  24.620  1.00  0.00     0.034 A 
HETATM   11  C   LIG     1      24.150  20.953  25.221  1.00  0.00     0.053 A 
HETATM   12  O   LIG     1      23.746  18.012  23.510  1.00  0.00    -0.267 OA
ENDROOT
BRANCH   1  13
HETATM   13  C   LIG     1      23.474  19.985  22.213  1.00  0.00     0.033 A 
HETATM   14  C   LIG     1      22.791  21.213  22.126  1.00  0.00     0.018 A 
HETATM   15  C   LIG     1      22.725  21.900  20.909  1.00  0.00     0.025 A 
HETATM   16  C   LIG     1      23.342  21.375  19.771  1.00  0.00     0.034 A 
HETATM   17 CL   LIG     1      23.255  22.239  18.247  1.00  0.00    -0.084 Cl
HETATM   18  C   LIG     1      24.032  20.162  19.850  1.00  0.00     0.025 A 
HETATM   19  C   LIG     1      24.102  19.471  21.063  1.00  0.00     0.018 A 
ENDBRANCH   1  13
BRANCH   5  20
HETATM   20  C   LIG     1      21.807  20.651  28.048  1.00  0.00     0.151 C 
BRANCH  20  21
HETATM   21  C   LIG     1      20.666  21.625  27.962  1.00  0.00     0.143 C 
HETATM   22  O   LIG     1      19.470  21.227  27.941  1.00  0.00    -0.650 OA
BRANCH  21  23
HETATM   23  O   LIG     1      20.926  22.990  27.903  1.00  0.00    -0.776 OA
HETATM   24  H   LIG     1      21.817  23.366  28.206  1.00  0.00     0.167 HD
ENDBRANCH  21  23
ENDBRANCH  20  21
ENDBRANCH   5  20
BRANCH   8  25
HETATM   25  O   LIG     1      26.117  24.020  27.295  1.00  0.00    -0.356 OA
HETATM   26  C   LIG     1      27.265  24.725  26.835  1.00  0.00     0.210 C 
ENDBRANCH   8  25
TORSDOF 5
ENDMDL
MODEL 12
REMARK VINA RESULT:      -4.7     14.300     15.833
REMARK  5 active torsions:
REMARK  status: ('A' for Active; 'I' for Inactive)
REMARK    1  A    between atoms: C_7  and  C_8 
REMARK       I    between atoms: C_8  and  N_9 
REMARK    2  A    between atoms: C_12  and  C_13 
REMARK    3  A    between atoms: C_13  and  C_14 
REMARK    4  A    between atoms: C_14  and  O_15 
REMARK    5  A    between atoms: C_19  and  O_20 
ROOT
HETATM    1  C   LIG     1      28.546  23.450  22.963  1.00  0.00     0.263 C 
HETATM    2  N   LIG     1      28.019  24.026  21.757  1.00  0.00    -0.281 N 
HETATM    3  C   LIG     1      28.439  25.159  21.136  1.00  0.00     0.024 A 
HETATM    4  C   LIG     1      29.493  26.088  21.667  1.00  0.00     0.069 C 
HETATM    5  C   LIG     1      27.667  25.398  19.996  1.00  0.00    -0.013 A 
HETATM    6  C   LIG     1      26.786  24.336  19.912  1.00  0.00     0.003 A 
HETATM    7  C   LIG     1      25.815  24.028  18.960  1.00  0.00     0.051 A 
HETATM    8  C   LIG     1      25.063  22.849  19.126  1.00  0.00     0.069 A 
HETATM    9  C   LIG     1      25.313  22.009  20.245  1.00  0.00     0.039 A 
HETATM   10  C   LIG     1      26.302  22.344  21.186  1.00  0.00     0.034 A 
HETATM   11  C   LIG     1      27.021  23.526  20.994  1.00  0.00     0.053 A 
HETATM   12  O   LIG     1      29.765  23.131  23.009  1.00  0.00    -0.267 OA
ENDROOT
BRANCH   1  13
HETATM   13  C   LIG     1      27.678  23.221  24.143  1.00  0.00     0.033 A 
HETATM   14  C   LIG     1      27.027  24.301  24.767  1.00  0.00     0.018 A 
HETATM   15  C   LIG     1      26.211  24.087  25.882  1.00  0.00     0.025 A 
HETATM   16  C   LIG     1      26.031  22.795  26.383  1.00  0.00     0.034 A 
HETATM   17 CL   LIG     1      25.008  22.530  27.783  1.00  0.00    -0.084 Cl
HETATM   18  C   LIG     1      26.664  21.714  25.765  1.00  0.00     0.025 A 
HETATM   19  C   LIG     1      27.481  21.922  24.649  1.00  0.00     0.018 A 
ENDBRANCH   1  13
BRANCH   5  20
HETATM   20  C   LIG     1      27.812  26.532  19.017  1.00  0.00     0.151 C 
BRANCH  20  21
HETATM   21  C   LIG     1      28.877  26.270  17.987  1.00  0.00     0.143 C 
HETATM   22  O   LIG     1      28.722  25.385  17.102  1.00  0.00    -0.650 OA
BRANCH  21  23
HETATM   23  O   LIG     1      30.053  27.012  18.006  1.00  0.00    -0.776 OA
HETATM   24  H   LIG     1      30.870  26.708  17.491  1.00  0.00     0.167 HD
ENDBRANCH  21  23
ENDBRANCH  20  21
ENDBRANCH   5  20
BRANCH   8  25
HETATM   25  O   LIG     1      24.086  22.547  18.166  1.00  0.00    -0.356 OA
HETATM   26  C   LIG     1      23.140  21.490  18.288  1.00  0.00     0.210 C 
ENDBRANCH   8  25
TORSDOF 5
ENDMDL
MODEL 13
REMARK VINA RESULT:      -4.7     14.376     16.787
REMARK  5 active torsions:
REMARK  status: ('A' for Active; 'I' for Inactive)
REMARK    1  A    between atoms: C_7  and  C_8 
REMARK       I    between atoms: C_8  and  N_9 
REMARK    2  A    between atoms: C_12  and  C_13 
REMARK    3  A    between atoms: C_13  and  C_14 
REMARK    4  A    between atoms: C_14  and  O_15 
REMARK    5  A    between atoms: C_19  and  O_20 
ROOT
HETATM    1  C   LIG     1      25.588  23.383  20.299  1.00  0.00     0.263 C 
HETATM    2  N   LIG     1      25.697  23.028  21.687  1.00  0.00    -0.281 N 
HETATM    3  C   LIG     1      26.666  23.412  22.560  1.00  0.00     0.024 A 
HETATM    4  C   LIG     1      27.879  24.218  22.193  1.00  0.00     0.069 C 
HETATM    5  C   LIG     1      26.433  22.849  23.816  1.00  0.00    -0.013 A 
HETATM    6  C   LIG     1      25.250  22.143  23.696  1.00  0.00     0.003 A 
HETATM    7  C   LIG     1      24.518  21.420  24.637  1.00  0.00     0.051 A 
HETATM    8  C   LIG     1      23.319  20.806  24.227  1.00  0.00     0.069 A 
HETATM    9  C   LIG     1      22.887  20.941  22.880  1.00  0.00     0.039 A 
HETATM   10  C   LIG     1      23.644  21.681  21.955  1.00  0.00     0.034 A 
HETATM   11  C   LIG     1      24.833  22.267  22.395  1.00  0.00     0.053 A 
HETATM   12  O   LIG     1      25.518  24.600  19.981  1.00  0.00    -0.267 OA
ENDROOT
BRANCH   1  13
HETATM   13  C   LIG     1      25.550  22.341  19.245  1.00  0.00     0.033 A 
HETATM   14  C   LIG     1      26.721  21.647  18.888  1.00  0.00     0.018 A 
HETATM   15  C   LIG     1      26.686  20.667  17.891  1.00  0.00     0.025 A 
HETATM   16  C   LIG     1      25.484  20.364  17.245  1.00  0.00     0.034 A 
HETATM   17 CL   LIG     1      25.445  19.134  15.995  1.00  0.00    -0.084 Cl
HETATM   18  C   LIG     1      24.313  21.038  17.600  1.00  0.00     0.025 A 
HETATM   19  C   LIG     1      24.342  22.020  18.596  1.00  0.00     0.018 A 
ENDBRANCH   1  13
BRANCH   5  20
HETATM   20  C   LIG     1      27.252  23.034  25.066  1.00  0.00     0.151 C 
BRANCH  20  21
HETATM   21  C   LIG     1      26.953  24.333  25.762  1.00  0.00     0.143 C 
HETATM   22  O   LIG     1      27.816  25.251  25.826  1.00  0.00    -0.650 OA
BRANCH  21  23
HETATM   23  O   LIG     1      25.708  24.532  26.348  1.00  0.00    -0.776 OA
HETATM   24  H   LIG     1      25.426  25.447  26.678  1.00  0.00     0.167 HD
ENDBRANCH  21  23
ENDBRANCH  20  21
ENDBRANCH   5  20
BRANCH   8  25
HETATM   25  O   LIG     1      22.589  20.078  25.178  1.00  0.00    -0.356 OA
HETATM   26  C   LIG     1      23.088  18.942  25.875  1.00  0.00     0.210 C 
ENDBRANCH   8  25
TORSDOF 5
ENDMDL
MODEL 14
REMARK VINA RESULT:      -4.6     16.454     18.398
REMARK  5 active torsions:
REMARK  status: ('A' for Active; 'I' for Inactive)
REMARK    1  A    between atoms: C_7  and  C_8 
REMARK       I    between atoms: C_8  and  N_9 
REMARK    2  A    between atoms: C_12  and  C_13 
REMARK    3  A    between atoms: C_13  and  C_14 
REMARK    4  A    between atoms: C_14  and  O_15 
REMARK    5  A    between atoms: C_19  and  O_20 
ROOT
HETATM    1  C   LIG     1      29.099  25.115  28.616  1.00  0.00     0.263 C 
HETATM    2  N   LIG     1      28.456  24.925  27.345  1.00  0.00    -0.281 N 
HETATM    3  C   LIG     1      28.868  25.395  26.138  1.00  0.00     0.024 A 
HETATM    4  C   LIG     1      30.047  26.301  25.927  1.00  0.00     0.069 C 
HETATM    5  C   LIG     1      27.968  25.013  25.140  1.00  0.00    -0.013 A 
HETATM    6  C   LIG     1      27.011  24.243  25.775  1.00  0.00     0.003 A 
HETATM    7  C   LIG     1      25.901  23.566  25.270  1.00  0.00     0.051 A 
HETATM    8  C   LIG     1      25.097  22.835  26.166  1.00  0.00     0.069 A 
HETATM    9  C   LIG     1      25.435  22.802  27.546  1.00  0.00     0.039 A 
HETATM   10  C   LIG     1      26.563  23.490  28.024  1.00  0.00     0.034 A 
HETATM   11  C   LIG     1      27.332  24.213  27.109  1.00  0.00     0.053 A 
HETATM   12  O   LIG     1      30.287  24.721  28.767  1.00  0.00    -0.267 OA
ENDROOT
BRANCH   1  13
HETATM   13  C   LIG     1      28.385  25.756  29.746  1.00  0.00     0.033 A 
HETATM   14  C   LIG     1      27.912  27.076  29.631  1.00  0.00     0.018 A 
HETATM   15  C   LIG     1      27.241  27.683  30.698  1.00  0.00     0.025 A 
HETATM   16  C   LIG     1      27.029  26.978  31.886  1.00  0.00     0.034 A 
HETATM   17 CL   LIG     1      26.188  27.743  33.222  1.00  0.00    -0.084 Cl
HETATM   18  C   LIG     1      27.484  25.663  32.006  1.00  0.00     0.025 A 
HETATM   19  C   LIG     1      28.155  25.051  30.944  1.00  0.00     0.018 A 
ENDBRANCH   1  13
BRANCH   5  20
HETATM   20  C   LIG     1      28.059  25.307  23.667  1.00  0.00     0.151 C 
BRANCH  20  21
HETATM   21  C   LIG     1      28.953  24.340  22.941  1.00  0.00     0.143 C 
HETATM   22  O   LIG     1      28.590  23.151  22.730  1.00  0.00    -0.650 OA
BRANCH  21  23
HETATM   23  O   LIG     1      30.202  24.756  22.493  1.00  0.00    -0.776 OA
HETATM   24  H   LIG     1      31.020  24.169  22.604  1.00  0.00     0.167 HD
ENDBRANCH  21  23
ENDBRANCH  20  21
ENDBRANCH   5  20
BRANCH   8  25
HETATM   25  O   LIG     1      23.980  22.159  25.652  1.00  0.00    -0.356 OA
HETATM   26  C   LIG     1      24.012  21.308  24.512  1.00  0.00     0.210 C 
ENDBRANCH   8  25
TORSDOF 5
ENDMDL
MODEL 15
REMARK VINA RESULT:      -4.6     15.249     17.085
REMARK  5 active torsions:
REMARK  status: ('A' for Active; 'I' for Inactive)
REMARK    1  A    between atoms: C_7  and  C_8 
REMARK       I    between atoms: C_8  and  N_9 
REMARK    2  A    between atoms: C_12  and  C_13 
REMARK    3  A    between atoms: C_13  and  C_14 
REMARK    4  A    between atoms: C_14  and  O_15 
REMARK    5  A    between atoms: C_19  and  O_20 
ROOT
HETATM    1  C   LIG     1      27.488  23.152  21.696  1.00  0.00     0.263 C 
HETATM    2  N   LIG     1      27.027  23.373  23.039  1.00  0.00    -0.281 N 
HETATM    3  C   LIG     1      25.874  22.919  23.596  1.00  0.00     0.024 A 
HETATM    4  C   LIG     1      24.802  22.167  22.859  1.00  0.00     0.069 C 
HETATM    5  C   LIG     1      25.773  23.356  24.919  1.00  0.00    -0.013 A 
HETATM    6  C   LIG     1      26.939  24.055  25.171  1.00  0.00     0.003 A 
HETATM    7  C   LIG     1      27.400  24.676  26.332  1.00  0.00     0.051 A 
HETATM    8  C   LIG     1      28.655  25.311  26.299  1.00  0.00     0.069 A 
HETATM    9  C   LIG     1      29.417  25.301  25.100  1.00  0.00     0.039 A 
HETATM   10  C   LIG     1      28.928  24.663  23.946  1.00  0.00     0.034 A 
HETATM   11  C   LIG     1      27.674  24.052  24.012  1.00  0.00     0.053 A 
HETATM   12  O   LIG     1      27.652  21.969  21.291  1.00  0.00    -0.267 OA
ENDROOT
BRANCH   1  13
HETATM   13  C   LIG     1      27.780  24.290  20.791  1.00  0.00     0.033 A 
HETATM   14  C   LIG     1      29.110  24.655  20.514  1.00  0.00     0.018 A 
HETATM   15  C   LIG     1      29.386  25.730  19.663  1.00  0.00     0.025 A 
HETATM   16  C   LIG     1      28.341  26.447  19.076  1.00  0.00     0.034 A 
HETATM   17 CL   LIG     1      28.691  27.796  18.010  1.00  0.00    -0.084 Cl
HETATM   18  C   LIG     1      27.016  26.085  19.335  1.00  0.00     0.025 A 
HETATM   19  C   LIG     1      26.734  25.012  20.185  1.00  0.00     0.018 A 
ENDBRANCH   1  13
BRANCH   5  20
HETATM   20  C   LIG     1      24.667  23.062  25.897  1.00  0.00     0.151 C 
BRANCH  20  21
HETATM   21  C   LIG     1      24.988  21.901  26.797  1.00  0.00     0.143 C 
HETATM   22  O   LIG     1      24.868  20.712  26.394  1.00  0.00    -0.650 OA
BRANCH  21  23
HETATM   23  O   LIG     1      25.426  22.135  28.096  1.00  0.00    -0.776 OA
HETATM   24  H   LIG     1      26.413  22.156  28.319  1.00  0.00     0.167 HD
ENDBRANCH  21  23
ENDBRANCH  20  21
ENDBRANCH   5  20
BRANCH   8  25
HETATM   25  O   LIG     1      29.111  25.936  27.470  1.00  0.00    -0.356 OA
HETATM   26  C   LIG     1      29.773  25.261  28.534  1.00  0.00     0.210 C 
ENDBRANCH   8  25
TORSDOF 5
ENDMDL
MODEL 16
REMARK VINA RESULT:      -4.6     13.922     15.319
REMARK  5 active torsions:
REMARK  status: ('A' for Active; 'I' for Inactive)
REMARK    1  A    between atoms: C_7  and  C_8 
REMARK       I    between atoms: C_8  and  N_9 
REMARK    2  A    between atoms: C_12  and  C_13 
REMARK    3  A    between atoms: C_13  and  C_14 
REMARK    4  A    between atoms: C_14  and  O_15 
REMARK    5  A    between atoms: C_19  and  O_20 
ROOT
HETATM    1  C   LIG     1      23.754  21.012  18.624  1.00  0.00     0.263 C 
HETATM    2  N   LIG     1      25.053  21.026  18.011  1.00  0.00    -0.281 N 
HETATM    3  C   LIG     1      25.538  20.147  17.095  1.00  0.00     0.024 A 
HETATM    4  C   LIG     1      24.819  18.916  16.622  1.00  0.00     0.069 C 
HETATM    5  C   LIG     1      26.848  20.487  16.749  1.00  0.00    -0.013 A 
HETATM    6  C   LIG     1      27.132  21.644  17.451  1.00  0.00     0.003 A 
HETATM    7  C   LIG     1      28.270  22.450  17.463  1.00  0.00     0.051 A 
HETATM    8  C   LIG     1      28.272  23.597  18.279  1.00  0.00     0.069 A 
HETATM    9  C   LIG     1      27.124  23.905  19.058  1.00  0.00     0.039 A 
HETATM   10  C   LIG     1      25.989  23.076  19.022  1.00  0.00     0.034 A 
HETATM   11  C   LIG     1      26.027  21.941  18.209  1.00  0.00     0.053 A 
HETATM   12  O   LIG     1      22.729  21.069  17.893  1.00  0.00    -0.267 OA
ENDROOT
BRANCH   1  13
HETATM   13  C   LIG     1      23.605  20.938  20.098  1.00  0.00     0.033 A 
HETATM   14  C   LIG     1      24.125  19.842  20.811  1.00  0.00     0.018 A 
HETATM   15  C   LIG     1      23.982  19.771  22.201  1.00  0.00     0.025 A 
HETATM   16  C   LIG     1      23.327  20.792  22.893  1.00  0.00     0.034 A 
HETATM   17 CL   LIG     1      23.149  20.698  24.636  1.00  0.00    -0.084 Cl
HETATM   18  C   LIG     1      22.817  21.890  22.196  1.00  0.00     0.025 A 
HETATM   19  C   LIG     1      22.957  21.968  20.807  1.00  0.00     0.018 A 
ENDBRANCH   1  13
BRANCH   5  20
HETATM   20  C   LIG     1      27.741  19.790  15.758  1.00  0.00     0.151 C 
BRANCH  20  21
HETATM   21  C   LIG     1      27.574  20.320  14.360  1.00  0.00     0.143 C 
HETATM   22  O   LIG     1      28.391  21.149  13.877  1.00  0.00    -0.650 OA
BRANCH  21  23
HETATM   23  O   LIG     1      26.503  19.892  13.583  1.00  0.00    -0.776 OA
HETATM   24  H   LIG     1      26.527  18.998  13.106  1.00  0.00     0.167 HD
ENDBRANCH  21  23
ENDBRANCH  20  21
ENDBRANCH   5  20
BRANCH   8  25
HETATM   25  O   LIG     1      29.421  24.401  18.288  1.00  0.00    -0.356 OA
HETATM   26  C   LIG     1      30.594  24.116  19.042  1.00  0.00     0.210 C 
ENDBRANCH   8  25
TORSDOF 5
ENDMDL
MODEL 17
REMARK VINA RESULT:      -4.4     15.812     17.995
REMARK  5 active torsions:
REMARK  status: ('A' for Active; 'I' for Inactive)
REMARK    1  A    between atoms: C_7  and  C_8 
REMARK       I    between atoms: C_8  and  N_9 
REMARK    2  A    between atoms: C_12  and  C_13 
REMARK    3  A    between atoms: C_13  and  C_14 
REMARK    4  A    between atoms: C_14  and  O_15 
REMARK    5  A    between atoms: C_19  and  O_20 
ROOT
HETATM    1  C   LIG     1      27.776  23.330  27.036  1.00  0.00     0.263 C 
HETATM    2  N   LIG     1      26.656  22.930  26.230  1.00  0.00    -0.281 N 
HETATM    3  C   LIG     1      26.473  23.163  24.904  1.00  0.00     0.024 A 
HETATM    4  C   LIG     1      27.389  23.987  24.044  1.00  0.00     0.069 C 
HETATM    5  C   LIG     1      25.252  22.630  24.485  1.00  0.00    -0.013 A 
HETATM    6  C   LIG     1      24.713  22.011  25.598  1.00  0.00     0.003 A 
HETATM    7  C   LIG     1      23.535  21.282  25.756  1.00  0.00     0.051 A 
HETATM    8  C   LIG     1      23.245  20.745  27.025  1.00  0.00     0.069 A 
HETATM    9  C   LIG     1      24.151  20.953  28.099  1.00  0.00     0.039 A 
HETATM   10  C   LIG     1      25.334  21.689  27.907  1.00  0.00     0.034 A 
HETATM   11  C   LIG     1      25.584  22.215  26.638  1.00  0.00     0.053 A 
HETATM   12  O   LIG     1      28.932  22.941  26.716  1.00  0.00    -0.267 OA
ENDROOT
BRANCH   1  13
HETATM   13  C   LIG     1      27.590  24.182  28.235  1.00  0.00     0.033 A 
HETATM   14  C   LIG     1      27.990  23.722  29.503  1.00  0.00     0.018 A 
HETATM   15  C   LIG     1      27.812  24.523  30.635  1.00  0.00     0.025 A 
HETATM   16  C   LIG     1      27.238  25.792  30.515  1.00  0.00     0.034 A 
HETATM   17 CL   LIG     1      27.015  26.793  31.937  1.00  0.00    -0.084 Cl
HETATM   18  C   LIG     1      26.848  26.263  29.259  1.00  0.00     0.025 A 
HETATM   19  C   LIG     1      27.024  25.466  28.123  1.00  0.00     0.018 A 
ENDBRANCH   1  13
BRANCH   5  20
HETATM   20  C   LIG     1      24.676  22.651  23.094  1.00  0.00     0.151 C 
BRANCH  20  21
HETATM   21  C   LIG     1      25.261  21.583  22.212  1.00  0.00     0.143 C 
HETATM   22  O   LIG     1      25.866  21.878  21.146  1.00  0.00    -0.650 OA
BRANCH  21  23
HETATM   23  O   LIG     1      25.137  20.246  22.573  1.00  0.00    -0.776 OA
HETATM   24  H   LIG     1      25.895  19.755  23.032  1.00  0.00     0.167 HD
ENDBRANCH  21  23
ENDBRANCH  20  21
ENDBRANCH   5  20
BRANCH   8  25
HETATM   25  O   LIG     1      22.057  20.016  27.179  1.00  0.00    -0.356 OA
HETATM   26  C   LIG     1      20.942  20.450  27.951  1.00  0.00     0.210 C 
ENDBRANCH   8  25
TORSDOF 5
ENDMDL
MODEL 18
REMARK VINA RESULT:      -4.4     14.113     15.281
REMARK  5 active torsions:
REMARK  status: ('A' for Active; 'I' for Inactive)
REMARK    1  A    between atoms: C_7  and  C_8 
REMARK       I    between atoms: C_8  and  N_9 
REMARK    2  A    between atoms: C_12  and  C_13 
REMARK    3  A    between atoms: C_13  and  C_14 
REMARK    4  A    between atoms: C_14  and  O_15 
REMARK    5  A    between atoms: C_19  and  O_20 
ROOT
HETATM    1  C   LIG     1      25.432  22.724  23.024  1.00  0.00     0.263 C 
HETATM    2  N   LIG     1      25.441  22.400  21.624  1.00  0.00    -0.281 N 
HETATM    3  C   LIG     1      24.795  21.371  21.015  1.00  0.00     0.024 A 
HETATM    4  C   LIG     1      24.016  20.305  21.730  1.00  0.00     0.069 C 
HETATM    5  C   LIG     1      25.062  21.380  19.644  1.00  0.00    -0.013 A 
HETATM    6  C   LIG     1      25.857  22.490  19.425  1.00  0.00     0.003 A 
HETATM    7  C   LIG     1      26.387  23.016  18.247  1.00  0.00     0.051 A 
HETATM    8  C   LIG     1      27.162  24.188  18.325  1.00  0.00     0.069 A 
HETATM    9  C   LIG     1      27.379  24.803  19.588  1.00  0.00     0.039 A 
HETATM   10  C   LIG     1      26.827  24.252  20.758  1.00  0.00     0.034 A 
HETATM   11  C   LIG     1      26.072  23.083  20.643  1.00  0.00     0.053 A 
HETATM   12  O   LIG     1      24.332  22.960  23.592  1.00  0.00    -0.267 OA
ENDROOT
BRANCH   1  13
HETATM   13  C   LIG     1      26.693  22.792  23.801  1.00  0.00     0.033 A 
HETATM   14  C   LIG     1      27.633  21.748  23.722  1.00  0.00     0.018 A 
HETATM   15  C   LIG     1      28.822  21.810  24.457  1.00  0.00     0.025 A 
HETATM   16  C   LIG     1      29.087  22.913  25.273  1.00  0.00     0.034 A 
HETATM   17 CL   LIG     1      30.578  22.986  26.194  1.00  0.00    -0.084 Cl
HETATM   18  C   LIG     1      28.165  23.960  25.349  1.00  0.00     0.025 A 
HETATM   19  C   LIG     1      26.976  23.905  24.617  1.00  0.00     0.018 A 
ENDBRANCH   1  13
BRANCH   5  20
HETATM   20  C   LIG     1      24.530  20.429  18.604  1.00  0.00     0.151 C 
BRANCH  20  21
HETATM   21  C   LIG     1      23.151  20.802  18.136  1.00  0.00     0.143 C 
HETATM   22  O   LIG     1      22.371  19.936  17.655  1.00  0.00    -0.650 OA
BRANCH  21  23
HETATM   23  O   LIG     1      22.722  22.121  18.232  1.00  0.00    -0.776 OA
HETATM   24  H   LIG     1      21.988  22.386  18.878  1.00  0.00     0.167 HD
ENDBRANCH  21  23
ENDBRANCH  20  21
ENDBRANCH   5  20
BRANCH   8  25
HETATM   25  O   LIG     1      27.695  24.710  17.137  1.00  0.00    -0.356 OA
HETATM   26  C   LIG     1      28.911  25.446  17.058  1.00  0.00     0.210 C 
ENDBRANCH   8  25
TORSDOF 5
ENDMDL
MODEL 19
REMARK VINA RESULT:      -4.3     14.157     15.130
REMARK  5 active torsions:
REMARK  status: ('A' for Active; 'I' for Inactive)
REMARK    1  A    between atoms: C_7  and  C_8 
REMARK       I    between atoms: C_8  and  N_9 
REMARK    2  A    between atoms: C_12  and  C_13 
REMARK    3  A    between atoms: C_13  and  C_14 
REMARK    4  A    between atoms: C_14  and  O_15 
REMARK    5  A    between atoms: C_19  and  O_20 
ROOT
HETATM    1  C   LIG     1      23.699  21.605  22.156  1.00  0.00     0.263 C 
HETATM    2  N   LIG     1      24.203  21.551  20.811  1.00  0.00    -0.281 N 
HETATM    3  C   LIG     1      23.960  20.590  19.882  1.00  0.00     0.024 A 
HETATM    4  C   LIG     1      23.182  19.330  20.133  1.00  0.00     0.069 C 
HETATM    5  C   LIG     1      24.640  20.883  18.697  1.00  0.00    -0.013 A 
HETATM    6  C   LIG     1      25.270  22.094  18.918  1.00  0.00     0.003 A 
HETATM    7  C   LIG     1      26.051  22.885  18.076  1.00  0.00     0.051 A 
HETATM    8  C   LIG     1      26.558  24.099  18.576  1.00  0.00     0.069 A 
HETATM    9  C   LIG     1      26.262  24.488  19.910  1.00  0.00     0.039 A 
HETATM   10  C   LIG     1      25.467  23.671  20.734  1.00  0.00     0.034 A 
HETATM   11  C   LIG     1      24.990  22.469  20.208  1.00  0.00     0.053 A 
HETATM   12  O   LIG     1      22.453  21.609  22.345  1.00  0.00    -0.267 OA
ENDROOT
BRANCH   1  13
HETATM   13  C   LIG     1      24.622  21.663  23.316  1.00  0.00     0.033 A 
HETATM   14  C   LIG     1      25.468  20.577  23.605  1.00  0.00     0.018 A 
HETATM   15  C   LIG     1      26.336  20.630  24.701  1.00  0.00     0.025 A 
HETATM   16  C   LIG     1      26.373  21.766  25.514  1.00  0.00     0.034 A 
HETATM   17 CL   LIG     1      27.462  21.827  26.888  1.00  0.00    -0.084 Cl
HETATM   18  C   LIG     1      25.545  22.854  25.228  1.00  0.00     0.025 A 
HETATM   19  C   LIG     1      24.675  22.807  24.135  1.00  0.00     0.018 A 
ENDBRANCH   1  13
BRANCH   5  20
HETATM   20  C   LIG     1      24.628  20.091  17.417  1.00  0.00     0.151 C 
BRANCH  20  21
HETATM   21  C   LIG     1      25.873  19.266  17.239  1.00  0.00     0.143 C 
HETATM   22  O   LIG     1      26.658  19.472  16.274  1.00  0.00    -0.650 OA
BRANCH  21  23
HETATM   23  O   LIG     1      26.169  18.258  18.150  1.00  0.00    -0.776 OA
HETATM   24  H   LIG     1      26.589  18.470  19.046  1.00  0.00     0.167 HD
ENDBRANCH  21  23
ENDBRANCH  20  21
ENDBRANCH   5  20
BRANCH   8  25
HETATM   25  O   LIG     1      27.346  24.888  17.724  1.00  0.00    -0.356 OA
HETATM   26  C   LIG     1      28.446  25.682  18.154  1.00  0.00     0.210 C 
ENDBRANCH   8  25
TORSDOF 5
ENDMDL
MODEL 20
REMARK VINA RESULT:      -4.1     16.072     18.174
REMARK  5 active torsions:
REMARK  status: ('A' for Active; 'I' for Inactive)
REMARK    1  A    between atoms: C_7  and  C_8 
REMARK       I    between atoms: C_8  and  N_9 
REMARK    2  A    between atoms: C_12  and  C_13 
REMARK    3  A    between atoms: C_13  and  C_14 
REMARK    4  A    between atoms: C_14  and  O_15 
REMARK    5  A    between atoms: C_19  and  O_20 
ROOT
HETATM    1  C   LIG     1      23.121  19.845  24.102  1.00  0.00     0.263 C 
HETATM    2  N   LIG     1      24.160  20.228  25.018  1.00  0.00    -0.281 N 
HETATM    3  C   LIG     1      24.009  20.843  26.220  1.00  0.00     0.024 A 
HETATM    4  C   LIG     1      22.703  21.334  26.775  1.00  0.00     0.069 C 
HETATM    5  C   LIG     1      25.257  21.062  26.808  1.00  0.00    -0.013 A 
HETATM    6  C   LIG     1      26.181  20.507  25.942  1.00  0.00     0.003 A 
HETATM    7  C   LIG     1      27.568  20.395  26.035  1.00  0.00     0.051 A 
HETATM    8  C   LIG     1      28.261  19.755  24.989  1.00  0.00     0.069 A 
HETATM    9  C   LIG     1      27.537  19.241  23.880  1.00  0.00     0.039 A 
HETATM   10  C   LIG     1      26.138  19.366  23.816  1.00  0.00     0.034 A 
HETATM   11  C   LIG     1      25.486  20.015  24.866  1.00  0.00     0.053 A 
HETATM   12  O   LIG     1      22.217  19.058  24.494  1.00  0.00    -0.267 OA
ENDROOT
BRANCH   1  13
HETATM   13  C   LIG     1      23.103  20.354  22.710  1.00  0.00     0.033 A 
HETATM   14  C   LIG     1      23.018  21.736  22.459  1.00  0.00     0.018 A 
HETATM   15  C   LIG     1      22.998  22.218  21.146  1.00  0.00     0.025 A 
HETATM   16  C   LIG     1      23.070  21.328  20.071  1.00  0.00     0.034 A 
HETATM   17 CL   LIG     1      23.044  21.936  18.426  1.00  0.00    -0.084 Cl
HETATM   18  C   LIG     1      23.167  19.955  20.308  1.00  0.00     0.025 A 
HETATM   19  C   LIG     1      23.187  19.468  21.619  1.00  0.00     0.018 A 
ENDBRANCH   1  13
BRANCH   5  20
HETATM   20  C   LIG     1      25.538  21.697  28.144  1.00  0.00     0.151 C 
BRANCH  20  21
HETATM   21  C   LIG     1      26.097  23.087  28.015  1.00  0.00     0.143 C 
HETATM   22  O   LIG     1      27.173  23.412  28.586  1.00  0.00    -0.650 OA
BRANCH  21  23
HETATM   23  O   LIG     1      25.421  24.034  27.254  1.00  0.00    -0.776 OA
HETATM   24  H   LIG     1      25.835  24.425  26.417  1.00  0.00     0.167 HD
ENDBRANCH  21  23
ENDBRANCH  20  21
ENDBRANCH   5  20
BRANCH   8  25
HETATM   25  O   LIG     1      29.656  19.648  25.088  1.00  0.00    -0.356 OA
HETATM   26  C   LIG     1      30.333  18.830  26.036  1.00  0.00     0.210 C 
ENDBRANCH   8  25
TORSDOF 5
ENDMDL
