MODEL 1
REMARK VINA RESULT:      -8.7      0.000      0.000
REMARK  5 active torsions:
REMARK  status: ('A' for Active; 'I' for Inactive)
REMARK    1  A    between atoms: C_2  and  C_4 
REMARK    2  A    between atoms: C_2  and  O_3 
REMARK    3  A    between atoms: C_5  and  N_10 
REMARK    4  A    between atoms: N_10  and  C_11 
REMARK    5  A    between atoms: C_13  and  C_14 
ROOT
HETATM    1  N   LIG     1      16.074  36.553  23.550  1.00  0.00    -0.355 N 
HETATM    2  H   LIG     1      15.224  37.117  23.776  1.00  0.00     0.166 HD
ENDROOT
BRANCH   1   3
HETATM    3  C   LIG     1      16.986  36.272  24.622  1.00  0.00     0.049 A 
HETATM    4  C   LIG     1      17.532  37.301  25.432  1.00  0.00     0.064 A 
HETATM    5  C   LIG     1      18.377  36.954  26.501  1.00  0.00     0.020 A 
HETATM    6  C   LIG     1      18.695  35.617  26.751  1.00  0.00     0.001 A 
HETATM    7  C   LIG     1      18.181  34.611  25.932  1.00  0.00     0.002 A 
HETATM    8  C   LIG     1      17.336  34.936  24.870  1.00  0.00     0.030 A 
BRANCH   4   9
HETATM    9  C   LIG     1      17.284  38.734  25.144  1.00  0.00     0.178 C 
HETATM   10  O   LIG     1      17.144  39.125  23.954  1.00  0.00    -0.646 OA
BRANCH   9  11
HETATM   11  O   LIG     1      17.216  39.674  26.170  1.00  0.00    -0.773 OA
HETATM   12  H   LIG     1      17.144  39.399  27.143  1.00  0.00     0.167 HD
ENDBRANCH   9  11
ENDBRANCH   4   9
ENDBRANCH   1   3
BRANCH   1  13
HETATM   13  C   LIG     1      16.342  36.248  22.169  1.00  0.00     0.033 A 
HETATM   14  C   LIG     1      15.497  35.406  21.424  1.00  0.00     0.029 A 
HETATM   15  C   LIG     1      15.775  35.136  20.083  1.00  0.00     0.003 A 
HETATM   16  C   LIG     1      16.906  35.685  19.475  1.00  0.00     0.016 A 
HETATM   17  C   LIG     1      17.786  36.494  20.213  1.00  0.00     0.050 A 
HETATM   18  C   LIG     1      17.484  36.784  21.556  1.00  0.00     0.045 A 
BRANCH  17  19
HETATM   19  C   LIG     1      18.984  37.124  19.547  1.00  0.00     0.417 C 
HETATM   20  F   LIG     1      18.645  37.631  18.304  1.00  0.00    -0.166 F 
HETATM   21  F   LIG     1      19.992  36.193  19.373  1.00  0.00    -0.166 F 
HETATM   22  F   LIG     1      19.455  38.155  20.340  1.00  0.00    -0.166 F 
ENDBRANCH  17  19
ENDBRANCH   1  13
TORSDOF 5
ENDMDL
MODEL 2
REMARK VINA RESULT:      -8.6      3.448      6.161
REMARK  5 active torsions:
REMARK  status: ('A' for Active; 'I' for Inactive)
REMARK    1  A    between atoms: C_2  and  C_4 
REMARK    2  A    between atoms: C_2  and  O_3 
REMARK    3  A    between atoms: C_5  and  N_10 
REMARK    4  A    between atoms: N_10  and  C_11 
REMARK    5  A    between atoms: C_13  and  C_14 
ROOT
HETATM    1  N   LIG     1      16.870  38.103  22.294  1.00  0.00    -0.355 N 
HETATM    2  H   LIG     1      15.882  38.223  21.977  1.00  0.00     0.166 HD
ENDROOT
BRANCH   1   3
HETATM    3  C   LIG     1      17.885  38.030  21.281  1.00  0.00     0.049 A 
HETATM    4  C   LIG     1      17.986  36.924  20.398  1.00  0.00     0.064 A 
HETATM    5  C   LIG     1      18.969  36.940  19.393  1.00  0.00     0.020 A 
HETATM    6  C   LIG     1      19.851  38.017  19.278  1.00  0.00     0.001 A 
HETATM    7  C   LIG     1      19.769  39.087  20.168  1.00  0.00     0.002 A 
HETATM    8  C   LIG     1      18.795  39.092  21.169  1.00  0.00     0.030 A 
BRANCH   4   9
HETATM    9  C   LIG     1      17.123  35.728  20.545  1.00  0.00     0.178 C 
HETATM   10  O   LIG     1      17.187  35.027  21.591  1.00  0.00    -0.646 OA
BRANCH   9  11
HETATM   11  O   LIG     1      16.241  35.347  19.536  1.00  0.00    -0.773 OA
HETATM   12  H   LIG     1      15.237  35.432  19.643  1.00  0.00     0.167 HD
ENDBRANCH   9  11
ENDBRANCH   4   9
ENDBRANCH   1   3
BRANCH   1  13
HETATM   13  C   LIG     1      17.113  37.859  23.692  1.00  0.00     0.033 A 
HETATM   14  C   LIG     1      17.139  38.907  24.629  1.00  0.00     0.029 A 
HETATM   15  C   LIG     1      17.366  38.640  25.980  1.00  0.00     0.003 A 
HETATM   16  C   LIG     1      17.588  37.330  26.409  1.00  0.00     0.016 A 
HETATM   17  C   LIG     1      17.609  36.273  25.484  1.00  0.00     0.050 A 
HETATM   18  C   LIG     1      17.352  36.547  24.129  1.00  0.00     0.045 A 
BRANCH  17  19
HETATM   19  C   LIG     1      17.804  34.852  25.951  1.00  0.00     0.417 C 
HETATM   20  F   LIG     1      16.651  34.368  26.545  1.00  0.00    -0.166 F 
HETATM   21  F   LIG     1      18.830  34.780  26.877  1.00  0.00    -0.166 F 
HETATM   22  F   LIG     1      18.120  34.056  24.866  1.00  0.00    -0.166 F 
ENDBRANCH  17  19
ENDBRANCH   1  13
TORSDOF 5
ENDMDL
MODEL 3
REMARK VINA RESULT:      -7.9      6.190      9.153
REMARK  5 active torsions:
REMARK  status: ('A' for Active; 'I' for Inactive)
REMARK    1  A    between atoms: C_2  and  C_4 
REMARK    2  A    between atoms: C_2  and  O_3 
REMARK    3  A    between atoms: C_5  and  N_10 
REMARK    4  A    between atoms: N_10  and  C_11 
REMARK    5  A    between atoms: C_13  and  C_14 
ROOT
HETATM    1  N   LIG     1      14.775  33.055  16.499  1.00  0.00    -0.355 N 
HETATM    2  H   LIG     1      14.589  33.991  16.075  1.00  0.00     0.166 HD
ENDROOT
BRANCH   1   3
HETATM    3  C   LIG     1      14.671  31.907  15.642  1.00  0.00     0.049 A 
HETATM    4  C   LIG     1      15.620  31.645  14.621  1.00  0.00     0.064 A 
HETATM    5  C   LIG     1      15.490  30.475  13.852  1.00  0.00     0.020 A 
HETATM    6  C   LIG     1      14.429  29.593  14.073  1.00  0.00     0.001 A 
HETATM    7  C   LIG     1      13.481  29.871  15.057  1.00  0.00     0.002 A 
HETATM    8  C   LIG     1      13.597  31.025  15.834  1.00  0.00     0.030 A 
BRANCH   4   9
HETATM    9  C   LIG     1      16.707  32.601  14.303  1.00  0.00     0.178 C 
HETATM   10  O   LIG     1      17.586  32.870  15.166  1.00  0.00    -0.646 OA
BRANCH   9  11
HETATM   11  O   LIG     1      16.775  33.228  13.060  1.00  0.00    -0.773 OA
HETATM   12  H   LIG     1      17.184  32.771  12.253  1.00  0.00     0.167 HD
ENDBRANCH   9  11
ENDBRANCH   4   9
ENDBRANCH   1   3
BRANCH   1  13
HETATM   13  C   LIG     1      14.956  32.976  17.925  1.00  0.00     0.033 A 
HETATM   14  C   LIG     1      14.657  31.804  18.642  1.00  0.00     0.029 A 
HETATM   15  C   LIG     1      14.852  31.752  20.023  1.00  0.00     0.003 A 
HETATM   16  C   LIG     1      15.331  32.872  20.707  1.00  0.00     0.016 A 
HETATM   17  C   LIG     1      15.595  34.066  20.017  1.00  0.00     0.050 A 
HETATM   18  C   LIG     1      15.422  34.102  18.621  1.00  0.00     0.045 A 
BRANCH  17  19
HETATM   19  C   LIG     1      16.154  35.263  20.746  1.00  0.00     0.417 C 
HETATM   20  F   LIG     1      17.009  35.981  19.928  1.00  0.00    -0.166 F 
HETATM   21  F   LIG     1      16.861  34.864  21.867  1.00  0.00    -0.166 F 
HETATM   22  F   LIG     1      15.112  36.083  21.139  1.00  0.00    -0.166 F 
ENDBRANCH  17  19
ENDBRANCH   1  13
TORSDOF 5
ENDMDL
MODEL 4
REMARK VINA RESULT:      -7.8      3.827      5.063
REMARK  5 active torsions:
REMARK  status: ('A' for Active; 'I' for Inactive)
REMARK    1  A    between atoms: C_2  and  C_4 
REMARK    2  A    between atoms: C_2  and  O_3 
REMARK    3  A    between atoms: C_5  and  N_10 
REMARK    4  A    between atoms: N_10  and  C_11 
REMARK    5  A    between atoms: C_13  and  C_14 
ROOT
HETATM    1  N   LIG     1      16.642  35.796  21.385  1.00  0.00    -0.355 N 
HETATM    2  H   LIG     1      16.274  35.694  22.358  1.00  0.00     0.166 HD
ENDROOT
BRANCH   1   3
HETATM    3  C   LIG     1      17.520  36.900  21.122  1.00  0.00     0.049 A 
HETATM    4  C   LIG     1      17.539  38.056  21.945  1.00  0.00     0.064 A 
HETATM    5  C   LIG     1      18.462  39.079  21.664  1.00  0.00     0.020 A 
HETATM    6  C   LIG     1      19.334  38.972  20.577  1.00  0.00     0.001 A 
HETATM    7  C   LIG     1      19.289  37.848  19.753  1.00  0.00     0.002 A 
HETATM    8  C   LIG     1      18.384  36.820  20.020  1.00  0.00     0.030 A 
BRANCH   4   9
HETATM    9  C   LIG     1      16.572  38.240  23.053  1.00  0.00     0.178 C 
HETATM   10  O   LIG     1      15.338  38.084  22.848  1.00  0.00    -0.646 OA
BRANCH   9  11
HETATM   11  O   LIG     1      17.000  38.601  24.330  1.00  0.00    -0.773 OA
HETATM   12  H   LIG     1      16.532  38.267  25.164  1.00  0.00     0.167 HD
ENDBRANCH   9  11
ENDBRANCH   4   9
ENDBRANCH   1   3
BRANCH   1  13
HETATM   13  C   LIG     1      16.114  34.930  20.363  1.00  0.00     0.033 A 
HETATM   14  C   LIG     1      15.906  35.385  19.049  1.00  0.00     0.029 A 
HETATM   15  C   LIG     1      15.403  34.520  18.075  1.00  0.00     0.003 A 
HETATM   16  C   LIG     1      15.087  33.200  18.403  1.00  0.00     0.016 A 
HETATM   17  C   LIG     1      15.247  32.738  19.720  1.00  0.00     0.050 A 
HETATM   18  C   LIG     1      15.780  33.607  20.689  1.00  0.00     0.045 A 
BRANCH  17  19
HETATM   19  C   LIG     1      14.948  31.300  20.066  1.00  0.00     0.417 C 
HETATM   20  F   LIG     1      16.113  30.617  20.372  1.00  0.00    -0.166 F 
HETATM   21  F   LIG     1      14.337  30.660  19.004  1.00  0.00    -0.166 F 
HETATM   22  F   LIG     1      14.104  31.263  21.161  1.00  0.00    -0.166 F 
ENDBRANCH  17  19
ENDBRANCH   1  13
TORSDOF 5
ENDMDL
MODEL 5
REMARK VINA RESULT:      -7.8      2.118      3.292
REMARK  5 active torsions:
REMARK  status: ('A' for Active; 'I' for Inactive)
REMARK    1  A    between atoms: C_2  and  C_4 
REMARK    2  A    between atoms: C_2  and  O_3 
REMARK    3  A    between atoms: C_5  and  N_10 
REMARK    4  A    between atoms: N_10  and  C_11 
REMARK    5  A    between atoms: C_13  and  C_14 
ROOT
HETATM    1  N   LIG     1      16.749  38.006  23.601  1.00  0.00    -0.355 N 
HETATM    2  H   LIG     1      15.866  38.525  23.810  1.00  0.00     0.166 HD
ENDROOT
BRANCH   1   3
HETATM    3  C   LIG     1      17.165  37.002  24.540  1.00  0.00     0.049 A 
HETATM    4  C   LIG     1      17.168  35.623  24.211  1.00  0.00     0.064 A 
HETATM    5  C   LIG     1      17.639  34.696  25.158  1.00  0.00     0.020 A 
HETATM    6  C   LIG     1      18.076  35.122  26.414  1.00  0.00     0.001 A 
HETATM    7  C   LIG     1      18.040  36.476  26.745  1.00  0.00     0.002 A 
HETATM    8  C   LIG     1      17.582  37.411  25.815  1.00  0.00     0.030 A 
BRANCH   4   9
HETATM    9  C   LIG     1      16.633  35.127  22.920  1.00  0.00     0.178 C 
HETATM   10  O   LIG     1      17.373  34.471  22.138  1.00  0.00    -0.646 OA
BRANCH   9  11
HETATM   11  O   LIG     1      15.318  35.385  22.539  1.00  0.00    -0.773 OA
HETATM   12  H   LIG     1      14.794  34.742  21.957  1.00  0.00     0.167 HD
ENDBRANCH   9  11
ENDBRANCH   4   9
ENDBRANCH   1   3
BRANCH   1  13
HETATM   13  C   LIG     1      17.552  38.447  22.491  1.00  0.00     0.033 A 
HETATM   14  C   LIG     1      18.179  39.706  22.490  1.00  0.00     0.029 A 
HETATM   15  C   LIG     1      18.961  40.103  21.404  1.00  0.00     0.003 A 
HETATM   16  C   LIG     1      19.112  39.260  20.301  1.00  0.00     0.016 A 
HETATM   17  C   LIG     1      18.460  38.016  20.263  1.00  0.00     0.050 A 
HETATM   18  C   LIG     1      17.697  37.611  21.373  1.00  0.00     0.045 A 
BRANCH  17  19
HETATM   19  C   LIG     1      18.658  37.085  19.093  1.00  0.00     0.417 C 
HETATM   20  F   LIG     1      19.838  36.374  19.226  1.00  0.00    -0.166 F 
HETATM   21  F   LIG     1      18.713  37.797  17.908  1.00  0.00    -0.166 F 
HETATM   22  F   LIG     1      17.601  36.196  19.036  1.00  0.00    -0.166 F 
ENDBRANCH  17  19
ENDBRANCH   1  13
TORSDOF 5
ENDMDL
MODEL 6
REMARK VINA RESULT:      -7.5      7.702      9.789
REMARK  5 active torsions:
REMARK  status: ('A' for Active; 'I' for Inactive)
REMARK    1  A    between atoms: C_2  and  C_4 
REMARK    2  A    between atoms: C_2  and  O_3 
REMARK    3  A    between atoms: C_5  and  N_10 
REMARK    4  A    between atoms: N_10  and  C_11 
REMARK    5  A    between atoms: C_13  and  C_14 
ROOT
HETATM    1  N   LIG     1      17.360  33.098  15.199  1.00  0.00    -0.355 N 
HETATM    2  H   LIG     1      17.933  33.241  16.061  1.00  0.00     0.166 HD
ENDROOT
BRANCH   1   3
HETATM    3  C   LIG     1      16.210  32.245  15.305  1.00  0.00     0.049 A 
HETATM    4  C   LIG     1      15.204  32.460  16.282  1.00  0.00     0.064 A 
HETATM    5  C   LIG     1      14.076  31.620  16.297  1.00  0.00     0.020 A 
HETATM    6  C   LIG     1      13.955  30.575  15.378  1.00  0.00     0.001 A 
HETATM    7  C   LIG     1      14.962  30.348  14.440  1.00  0.00     0.002 A 
HETATM    8  C   LIG     1      16.086  31.175  14.407  1.00  0.00     0.030 A 
BRANCH   4   9
HETATM    9  C   LIG     1      15.340  33.505  17.325  1.00  0.00     0.178 C 
HETATM   10  O   LIG     1      15.639  34.686  17.001  1.00  0.00    -0.646 OA
BRANCH   9  11
HETATM   11  O   LIG     1      15.156  33.205  18.673  1.00  0.00    -0.773 OA
HETATM   12  H   LIG     1      15.935  33.133  19.316  1.00  0.00     0.167 HD
ENDBRANCH   9  11
ENDBRANCH   4   9
ENDBRANCH   1   3
BRANCH   1  13
HETATM   13  C   LIG     1      17.856  33.625  13.955  1.00  0.00     0.033 A 
HETATM   14  C   LIG     1      17.001  34.250  13.028  1.00  0.00     0.029 A 
HETATM   15  C   LIG     1      17.511  34.762  11.834  1.00  0.00     0.003 A 
HETATM   16  C   LIG     1      18.871  34.642  11.541  1.00  0.00     0.016 A 
HETATM   17  C   LIG     1      19.734  33.984  12.434  1.00  0.00     0.050 A 
HETATM   18  C   LIG     1      19.218  33.495  13.648  1.00  0.00     0.045 A 
BRANCH  17  19
HETATM   19  C   LIG     1      21.211  33.892  12.141  1.00  0.00     0.417 C 
HETATM   20  F   LIG     1      21.928  33.668  13.304  1.00  0.00    -0.166 F 
HETATM   21  F   LIG     1      21.669  35.065  11.570  1.00  0.00    -0.166 F 
HETATM   22  F   LIG     1      21.436  32.846  11.265  1.00  0.00    -0.166 F 
ENDBRANCH  17  19
ENDBRANCH   1  13
TORSDOF 5
ENDMDL
MODEL 7
REMARK VINA RESULT:      -7.4      2.478      4.100
REMARK  5 active torsions:
REMARK  status: ('A' for Active; 'I' for Inactive)
REMARK    1  A    between atoms: C_2  and  C_4 
REMARK    2  A    between atoms: C_2  and  O_3 
REMARK    3  A    between atoms: C_5  and  N_10 
REMARK    4  A    between atoms: N_10  and  C_11 
REMARK    5  A    between atoms: C_13  and  C_14 
ROOT
HETATM    1  N   LIG     1      17.832  38.665  21.398  1.00  0.00    -0.355 N 
HETATM    2  H   LIG     1      17.567  39.495  21.975  1.00  0.00     0.166 HD
ENDROOT
BRANCH   1   3
HETATM    3  C   LIG     1      17.457  37.370  21.892  1.00  0.00     0.049 A 
HETATM    4  C   LIG     1      17.301  37.112  23.278  1.00  0.00     0.064 A 
HETATM    5  C   LIG     1      16.880  35.836  23.692  1.00  0.00     0.020 A 
HETATM    6  C   LIG     1      16.639  34.828  22.755  1.00  0.00     0.001 A 
HETATM    7  C   LIG     1      16.825  35.077  21.396  1.00  0.00     0.002 A 
HETATM    8  C   LIG     1      17.238  36.340  20.966  1.00  0.00     0.030 A 
BRANCH   4   9
HETATM    9  C   LIG     1      17.629  38.132  24.303  1.00  0.00     0.178 C 
HETATM   10  O   LIG     1      16.952  39.193  24.379  1.00  0.00    -0.646 OA
BRANCH   9  11
HETATM   11  O   LIG     1      18.690  37.949  25.188  1.00  0.00    -0.773 OA
HETATM   12  H   LIG     1      19.442  38.623  25.267  1.00  0.00     0.167 HD
ENDBRANCH   9  11
ENDBRANCH   4   9
ENDBRANCH   1   3
BRANCH   1  13
HETATM   13  C   LIG     1      18.683  38.873  20.256  1.00  0.00     0.033 A 
HETATM   14  C   LIG     1      20.060  38.589  20.304  1.00  0.00     0.029 A 
HETATM   15  C   LIG     1      20.860  38.789  19.177  1.00  0.00     0.003 A 
HETATM   16  C   LIG     1      20.303  39.290  17.999  1.00  0.00     0.016 A 
HETATM   17  C   LIG     1      18.938  39.620  17.944  1.00  0.00     0.050 A 
HETATM   18  C   LIG     1      18.133  39.389  19.074  1.00  0.00     0.045 A 
BRANCH  17  19
HETATM   19  C   LIG     1      18.325  40.119  16.659  1.00  0.00     0.417 C 
HETATM   20  F   LIG     1      18.298  39.116  15.706  1.00  0.00    -0.166 F 
HETATM   21  F   LIG     1      19.054  41.179  16.150  1.00  0.00    -0.166 F 
HETATM   22  F   LIG     1      17.031  40.540  16.907  1.00  0.00    -0.166 F 
ENDBRANCH  17  19
ENDBRANCH   1  13
TORSDOF 5
ENDMDL
MODEL 8
REMARK VINA RESULT:      -7.1      2.719      4.153
REMARK  5 active torsions:
REMARK  status: ('A' for Active; 'I' for Inactive)
REMARK    1  A    between atoms: C_2  and  C_4 
REMARK    2  A    between atoms: C_2  and  O_3 
REMARK    3  A    between atoms: C_5  and  N_10 
REMARK    4  A    between atoms: N_10  and  C_11 
REMARK    5  A    between atoms: C_13  and  C_14 
ROOT
HETATM    1  N   LIG     1      17.396  38.818  21.751  1.00  0.00    -0.355 N 
HETATM    2  H   LIG     1      16.696  39.593  21.794  1.00  0.00     0.166 HD
ENDROOT
BRANCH   1   3
HETATM    3  C   LIG     1      17.402  37.872  22.830  1.00  0.00     0.049 A 
HETATM    4  C   LIG     1      16.942  36.540  22.663  1.00  0.00     0.064 A 
HETATM    5  C   LIG     1      17.026  35.648  23.746  1.00  0.00     0.020 A 
HETATM    6  C   LIG     1      17.534  36.069  24.977  1.00  0.00     0.001 A 
HETATM    7  C   LIG     1      17.955  37.387  25.146  1.00  0.00     0.002 A 
HETATM    8  C   LIG     1      17.885  38.286  24.080  1.00  0.00     0.030 A 
BRANCH   4   9
HETATM    9  C   LIG     1      16.319  36.084  21.398  1.00  0.00     0.178 C 
HETATM   10  O   LIG     1      15.066  36.113  21.262  1.00  0.00    -0.646 OA
BRANCH   9  11
HETATM   11  O   LIG     1      17.096  35.603  20.345  1.00  0.00    -0.773 OA
HETATM   12  H   LIG     1      17.318  36.176  19.540  1.00  0.00     0.167 HD
ENDBRANCH   9  11
ENDBRANCH   4   9
ENDBRANCH   1   3
BRANCH   1  13
HETATM   13  C   LIG     1      18.392  38.857  20.712  1.00  0.00     0.033 A 
HETATM   14  C   LIG     1      19.725  38.481  20.957  1.00  0.00     0.029 A 
HETATM   15  C   LIG     1      20.668  38.519  19.928  1.00  0.00     0.003 A 
HETATM   16  C   LIG     1      20.299  38.945  18.651  1.00  0.00     0.016 A 
HETATM   17  C   LIG     1      18.982  39.365  18.396  1.00  0.00     0.050 A 
HETATM   18  C   LIG     1      18.032  39.299  19.430  1.00  0.00     0.045 A 
BRANCH  17  19
HETATM   19  C   LIG     1      18.570  39.785  17.007  1.00  0.00     0.417 C 
HETATM   20  F   LIG     1      18.368  38.678  16.200  1.00  0.00    -0.166 F 
HETATM   21  F   LIG     1      19.548  40.571  16.425  1.00  0.00    -0.166 F 
HETATM   22  F   LIG     1      17.395  40.508  17.081  1.00  0.00    -0.166 F 
ENDBRANCH  17  19
ENDBRANCH   1  13
TORSDOF 5
ENDMDL
MODEL 9
REMARK VINA RESULT:      -7.0      4.681      6.173
REMARK  5 active torsions:
REMARK  status: ('A' for Active; 'I' for Inactive)
REMARK    1  A    between atoms: C_2  and  C_4 
REMARK    2  A    between atoms: C_2  and  O_3 
REMARK    3  A    between atoms: C_5  and  N_10 
REMARK    4  A    between atoms: N_10  and  C_11 
REMARK    5  A    between atoms: C_13  and  C_14 
ROOT
HETATM    1  N   LIG     1      16.012  35.041  19.048  1.00  0.00    -0.355 N 
HETATM    2  H   LIG     1      16.322  35.453  18.138  1.00  0.00     0.166 HD
ENDROOT
BRANCH   1   3
HETATM    3  C   LIG     1      16.303  35.783  20.242  1.00  0.00     0.049 A 
HETATM    4  C   LIG     1      17.465  36.588  20.361  1.00  0.00     0.064 A 
HETATM    5  C   LIG     1      17.663  37.331  21.538  1.00  0.00     0.020 A 
HETATM    6  C   LIG     1      16.742  37.263  22.586  1.00  0.00     0.001 A 
HETATM    7  C   LIG     1      15.617  36.446  22.477  1.00  0.00     0.002 A 
HETATM    8  C   LIG     1      15.401  35.705  21.314  1.00  0.00     0.030 A 
BRANCH   4   9
HETATM    9  C   LIG     1      18.505  36.617  19.305  1.00  0.00     0.178 C 
HETATM   10  O   LIG     1      18.171  36.644  18.090  1.00  0.00    -0.646 OA
BRANCH   9  11
HETATM   11  O   LIG     1      19.861  36.603  19.628  1.00  0.00    -0.773 OA
HETATM   12  H   LIG     1      20.201  36.944  20.519  1.00  0.00     0.167 HD
ENDBRANCH   9  11
ENDBRANCH   4   9
ENDBRANCH   1   3
BRANCH   1  13
HETATM   13  C   LIG     1      15.475  33.706  19.044  1.00  0.00     0.033 A 
HETATM   14  C   LIG     1      15.602  32.859  20.159  1.00  0.00     0.029 A 
HETATM   15  C   LIG     1      15.061  31.572  20.131  1.00  0.00     0.003 A 
HETATM   16  C   LIG     1      14.405  31.110  18.989  1.00  0.00     0.016 A 
HETATM   17  C   LIG     1      14.304  31.925  17.849  1.00  0.00     0.050 A 
HETATM   18  C   LIG     1      14.827  33.230  17.894  1.00  0.00     0.045 A 
BRANCH  17  19
HETATM   19  C   LIG     1      13.557  31.444  16.630  1.00  0.00     0.417 C 
HETATM   20  F   LIG     1      13.204  30.112  16.764  1.00  0.00    -0.166 F 
HETATM   21  F   LIG     1      14.341  31.571  15.497  1.00  0.00    -0.166 F 
HETATM   22  F   LIG     1      12.410  32.199  16.472  1.00  0.00    -0.166 F 
ENDBRANCH  17  19
ENDBRANCH   1  13
TORSDOF 5
ENDMDL
MODEL 10
REMARK VINA RESULT:      -6.8      2.954      3.792
REMARK  5 active torsions:
REMARK  status: ('A' for Active; 'I' for Inactive)
REMARK    1  A    between atoms: C_2  and  C_4 
REMARK    2  A    between atoms: C_2  and  O_3 
REMARK    3  A    between atoms: C_5  and  N_10 
REMARK    4  A    between atoms: N_10  and  C_11 
REMARK    5  A    between atoms: C_13  and  C_14 
ROOT
HETATM    1  N   LIG     1      16.210  35.978  21.096  1.00  0.00    -0.355 N 
HETATM    2  H   LIG     1      16.371  36.806  20.480  1.00  0.00     0.166 HD
ENDROOT
BRANCH   1   3
HETATM    3  C   LIG     1      16.644  36.076  22.461  1.00  0.00     0.049 A 
HETATM    4  C   LIG     1      16.734  37.323  23.133  1.00  0.00     0.064 A 
HETATM    5  C   LIG     1      17.115  37.343  24.486  1.00  0.00     0.020 A 
HETATM    6  C   LIG     1      17.423  36.158  25.157  1.00  0.00     0.001 A 
HETATM    7  C   LIG     1      17.364  34.938  24.483  1.00  0.00     0.002 A 
HETATM    8  C   LIG     1      16.983  34.897  23.142  1.00  0.00     0.030 A 
BRANCH   4   9
HETATM    9  C   LIG     1      16.496  38.606  22.430  1.00  0.00     0.178 C 
HETATM   10  O   LIG     1      17.382  39.085  21.672  1.00  0.00    -0.646 OA
BRANCH   9  11
HETATM   11  O   LIG     1      15.307  39.311  22.600  1.00  0.00    -0.773 OA
HETATM   12  H   LIG     1      15.229  40.078  23.257  1.00  0.00     0.167 HD
ENDBRANCH   9  11
ENDBRANCH   4   9
ENDBRANCH   1   3
BRANCH   1  13
HETATM   13  C   LIG     1      15.723  34.764  20.495  1.00  0.00     0.033 A 
HETATM   14  C   LIG     1      15.232  33.702  21.275  1.00  0.00     0.029 A 
HETATM   15  C   LIG     1      14.756  32.540  20.665  1.00  0.00     0.003 A 
HETATM   16  C   LIG     1      14.780  32.417  19.274  1.00  0.00     0.016 A 
HETATM   17  C   LIG     1      15.306  33.448  18.479  1.00  0.00     0.050 A 
HETATM   18  C   LIG     1      15.758  34.627  19.099  1.00  0.00     0.045 A 
BRANCH  17  19
HETATM   19  C   LIG     1      15.293  33.336  16.974  1.00  0.00     0.417 C 
HETATM   20  F   LIG     1      14.044  32.942  16.523  1.00  0.00    -0.166 F 
HETATM   21  F   LIG     1      16.220  32.403  16.547  1.00  0.00    -0.166 F 
HETATM   22  F   LIG     1      15.603  34.565  16.424  1.00  0.00    -0.166 F 
ENDBRANCH  17  19
ENDBRANCH   1  13
TORSDOF 5
ENDMDL
MODEL 11
REMARK VINA RESULT:      -6.7     10.881     13.685
REMARK  5 active torsions:
REMARK  status: ('A' for Active; 'I' for Inactive)
REMARK    1  A    between atoms: C_2  and  C_4 
REMARK    2  A    between atoms: C_2  and  O_3 
REMARK    3  A    between atoms: C_5  and  N_10 
REMARK    4  A    between atoms: N_10  and  C_11 
REMARK    5  A    between atoms: C_13  and  C_14 
ROOT
HETATM    1  N   LIG     1      13.863  28.033  13.957  1.00  0.00    -0.355 N 
HETATM    2  H   LIG     1      13.252  27.550  14.653  1.00  0.00     0.166 HD
ENDROOT
BRANCH   1   3
HETATM    3  C   LIG     1      14.294  27.276  12.816  1.00  0.00     0.049 A 
HETATM    4  C   LIG     1      13.384  26.526  12.027  1.00  0.00     0.064 A 
HETATM    5  C   LIG     1      13.862  25.850  10.890  1.00  0.00     0.020 A 
HETATM    6  C   LIG     1      15.217  25.894  10.554  1.00  0.00     0.001 A 
HETATM    7  C   LIG     1      16.113  26.606  11.352  1.00  0.00     0.002 A 
HETATM    8  C   LIG     1      15.656  27.288  12.480  1.00  0.00     0.030 A 
BRANCH   4   9
HETATM    9  C   LIG     1      11.956  26.388  12.401  1.00  0.00     0.178 C 
HETATM   10  O   LIG     1      11.327  25.334  12.116  1.00  0.00    -0.646 OA
BRANCH   9  11
HETATM   11  O   LIG     1      11.281  27.415  13.058  1.00  0.00    -0.773 OA
HETATM   12  H   LIG     1      10.279  27.537  12.971  1.00  0.00     0.167 HD
ENDBRANCH   9  11
ENDBRANCH   4   9
ENDBRANCH   1   3
BRANCH   1  13
HETATM   13  C   LIG     1      14.353  29.349  14.277  1.00  0.00     0.033 A 
HETATM   14  C   LIG     1      15.342  29.976  13.497  1.00  0.00     0.029 A 
HETATM   15  C   LIG     1      15.791  31.256  13.824  1.00  0.00     0.003 A 
HETATM   16  C   LIG     1      15.273  31.919  14.939  1.00  0.00     0.016 A 
HETATM   17  C   LIG     1      14.316  31.294  15.756  1.00  0.00     0.050 A 
HETATM   18  C   LIG     1      13.849  30.015  15.404  1.00  0.00     0.045 A 
BRANCH  17  19
HETATM   19  C   LIG     1      13.724  32.024  16.935  1.00  0.00     0.417 C 
HETATM   20  F   LIG     1      14.152  31.461  18.126  1.00  0.00    -0.166 F 
HETATM   21  F   LIG     1      12.342  31.965  16.902  1.00  0.00    -0.166 F 
HETATM   22  F   LIG     1      14.120  33.348  16.896  1.00  0.00    -0.166 F 
ENDBRANCH  17  19
ENDBRANCH   1  13
TORSDOF 5
ENDMDL
MODEL 12
REMARK VINA RESULT:      -6.7      8.663     11.313
REMARK  5 active torsions:
REMARK  status: ('A' for Active; 'I' for Inactive)
REMARK    1  A    between atoms: C_2  and  C_4 
REMARK    2  A    between atoms: C_2  and  O_3 
REMARK    3  A    between atoms: C_5  and  N_10 
REMARK    4  A    between atoms: N_10  and  C_11 
REMARK    5  A    between atoms: C_13  and  C_14 
ROOT
HETATM    1  N   LIG     1      18.273  33.742  13.836  1.00  0.00    -0.355 N 
HETATM    2  H   LIG     1      18.636  34.358  14.599  1.00  0.00     0.166 HD
ENDROOT
BRANCH   1   3
HETATM    3  C   LIG     1      18.826  33.920  12.523  1.00  0.00     0.049 A 
HETATM    4  C   LIG     1      18.247  34.808  11.580  1.00  0.00     0.064 A 
HETATM    5  C   LIG     1      18.869  34.977  10.330  1.00  0.00     0.020 A 
HETATM    6  C   LIG     1      20.028  34.266  10.010  1.00  0.00     0.001 A 
HETATM    7  C   LIG     1      20.575  33.371  10.929  1.00  0.00     0.002 A 
HETATM    8  C   LIG     1      19.975  33.194  12.177  1.00  0.00     0.030 A 
BRANCH   4   9
HETATM    9  C   LIG     1      16.972  35.513  11.853  1.00  0.00     0.178 C 
HETATM   10  O   LIG     1      16.829  36.172  12.918  1.00  0.00    -0.646 OA
BRANCH   9  11
HETATM   11  O   LIG     1      15.908  35.452  10.955  1.00  0.00    -0.773 OA
HETATM   12  H   LIG     1      15.054  34.952  11.171  1.00  0.00     0.167 HD
ENDBRANCH   9  11
ENDBRANCH   4   9
ENDBRANCH   1   3
BRANCH   1  13
HETATM   13  C   LIG     1      17.149  32.890  14.124  1.00  0.00     0.033 A 
HETATM   14  C   LIG     1      16.679  31.951  13.188  1.00  0.00     0.029 A 
HETATM   15  C   LIG     1      15.593  31.130  13.498  1.00  0.00     0.003 A 
HETATM   16  C   LIG     1      14.953  31.248  14.733  1.00  0.00     0.016 A 
HETATM   17  C   LIG     1      15.379  32.210  15.665  1.00  0.00     0.050 A 
HETATM   18  C   LIG     1      16.491  33.014  15.357  1.00  0.00     0.045 A 
BRANCH  17  19
HETATM   19  C   LIG     1      14.717  32.309  17.017  1.00  0.00     0.417 C 
HETATM   20  F   LIG     1      14.070  31.127  17.334  1.00  0.00    -0.166 F 
HETATM   21  F   LIG     1      13.784  33.330  17.029  1.00  0.00    -0.166 F 
HETATM   22  F   LIG     1      15.679  32.567  17.976  1.00  0.00    -0.166 F 
ENDBRANCH  17  19
ENDBRANCH   1  13
TORSDOF 5
ENDMDL
MODEL 13
REMARK VINA RESULT:      -6.3      3.217      5.824
REMARK  5 active torsions:
REMARK  status: ('A' for Active; 'I' for Inactive)
REMARK    1  A    between atoms: C_2  and  C_4 
REMARK    2  A    between atoms: C_2  and  O_3 
REMARK    3  A    between atoms: C_5  and  N_10 
REMARK    4  A    between atoms: N_10  and  C_11 
REMARK    5  A    between atoms: C_13  and  C_14 
ROOT
HETATM    1  N   LIG     1      16.690  38.282  22.769  1.00  0.00    -0.355 N 
HETATM    2  H   LIG     1      16.023  39.077  22.641  1.00  0.00     0.166 HD
ENDROOT
BRANCH   1   3
HETATM    3  C   LIG     1      17.047  37.524  21.603  1.00  0.00     0.049 A 
HETATM    4  C   LIG     1      18.185  37.844  20.819  1.00  0.00     0.064 A 
HETATM    5  C   LIG     1      18.509  37.027  19.721  1.00  0.00     0.020 A 
HETATM    6  C   LIG     1      17.711  35.930  19.390  1.00  0.00     0.001 A 
HETATM    7  C   LIG     1      16.575  35.638  20.145  1.00  0.00     0.002 A 
HETATM    8  C   LIG     1      16.241  36.434  21.242  1.00  0.00     0.030 A 
BRANCH   4   9
HETATM    9  C   LIG     1      19.005  39.048  21.090  1.00  0.00     0.178 C 
HETATM   10  O   LIG     1      19.447  39.265  22.251  1.00  0.00    -0.646 OA
BRANCH   9  11
HETATM   11  O   LIG     1      19.291  39.967  20.082  1.00  0.00    -0.773 OA
HETATM   12  H   LIG     1      19.926  39.748  19.324  1.00  0.00     0.167 HD
ENDBRANCH   9  11
ENDBRANCH   4   9
ENDBRANCH   1   3
BRANCH   1  13
HETATM   13  C   LIG     1      17.062  37.914  24.110  1.00  0.00     0.033 A 
HETATM   14  C   LIG     1      17.210  38.878  25.123  1.00  0.00     0.029 A 
HETATM   15  C   LIG     1      17.562  38.491  26.418  1.00  0.00     0.003 A 
HETATM   16  C   LIG     1      17.786  37.145  26.712  1.00  0.00     0.016 A 
HETATM   17  C   LIG     1      17.686  36.171  25.705  1.00  0.00     0.050 A 
HETATM   18  C   LIG     1      17.304  36.565  24.410  1.00  0.00     0.045 A 
BRANCH  17  19
HETATM   19  C   LIG     1      17.885  34.712  26.030  1.00  0.00     0.417 C 
HETATM   20  F   LIG     1      18.974  34.540  26.869  1.00  0.00    -0.166 F 
HETATM   21  F   LIG     1      18.109  33.981  24.877  1.00  0.00    -0.166 F 
HETATM   22  F   LIG     1      16.753  34.227  26.658  1.00  0.00    -0.166 F 
ENDBRANCH  17  19
ENDBRANCH   1  13
TORSDOF 5
ENDMDL
MODEL 14
REMARK VINA RESULT:      -6.2      8.837     10.416
REMARK  5 active torsions:
REMARK  status: ('A' for Active; 'I' for Inactive)
REMARK    1  A    between atoms: C_2  and  C_4 
REMARK    2  A    between atoms: C_2  and  O_3 
REMARK    3  A    between atoms: C_5  and  N_10 
REMARK    4  A    between atoms: N_10  and  C_11 
REMARK    5  A    between atoms: C_13  and  C_14 
ROOT
HETATM    1  N   LIG     1      17.549  32.584  15.127  1.00  0.00    -0.355 N 
HETATM    2  H   LIG     1      18.275  31.991  15.589  1.00  0.00     0.166 HD
ENDROOT
BRANCH   1   3
HETATM    3  C   LIG     1      16.202  32.481  15.615  1.00  0.00     0.049 A 
HETATM    4  C   LIG     1      15.336  31.433  15.211  1.00  0.00     0.064 A 
HETATM    5  C   LIG     1      14.047  31.359  15.769  1.00  0.00     0.020 A 
HETATM    6  C   LIG     1      13.615  32.317  16.689  1.00  0.00     0.001 A 
HETATM    7  C   LIG     1      14.458  33.364  17.058  1.00  0.00     0.002 A 
HETATM    8  C   LIG     1      15.743  33.450  16.520  1.00  0.00     0.030 A 
BRANCH   4   9
HETATM    9  C   LIG     1      15.732  30.450  14.175  1.00  0.00     0.178 C 
HETATM   10  O   LIG     1      15.942  30.829  12.991  1.00  0.00    -0.646 OA
BRANCH   9  11
HETATM   11  O   LIG     1      15.864  29.096  14.478  1.00  0.00    -0.773 OA
HETATM   12  H   LIG     1      15.731  28.376  13.778  1.00  0.00     0.167 HD
ENDBRANCH   9  11
ENDBRANCH   4   9
ENDBRANCH   1   3
BRANCH   1  13
HETATM   13  C   LIG     1      17.920  33.321  13.947  1.00  0.00     0.033 A 
HETATM   14  C   LIG     1      16.965  34.013  13.181  1.00  0.00     0.029 A 
HETATM   15  C   LIG     1      17.355  34.729  12.047  1.00  0.00     0.003 A 
HETATM   16  C   LIG     1      18.695  34.749  11.656  1.00  0.00     0.016 A 
HETATM   17  C   LIG     1      19.658  34.030  12.383  1.00  0.00     0.050 A 
HETATM   18  C   LIG     1      19.262  33.334  13.539  1.00  0.00     0.045 A 
BRANCH  17  19
HETATM   19  C   LIG     1      21.113  34.086  11.987  1.00  0.00     0.417 C 
HETATM   20  F   LIG     1      21.923  34.167  13.108  1.00  0.00    -0.166 F 
HETATM   21  F   LIG     1      21.360  35.193  11.195  1.00  0.00    -0.166 F 
HETATM   22  F   LIG     1      21.436  32.944  11.280  1.00  0.00    -0.166 F 
ENDBRANCH  17  19
ENDBRANCH   1  13
TORSDOF 5
ENDMDL
MODEL 15
REMARK VINA RESULT:      -6.2      9.784     12.519
REMARK  5 active torsions:
REMARK  status: ('A' for Active; 'I' for Inactive)
REMARK    1  A    between atoms: C_2  and  C_4 
REMARK    2  A    between atoms: C_2  and  O_3 
REMARK    3  A    between atoms: C_5  and  N_10 
REMARK    4  A    between atoms: N_10  and  C_11 
REMARK    5  A    between atoms: C_13  and  C_14 
ROOT
HETATM    1  N   LIG     1      13.027  29.239  14.588  1.00  0.00    -0.355 N 
HETATM    2  H   LIG     1      12.015  29.031  14.744  1.00  0.00     0.166 HD
ENDROOT
BRANCH   1   3
HETATM    3  C   LIG     1      13.777  28.309  13.792  1.00  0.00     0.049 A 
HETATM    4  C   LIG     1      13.143  27.342  12.971  1.00  0.00     0.064 A 
HETATM    5  C   LIG     1      13.937  26.496  12.175  1.00  0.00     0.020 A 
HETATM    6  C   LIG     1      15.330  26.590  12.208  1.00  0.00     0.001 A 
HETATM    7  C   LIG     1      15.949  27.521  13.041  1.00  0.00     0.002 A 
HETATM    8  C   LIG     1      15.178  28.372  13.834  1.00  0.00     0.030 A 
BRANCH   4   9
HETATM    9  C   LIG     1      11.673  27.158  12.975  1.00  0.00     0.178 C 
HETATM   10  O   LIG     1      11.180  26.002  13.066  1.00  0.00    -0.646 OA
BRANCH   9  11
HETATM   11  O   LIG     1      10.810  28.248  12.866  1.00  0.00    -0.773 OA
HETATM   12  H   LIG     1      10.232  28.391  12.047  1.00  0.00     0.167 HD
ENDBRANCH   9  11
ENDBRANCH   4   9
ENDBRANCH   1   3
BRANCH   1  13
HETATM   13  C   LIG     1      13.616  30.337  15.308  1.00  0.00     0.033 A 
HETATM   14  C   LIG     1      13.044  30.832  16.494  1.00  0.00     0.029 A 
HETATM   15  C   LIG     1      13.644  31.891  17.177  1.00  0.00     0.003 A 
HETATM   16  C   LIG     1      14.807  32.480  16.679  1.00  0.00     0.016 A 
HETATM   17  C   LIG     1      15.372  32.030  15.474  1.00  0.00     0.050 A 
HETATM   18  C   LIG     1      14.778  30.944  14.805  1.00  0.00     0.045 A 
BRANCH  17  19
HETATM   19  C   LIG     1      16.653  32.635  14.956  1.00  0.00     0.417 C 
HETATM   20  F   LIG     1      16.699  32.576  13.574  1.00  0.00    -0.166 F 
HETATM   21  F   LIG     1      17.749  31.955  15.455  1.00  0.00    -0.166 F 
HETATM   22  F   LIG     1      16.724  33.957  15.353  1.00  0.00    -0.166 F 
ENDBRANCH  17  19
ENDBRANCH   1  13
TORSDOF 5
ENDMDL
MODEL 16
REMARK VINA RESULT:      -6.1     10.772     13.080
REMARK  5 active torsions:
REMARK  status: ('A' for Active; 'I' for Inactive)
REMARK    1  A    between atoms: C_2  and  C_4 
REMARK    2  A    between atoms: C_2  and  O_3 
REMARK    3  A    between atoms: C_5  and  N_10 
REMARK    4  A    between atoms: N_10  and  C_11 
REMARK    5  A    between atoms: C_13  and  C_14 
ROOT
HETATM    1  N   LIG     1      13.841  29.184  14.689  1.00  0.00    -0.355 N 
HETATM    2  H   LIG     1      13.023  29.088  15.333  1.00  0.00     0.166 HD
ENDROOT
BRANCH   1   3
HETATM    3  C   LIG     1      14.583  30.412  14.740  1.00  0.00     0.049 A 
HETATM    4  C   LIG     1      14.544  31.265  15.873  1.00  0.00     0.064 A 
HETATM    5  C   LIG     1      15.337  32.426  15.880  1.00  0.00     0.020 A 
HETATM    6  C   LIG     1      16.136  32.750  14.781  1.00  0.00     0.001 A 
HETATM    7  C   LIG     1      16.145  31.924  13.657  1.00  0.00     0.002 A 
HETATM    8  C   LIG     1      15.369  30.765  13.633  1.00  0.00     0.030 A 
BRANCH   4   9
HETATM    9  C   LIG     1      13.645  30.997  17.021  1.00  0.00     0.178 C 
HETATM   10  O   LIG     1      14.021  31.265  18.194  1.00  0.00    -0.646 OA
BRANCH   9  11
HETATM   11  O   LIG     1      12.383  30.437  16.832  1.00  0.00    -0.773 OA
HETATM   12  H   LIG     1      12.140  29.942  15.982  1.00  0.00     0.167 HD
ENDBRANCH   9  11
ENDBRANCH   4   9
ENDBRANCH   1   3
BRANCH   1  13
HETATM   13  C   LIG     1      14.054  28.159  13.701  1.00  0.00     0.033 A 
HETATM   14  C   LIG     1      15.338  27.869  13.206  1.00  0.00     0.029 A 
HETATM   15  C   LIG     1      15.517  26.863  12.256  1.00  0.00     0.003 A 
HETATM   16  C   LIG     1      14.419  26.146  11.776  1.00  0.00     0.016 A 
HETATM   17  C   LIG     1      13.122  26.448  12.225  1.00  0.00     0.050 A 
HETATM   18  C   LIG     1      12.953  27.445  13.203  1.00  0.00     0.045 A 
BRANCH  17  19
HETATM   19  C   LIG     1      11.940  25.647  11.741  1.00  0.00     0.417 C 
HETATM   20  F   LIG     1      11.296  26.300  10.704  1.00  0.00    -0.166 F 
HETATM   21  F   LIG     1      11.028  25.457  12.764  1.00  0.00    -0.166 F 
HETATM   22  F   LIG     1      12.378  24.415  11.293  1.00  0.00    -0.166 F 
ENDBRANCH  17  19
ENDBRANCH   1  13
TORSDOF 5
ENDMDL
MODEL 17
REMARK VINA RESULT:      -6.1     11.024     13.839
REMARK  5 active torsions:
REMARK  status: ('A' for Active; 'I' for Inactive)
REMARK    1  A    between atoms: C_2  and  C_4 
REMARK    2  A    between atoms: C_2  and  O_3 
REMARK    3  A    between atoms: C_5  and  N_10 
REMARK    4  A    between atoms: N_10  and  C_11 
REMARK    5  A    between atoms: C_13  and  C_14 
ROOT
HETATM    1  N   LIG     1      15.032  27.736  13.796  1.00  0.00    -0.355 N 
HETATM    2  H   LIG     1      15.848  27.162  14.107  1.00  0.00     0.166 HD
ENDROOT
BRANCH   1   3
HETATM    3  C   LIG     1      14.048  27.092  12.972  1.00  0.00     0.049 A 
HETATM    4  C   LIG     1      14.391  26.451  11.754  1.00  0.00     0.064 A 
HETATM    5  C   LIG     1      13.387  25.793  11.022  1.00  0.00     0.020 A 
HETATM    6  C   LIG     1      12.065  25.787  11.474  1.00  0.00     0.001 A 
HETATM    7  C   LIG     1      11.727  26.446  12.655  1.00  0.00     0.002 A 
HETATM    8  C   LIG     1      12.711  27.100  13.398  1.00  0.00     0.030 A 
BRANCH   4   9
HETATM    9  C   LIG     1      15.766  26.510  11.203  1.00  0.00     0.178 C 
HETATM   10  O   LIG     1      15.953  26.854  10.005  1.00  0.00    -0.646 OA
BRANCH   9  11
HETATM   11  O   LIG     1      16.870  26.175  11.984  1.00  0.00    -0.773 OA
HETATM   12  H   LIG     1      17.747  25.878  11.571  1.00  0.00     0.167 HD
ENDBRANCH   9  11
ENDBRANCH   4   9
ENDBRANCH   1   3
BRANCH   1  13
HETATM   13  C   LIG     1      15.045  29.148  14.075  1.00  0.00     0.033 A 
HETATM   14  C   LIG     1      15.746  30.053  13.257  1.00  0.00     0.029 A 
HETATM   15  C   LIG     1      15.732  31.419  13.546  1.00  0.00     0.003 A 
HETATM   16  C   LIG     1      15.036  31.895  14.659  1.00  0.00     0.016 A 
HETATM   17  C   LIG     1      14.365  31.003  15.512  1.00  0.00     0.050 A 
HETATM   18  C   LIG     1      14.361  29.632  15.200  1.00  0.00     0.045 A 
BRANCH  17  19
HETATM   19  C   LIG     1      13.577  31.520  16.690  1.00  0.00     0.417 C 
HETATM   20  F   LIG     1      12.243  31.165  16.580  1.00  0.00    -0.166 F 
HETATM   21  F   LIG     1      13.653  32.899  16.760  1.00  0.00    -0.166 F 
HETATM   22  F   LIG     1      14.092  30.980  17.854  1.00  0.00    -0.166 F 
ENDBRANCH  17  19
ENDBRANCH   1  13
TORSDOF 5
ENDMDL
MODEL 18
REMARK VINA RESULT:      -6.1     11.188     14.004
REMARK  5 active torsions:
REMARK  status: ('A' for Active; 'I' for Inactive)
REMARK    1  A    between atoms: C_2  and  C_4 
REMARK    2  A    between atoms: C_2  and  O_3 
REMARK    3  A    between atoms: C_5  and  N_10 
REMARK    4  A    between atoms: N_10  and  C_11 
REMARK    5  A    between atoms: C_13  and  C_14 
ROOT
HETATM    1  N   LIG     1      14.748  27.699  13.273  1.00  0.00    -0.355 N 
HETATM    2  H   LIG     1      15.739  27.418  13.097  1.00  0.00     0.166 HD
ENDROOT
BRANCH   1   3
HETATM    3  C   LIG     1      13.719  26.935  12.626  1.00  0.00     0.049 A 
HETATM    4  C   LIG     1      13.974  26.173  11.457  1.00  0.00     0.064 A 
HETATM    5  C   LIG     1      12.935  25.404  10.903  1.00  0.00     0.020 A 
HETATM    6  C   LIG     1      11.663  25.407  11.480  1.00  0.00     0.001 A 
HETATM    7  C   LIG     1      11.409  26.183  12.610  1.00  0.00     0.002 A 
HETATM    8  C   LIG     1      12.429  26.948  13.177  1.00  0.00     0.030 A 
BRANCH   4   9
HETATM    9  C   LIG     1      15.287  26.213  10.771  1.00  0.00     0.178 C 
HETATM   10  O   LIG     1      15.637  25.263  10.019  1.00  0.00    -0.646 OA
BRANCH   9  11
HETATM   11  O   LIG     1      16.162  27.282  10.950  1.00  0.00    -0.773 OA
HETATM   12  H   LIG     1      16.794  27.584  10.218  1.00  0.00     0.167 HD
ENDBRANCH   9  11
ENDBRANCH   4   9
ENDBRANCH   1   3
BRANCH   1  13
HETATM   13  C   LIG     1      14.504  28.912  14.009  1.00  0.00     0.033 A 
HETATM   14  C   LIG     1      13.294  29.125  14.695  1.00  0.00     0.029 A 
HETATM   15  C   LIG     1      13.088  30.307  15.409  1.00  0.00     0.003 A 
HETATM   16  C   LIG     1      14.075  31.294  15.433  1.00  0.00     0.016 A 
HETATM   17  C   LIG     1      15.273  31.119  14.720  1.00  0.00     0.050 A 
HETATM   18  C   LIG     1      15.485  29.915  14.026  1.00  0.00     0.045 A 
BRANCH  17  19
HETATM   19  C   LIG     1      16.359  32.165  14.781  1.00  0.00     0.417 C 
HETATM   20  F   LIG     1      17.466  31.683  15.458  1.00  0.00    -0.166 F 
HETATM   21  F   LIG     1      15.909  33.296  15.438  1.00  0.00    -0.166 F 
HETATM   22  F   LIG     1      16.732  32.508  13.495  1.00  0.00    -0.166 F 
ENDBRANCH  17  19
ENDBRANCH   1  13
TORSDOF 5
ENDMDL
MODEL 19
REMARK VINA RESULT:      -6.1      3.758      4.889
REMARK  5 active torsions:
REMARK  status: ('A' for Active; 'I' for Inactive)
REMARK    1  A    between atoms: C_2  and  C_4 
REMARK    2  A    between atoms: C_2  and  O_3 
REMARK    3  A    between atoms: C_5  and  N_10 
REMARK    4  A    between atoms: N_10  and  C_11 
REMARK    5  A    between atoms: C_13  and  C_14 
ROOT
HETATM    1  N   LIG     1      17.021  36.153  20.149  1.00  0.00    -0.355 N 
HETATM    2  H   LIG     1      17.616  36.370  19.318  1.00  0.00     0.166 HD
ENDROOT
BRANCH   1   3
HETATM    3  C   LIG     1      17.188  36.975  21.315  1.00  0.00     0.049 A 
HETATM    4  C   LIG     1      18.048  38.103  21.319  1.00  0.00     0.064 A 
HETATM    5  C   LIG     1      18.125  38.898  22.477  1.00  0.00     0.020 A 
HETATM    6  C   LIG     1      17.384  38.571  23.615  1.00  0.00     0.001 A 
HETATM    7  C   LIG     1      16.565  37.442  23.616  1.00  0.00     0.002 A 
HETATM    8  C   LIG     1      16.472  36.645  22.474  1.00  0.00     0.030 A 
BRANCH   4   9
HETATM    9  C   LIG     1      18.912  38.431  20.160  1.00  0.00     0.178 C 
HETATM   10  O   LIG     1      19.014  39.623  19.765  1.00  0.00    -0.646 OA
BRANCH   9  11
HETATM   11  O   LIG     1      19.612  37.437  19.480  1.00  0.00    -0.773 OA
HETATM   12  H   LIG     1      19.264  36.488  19.413  1.00  0.00     0.167 HD
ENDBRANCH   9  11
ENDBRANCH   4   9
ENDBRANCH   1   3
BRANCH   1  13
HETATM   13  C   LIG     1      16.214  34.961  20.118  1.00  0.00     0.033 A 
HETATM   14  C   LIG     1      15.726  34.372  21.298  1.00  0.00     0.029 A 
HETATM   15  C   LIG     1      14.936  33.222  21.237  1.00  0.00     0.003 A 
HETATM   16  C   LIG     1      14.639  32.638  20.004  1.00  0.00     0.016 A 
HETATM   17  C   LIG     1      15.152  33.186  18.816  1.00  0.00     0.050 A 
HETATM   18  C   LIG     1      15.924  34.360  18.884  1.00  0.00     0.045 A 
BRANCH  17  19
HETATM   19  C   LIG     1      14.797  32.583  17.480  1.00  0.00     0.417 C 
HETATM   20  F   LIG     1      13.983  33.438  16.757  1.00  0.00    -0.166 F 
HETATM   21  F   LIG     1      14.125  31.386  17.649  1.00  0.00    -0.166 F 
HETATM   22  F   LIG     1      15.956  32.352  16.763  1.00  0.00    -0.166 F 
ENDBRANCH  17  19
ENDBRANCH   1  13
TORSDOF 5
ENDMDL
MODEL 20
REMARK VINA RESULT:      -5.9      8.917     11.288
REMARK  5 active torsions:
REMARK  status: ('A' for Active; 'I' for Inactive)
REMARK    1  A    between atoms: C_2  and  C_4 
REMARK    2  A    between atoms: C_2  and  O_3 
REMARK    3  A    between atoms: C_5  and  N_10 
REMARK    4  A    between atoms: N_10  and  C_11 
REMARK    5  A    between atoms: C_13  and  C_14 
ROOT
HETATM    1  N   LIG     1      18.260  33.788  13.938  1.00  0.00    -0.355 N 
HETATM    2  H   LIG     1      18.746  34.207  14.762  1.00  0.00     0.166 HD
ENDROOT
BRANCH   1   3
HETATM    3  C   LIG     1      18.637  34.263  12.636  1.00  0.00     0.049 A 
HETATM    4  C   LIG     1      19.967  34.154  12.154  1.00  0.00     0.064 A 
HETATM    5  C   LIG     1      20.258  34.589  10.849  1.00  0.00     0.020 A 
HETATM    6  C   LIG     1      19.259  35.143  10.044  1.00  0.00     0.001 A 
HETATM    7  C   LIG     1      17.960  35.277  10.535  1.00  0.00     0.002 A 
HETATM    8  C   LIG     1      17.651  34.845  11.826  1.00  0.00     0.030 A 
BRANCH   4   9
HETATM    9  C   LIG     1      21.068  33.651  13.009  1.00  0.00     0.178 C 
HETATM   10  O   LIG     1      20.943  32.556  13.623  1.00  0.00    -0.646 OA
BRANCH   9  11
HETATM   11  O   LIG     1      22.248  34.375  13.165  1.00  0.00    -0.773 OA
HETATM   12  H   LIG     1      22.491  34.819  14.043  1.00  0.00     0.167 HD
ENDBRANCH   9  11
ENDBRANCH   4   9
ENDBRANCH   1   3
BRANCH   1  13
HETATM   13  C   LIG     1      17.152  32.902  14.178  1.00  0.00     0.033 A 
HETATM   14  C   LIG     1      16.722  31.981  13.205  1.00  0.00     0.029 A 
HETATM   15  C   LIG     1      15.650  31.126  13.469  1.00  0.00     0.003 A 
HETATM   16  C   LIG     1      14.986  31.189  14.695  1.00  0.00     0.016 A 
HETATM   17  C   LIG     1      15.372  32.131  15.664  1.00  0.00     0.050 A 
HETATM   18  C   LIG     1      16.470  32.970  15.402  1.00  0.00     0.045 A 
BRANCH  17  19
HETATM   19  C   LIG     1      14.684  32.172  17.006  1.00  0.00     0.417 C 
HETATM   20  F   LIG     1      14.003  30.990  17.245  1.00  0.00    -0.166 F 
HETATM   21  F   LIG     1      13.774  33.212  17.056  1.00  0.00    -0.166 F 
HETATM   22  F   LIG     1      15.631  32.353  17.997  1.00  0.00    -0.166 F 
ENDBRANCH  17  19
ENDBRANCH   1  13
TORSDOF 5
ENDMDL
