REMARK  5 active torsions:
REMARK  status: ('A' for Active; 'I' for Inactive)
REMARK    1  A    between atoms: C_2  and  C_4 
REMARK    2  A    between atoms: C_2  and  O_3 
REMARK    3  A    between atoms: C_5  and  N_10 
REMARK    4  A    between atoms: N_10  and  C_11 
REMARK    5  A    between atoms: C_13  and  C_14 
ROOT
HETATM    1  N   LIG     1      -0.232  -0.735  -1.121  1.00  0.00    -0.355 N 
HETATM    2  H   LIG     1      -0.058  -1.452  -1.861  1.00  0.00     0.166 HD
ENDROOT
BRANCH   1   3
HETATM    3  C   LIG     1      -1.567  -0.221  -0.999  1.00  0.00     0.049 A 
HETATM    4  C   LIG     1      -2.244  -0.180   0.247  1.00  0.00     0.064 A 
HETATM    5  C   LIG     1      -3.530   0.386   0.307  1.00  0.00     0.020 A 
HETATM    6  C   LIG     1      -4.144   0.881  -0.846  1.00  0.00     0.001 A 
HETATM    7  C   LIG     1      -3.487   0.809  -2.074  1.00  0.00     0.002 A 
HETATM    8  C   LIG     1      -2.208   0.256  -2.152  1.00  0.00     0.030 A 
BRANCH   4   9
HETATM    9  C   LIG     1      -1.658  -0.772   1.473  1.00  0.00     0.178 C 
HETATM   10  O   LIG     1      -0.957  -1.817   1.398  1.00  0.00    -0.646 OA
BRANCH   9  11
HETATM   11  O   LIG     1      -1.878  -0.201   2.725  1.00  0.00    -0.773 OA
HETATM   12  H   LIG     1      -2.377   0.674   2.833  1.00  0.00     0.167 HD
ENDBRANCH   9  11
ENDBRANCH   4   9
ENDBRANCH   1   3
BRANCH   1  13
HETATM   13  C   LIG     1       0.899  -0.207  -0.404  1.00  0.00     0.033 A 
HETATM   14  C   LIG     1       0.841   1.038   0.248  1.00  0.00     0.029 A 
HETATM   15  C   LIG     1       1.950   1.521   0.945  1.00  0.00     0.003 A 
HETATM   16  C   LIG     1       3.132   0.779   0.986  1.00  0.00     0.016 A 
HETATM   17  C   LIG     1       3.225  -0.447   0.306  1.00  0.00     0.050 A 
HETATM   18  C   LIG     1       2.095  -0.940  -0.371  1.00  0.00     0.045 A 
BRANCH  17  19
HETATM   19  C   LIG     1       4.486  -1.271   0.385  1.00  0.00     0.417 C 
HETATM   20  F   LIG     1       5.596  -0.456   0.529  1.00  0.00    -0.166 F 
HETATM   21  F   LIG     1       4.649  -2.024  -0.764  1.00  0.00    -0.166 F 
HETATM   22  F   LIG     1       4.407  -2.120   1.473  1.00  0.00    -0.166 F 
ENDBRANCH  17  19
ENDBRANCH   1  13
TORSDOF 5
