MODEL 1
REMARK VINA RESULT:      -6.5      0.000      0.000
REMARK  1 active torsions:
REMARK  status: ('A' for Active; 'I' for Inactive)
REMARK       I    between atoms: C_2  and  N_3 
REMARK    1  A    between atoms: N_3  and  C_4 
ROOT
HETATM    1  C   LIG     1      16.908  36.068  23.701  1.00  0.00     0.056 A 
HETATM    2  C   LIG     1      17.264  35.037  24.589  1.00  0.00     0.031 A 
HETATM    3  C   LIG     1      17.979  35.322  25.756  1.00  0.00     0.002 A 
HETATM    4  C   LIG     1      18.338  36.636  26.053  1.00  0.00     0.002 A 
HETATM    5  C   LIG     1      17.978  37.672  25.189  1.00  0.00     0.026 A 
HETATM    6  C   LIG     1      17.259  37.397  24.018  1.00  0.00     0.060 A 
HETATM    7 CL   LIG     1      16.848  38.733  22.950  1.00  0.00    -0.082 Cl
ENDROOT
BRANCH   1   8
HETATM    8  N   LIG     1      16.145  35.782  22.515  1.00  0.00    -0.326 N 
HETATM    9  C   LIG     1      16.724  35.692  21.203  1.00  0.00     0.218 C 
HETATM   10  C   LIG     1      15.912  35.196  20.050  1.00  0.00     0.117 C 
HETATM   11  O   LIG     1      17.913  36.059  21.000  1.00  0.00    -0.274 OA
HETATM   12  H   LIG     1      15.108  35.692  22.600  1.00  0.00     0.169 HD
ENDBRANCH   1   8
TORSDOF 1
ENDMDL
MODEL 2
REMARK VINA RESULT:      -6.4      3.180      3.945
REMARK  1 active torsions:
REMARK  status: ('A' for Active; 'I' for Inactive)
REMARK       I    between atoms: C_2  and  N_3 
REMARK    1  A    between atoms: N_3  and  C_4 
ROOT
HETATM    1  C   LIG     1      17.796  37.113  20.881  1.00  0.00     0.056 A 
HETATM    2  C   LIG     1      18.743  36.744  19.909  1.00  0.00     0.031 A 
HETATM    3  C   LIG     1      19.686  37.669  19.452  1.00  0.00     0.002 A 
HETATM    4  C   LIG     1      19.700  38.966  19.965  1.00  0.00     0.002 A 
HETATM    5  C   LIG     1      18.776  39.341  20.942  1.00  0.00     0.026 A 
HETATM    6  C   LIG     1      17.828  38.421  21.408  1.00  0.00     0.060 A 
HETATM    7 CL   LIG     1      16.671  38.948  22.624  1.00  0.00    -0.082 Cl
ENDROOT
BRANCH   1   8
HETATM    8  N   LIG     1      16.844  36.154  21.376  1.00  0.00    -0.326 N 
HETATM    9  C   LIG     1      16.154  35.216  20.534  1.00  0.00     0.218 C 
HETATM   10  C   LIG     1      15.333  34.120  21.136  1.00  0.00     0.117 C 
HETATM   11  O   LIG     1      16.205  35.322  19.279  1.00  0.00    -0.274 OA
HETATM   12  H   LIG     1      16.595  36.177  22.390  1.00  0.00     0.169 HD
ENDBRANCH   1   8
TORSDOF 1
ENDMDL
MODEL 3
REMARK VINA RESULT:      -6.3      2.408      2.982
REMARK  1 active torsions:
REMARK  status: ('A' for Active; 'I' for Inactive)
REMARK       I    between atoms: C_2  and  N_3 
REMARK    1  A    between atoms: N_3  and  C_4 
ROOT
HETATM    1  C   LIG     1      17.450  37.075  24.180  1.00  0.00     0.056 A 
HETATM    2  C   LIG     1      17.911  37.607  25.397  1.00  0.00     0.031 A 
HETATM    3  C   LIG     1      18.125  36.774  26.499  1.00  0.00     0.002 A 
HETATM    4  C   LIG     1      17.891  35.403  26.396  1.00  0.00     0.002 A 
HETATM    5  C   LIG     1      17.448  34.859  25.189  1.00  0.00     0.026 A 
HETATM    6  C   LIG     1      17.232  35.685  24.078  1.00  0.00     0.060 A 
HETATM    7 CL   LIG     1      16.653  34.955  22.586  1.00  0.00    -0.082 Cl
ENDROOT
BRANCH   1   8
HETATM    8  N   LIG     1      17.258  37.926  23.035  1.00  0.00    -0.326 N 
HETATM    9  C   LIG     1      18.293  38.754  22.481  1.00  0.00     0.218 C 
HETATM   10  C   LIG     1      18.085  39.457  21.179  1.00  0.00     0.117 C 
HETATM   11  O   LIG     1      19.378  38.925  23.101  1.00  0.00    -0.274 OA
HETATM   12  H   LIG     1      16.303  37.992  22.618  1.00  0.00     0.169 HD
ENDBRANCH   1   8
TORSDOF 1
ENDMDL
MODEL 4
REMARK VINA RESULT:      -6.2      3.066      4.996
REMARK  1 active torsions:
REMARK  status: ('A' for Active; 'I' for Inactive)
REMARK       I    between atoms: C_2  and  N_3 
REMARK    1  A    between atoms: N_3  and  C_4 
ROOT
HETATM    1  C   LIG     1      17.890  38.019  21.742  1.00  0.00     0.056 A 
HETATM    2  C   LIG     1      18.481  39.215  21.297  1.00  0.00     0.031 A 
HETATM    3  C   LIG     1      19.099  39.277  20.044  1.00  0.00     0.002 A 
HETATM    4  C   LIG     1      19.125  38.151  19.220  1.00  0.00     0.002 A 
HETATM    5  C   LIG     1      18.527  36.963  19.643  1.00  0.00     0.026 A 
HETATM    6  C   LIG     1      17.904  36.891  20.895  1.00  0.00     0.060 A 
HETATM    7 CL   LIG     1      17.184  35.364  21.391  1.00  0.00    -0.082 Cl
ENDROOT
BRANCH   1   8
HETATM    8  N   LIG     1      17.226  37.962  23.018  1.00  0.00    -0.326 N 
HETATM    9  C   LIG     1      17.903  38.147  24.271  1.00  0.00     0.218 C 
HETATM   10  C   LIG     1      17.124  38.274  25.541  1.00  0.00     0.117 C 
HETATM   11  O   LIG     1      19.163  38.174  24.323  1.00  0.00    -0.274 OA
HETATM   12  H   LIG     1      16.212  37.715  23.040  1.00  0.00     0.169 HD
ENDBRANCH   1   8
TORSDOF 1
ENDMDL
MODEL 5
REMARK VINA RESULT:      -6.1      2.139      2.801
REMARK  1 active torsions:
REMARK  status: ('A' for Active; 'I' for Inactive)
REMARK       I    between atoms: C_2  and  N_3 
REMARK    1  A    between atoms: N_3  and  C_4 
ROOT
HETATM    1  C   LIG     1      17.039  36.299  22.618  1.00  0.00     0.056 A 
HETATM    2  C   LIG     1      17.048  37.545  21.966  1.00  0.00     0.031 A 
HETATM    3  C   LIG     1      17.199  38.727  22.697  1.00  0.00     0.002 A 
HETATM    4  C   LIG     1      17.352  38.678  24.083  1.00  0.00     0.002 A 
HETATM    5  C   LIG     1      17.362  37.447  24.741  1.00  0.00     0.026 A 
HETATM    6  C   LIG     1      17.213  36.257  24.018  1.00  0.00     0.060 A 
HETATM    7 CL   LIG     1      17.210  34.733  24.896  1.00  0.00    -0.082 Cl
ENDROOT
BRANCH   1   8
HETATM    8  N   LIG     1      16.915  35.079  21.865  1.00  0.00    -0.326 N 
HETATM    9  C   LIG     1      15.672  34.609  21.318  1.00  0.00     0.218 C 
HETATM   10  C   LIG     1      15.650  33.445  20.380  1.00  0.00     0.117 C 
HETATM   11  O   LIG     1      14.582  35.151  21.645  1.00  0.00    -0.274 OA
HETATM   12  H   LIG     1      17.758  34.472  21.758  1.00  0.00     0.169 HD
ENDBRANCH   1   8
TORSDOF 1
ENDMDL
MODEL 6
REMARK VINA RESULT:      -6.0      6.259      9.424
REMARK  1 active torsions:
REMARK  status: ('A' for Active; 'I' for Inactive)
REMARK       I    between atoms: C_2  and  N_3 
REMARK    1  A    between atoms: N_3  and  C_4 
ROOT
HETATM    1  C   LIG     1      14.456  31.931  16.639  1.00  0.00     0.056 A 
HETATM    2  C   LIG     1      13.222  31.257  16.620  1.00  0.00     0.031 A 
HETATM    3  C   LIG     1      12.911  30.375  15.581  1.00  0.00     0.002 A 
HETATM    4  C   LIG     1      13.831  30.149  14.557  1.00  0.00     0.002 A 
HETATM    5  C   LIG     1      15.066  30.799  14.571  1.00  0.00     0.026 A 
HETATM    6  C   LIG     1      15.388  31.684  15.608  1.00  0.00     0.060 A 
HETATM    7 CL   LIG     1      16.948  32.495  15.570  1.00  0.00    -0.082 Cl
ENDROOT
BRANCH   1   8
HETATM    8  N   LIG     1      14.790  32.816  17.723  1.00  0.00    -0.326 N 
HETATM    9  C   LIG     1      14.941  32.380  19.084  1.00  0.00     0.218 C 
HETATM   10  C   LIG     1      15.483  33.310  20.121  1.00  0.00     0.117 C 
HETATM   11  O   LIG     1      14.589  31.219  19.428  1.00  0.00    -0.274 OA
HETATM   12  H   LIG     1      14.871  33.838  17.525  1.00  0.00     0.169 HD
ENDBRANCH   1   8
TORSDOF 1
ENDMDL
MODEL 7
REMARK VINA RESULT:      -5.8      9.205     10.241
REMARK  1 active torsions:
REMARK  status: ('A' for Active; 'I' for Inactive)
REMARK       I    between atoms: C_2  and  N_3 
REMARK    1  A    between atoms: N_3  and  C_4 
ROOT
HETATM    1  C   LIG     1      15.385  31.760  15.552  1.00  0.00     0.056 A 
HETATM    2  C   LIG     1      14.722  32.410  16.609  1.00  0.00     0.031 A 
HETATM    3  C   LIG     1      13.431  32.023  16.981  1.00  0.00     0.002 A 
HETATM    4  C   LIG     1      12.793  30.979  16.310  1.00  0.00     0.002 A 
HETATM    5  C   LIG     1      13.446  30.315  15.270  1.00  0.00     0.026 A 
HETATM    6  C   LIG     1      14.740  30.694  14.891  1.00  0.00     0.060 A 
HETATM    7 CL   LIG     1      15.512  29.841  13.559  1.00  0.00    -0.082 Cl
ENDROOT
BRANCH   1   8
HETATM    8  N   LIG     1      16.726  32.137  15.188  1.00  0.00    -0.326 N 
HETATM    9  C   LIG     1      17.037  32.948  14.044  1.00  0.00     0.218 C 
HETATM   10  C   LIG     1      18.425  33.466  13.838  1.00  0.00     0.117 C 
HETATM   11  O   LIG     1      16.154  33.209  13.182  1.00  0.00    -0.274 OA
HETATM   12  H   LIG     1      17.519  31.754  15.747  1.00  0.00     0.169 HD
ENDBRANCH   1   8
TORSDOF 1
ENDMDL
MODEL 8
REMARK VINA RESULT:      -5.6      8.714      9.733
REMARK  1 active torsions:
REMARK  status: ('A' for Active; 'I' for Inactive)
REMARK       I    between atoms: C_2  and  N_3 
REMARK    1  A    between atoms: N_3  and  C_4 
ROOT
HETATM    1  C   LIG     1      15.431  31.757  15.548  1.00  0.00     0.056 A 
HETATM    2  C   LIG     1      14.904  30.647  14.864  1.00  0.00     0.031 A 
HETATM    3  C   LIG     1      13.621  30.176  15.159  1.00  0.00     0.002 A 
HETATM    4  C   LIG     1      12.849  30.812  16.132  1.00  0.00     0.002 A 
HETATM    5  C   LIG     1      13.354  31.924  16.807  1.00  0.00     0.026 A 
HETATM    6  C   LIG     1      14.637  32.405  16.517  1.00  0.00     0.060 A 
HETATM    7 CL   LIG     1      15.236  33.797  17.411  1.00  0.00    -0.082 Cl
ENDROOT
BRANCH   1   8
HETATM    8  N   LIG     1      16.739  32.263  15.224  1.00  0.00    -0.326 N 
HETATM    9  C   LIG     1      17.023  33.023  14.039  1.00  0.00     0.218 C 
HETATM   10  C   LIG     1      18.352  33.685  13.864  1.00  0.00     0.117 C 
HETATM   11  O   LIG     1      16.168  33.117  13.116  1.00  0.00    -0.274 OA
HETATM   12  H   LIG     1      17.537  32.016  15.850  1.00  0.00     0.169 HD
ENDBRANCH   1   8
TORSDOF 1
ENDMDL
MODEL 9
REMARK VINA RESULT:      -5.5      1.918      4.120
REMARK  1 active torsions:
REMARK  status: ('A' for Active; 'I' for Inactive)
REMARK       I    between atoms: C_2  and  N_3 
REMARK    1  A    between atoms: N_3  and  C_4 
ROOT
HETATM    1  C   LIG     1      17.157  36.471  23.153  1.00  0.00     0.056 A 
HETATM    2  C   LIG     1      16.578  35.230  22.832  1.00  0.00     0.031 A 
HETATM    3  C   LIG     1      16.410  34.851  21.496  1.00  0.00     0.002 A 
HETATM    4  C   LIG     1      16.825  35.700  20.470  1.00  0.00     0.002 A 
HETATM    5  C   LIG     1      17.416  36.928  20.775  1.00  0.00     0.026 A 
HETATM    6  C   LIG     1      17.590  37.316  22.110  1.00  0.00     0.060 A 
HETATM    7 CL   LIG     1      18.320  38.882  22.443  1.00  0.00    -0.082 Cl
ENDROOT
BRANCH   1   8
HETATM    8  N   LIG     1      17.359  36.850  24.527  1.00  0.00    -0.326 N 
HETATM    9  C   LIG     1      17.776  35.931  25.549  1.00  0.00     0.218 C 
HETATM   10  C   LIG     1      18.159  36.430  26.905  1.00  0.00     0.117 C 
HETATM   11  O   LIG     1      17.795  34.690  25.327  1.00  0.00    -0.274 OA
HETATM   12  H   LIG     1      17.135  37.830  24.810  1.00  0.00     0.169 HD
ENDBRANCH   1   8
TORSDOF 1
ENDMDL
MODEL 10
REMARK VINA RESULT:      -5.2     10.581     11.984
REMARK  1 active torsions:
REMARK  status: ('A' for Active; 'I' for Inactive)
REMARK       I    between atoms: C_2  and  N_3 
REMARK    1  A    between atoms: N_3  and  C_4 
ROOT
HETATM    1  C   LIG     1      14.829  29.978  14.023  1.00  0.00     0.056 A 
HETATM    2  C   LIG     1      15.645  30.977  14.584  1.00  0.00     0.031 A 
HETATM    3  C   LIG     1      15.202  31.719  15.684  1.00  0.00     0.002 A 
HETATM    4  C   LIG     1      13.947  31.466  16.238  1.00  0.00     0.002 A 
HETATM    5  C   LIG     1      13.134  30.466  15.701  1.00  0.00     0.026 A 
HETATM    6  C   LIG     1      13.569  29.717  14.601  1.00  0.00     0.060 A 
HETATM    7 CL   LIG     1      12.499  28.483  13.946  1.00  0.00    -0.082 Cl
ENDROOT
BRANCH   1   8
HETATM    8  N   LIG     1      15.296  29.193  12.911  1.00  0.00    -0.326 N 
HETATM    9  C   LIG     1      15.697  27.818  13.025  1.00  0.00     0.218 C 
HETATM   10  C   LIG     1      15.979  27.008  11.801  1.00  0.00     0.117 C 
HETATM   11  O   LIG     1      15.848  27.286  14.158  1.00  0.00    -0.274 OA
HETATM   12  H   LIG     1      15.405  29.659  11.983  1.00  0.00     0.169 HD
ENDBRANCH   1   8
TORSDOF 1
ENDMDL
MODEL 11
REMARK VINA RESULT:      -5.1      5.977      9.061
REMARK  1 active torsions:
REMARK  status: ('A' for Active; 'I' for Inactive)
REMARK       I    between atoms: C_2  and  N_3 
REMARK    1  A    between atoms: N_3  and  C_4 
ROOT
HETATM    1  C   LIG     1      15.074  32.525  16.720  1.00  0.00     0.056 A 
HETATM    2  C   LIG     1      16.127  33.042  15.944  1.00  0.00     0.031 A 
HETATM    3  C   LIG     1      16.439  32.476  14.704  1.00  0.00     0.002 A 
HETATM    4  C   LIG     1      15.699  31.396  14.223  1.00  0.00     0.002 A 
HETATM    5  C   LIG     1      14.641  30.883  14.975  1.00  0.00     0.026 A 
HETATM    6  C   LIG     1      14.319  31.444  16.217  1.00  0.00     0.060 A 
HETATM    7 CL   LIG     1      12.991  30.748  17.137  1.00  0.00    -0.082 Cl
ENDROOT
BRANCH   1   8
HETATM    8  N   LIG     1      14.731  33.126  17.982  1.00  0.00    -0.326 N 
HETATM    9  C   LIG     1      15.342  32.755  19.228  1.00  0.00     0.218 C 
HETATM   10  C   LIG     1      15.085  33.554  20.465  1.00  0.00     0.117 C 
HETATM   11  O   LIG     1      16.077  31.733  19.302  1.00  0.00    -0.274 OA
HETATM   12  H   LIG     1      13.958  33.826  18.005  1.00  0.00     0.169 HD
ENDBRANCH   1   8
TORSDOF 1
ENDMDL
MODEL 12
REMARK VINA RESULT:      -5.1      2.515      3.461
REMARK  1 active torsions:
REMARK  status: ('A' for Active; 'I' for Inactive)
REMARK       I    between atoms: C_2  and  N_3 
REMARK    1  A    between atoms: N_3  and  C_4 
ROOT
HETATM    1  C   LIG     1      17.593  37.110  21.353  1.00  0.00     0.056 A 
HETATM    2  C   LIG     1      17.085  35.942  20.757  1.00  0.00     0.031 A 
HETATM    3  C   LIG     1      16.560  34.914  21.547  1.00  0.00     0.002 A 
HETATM    4  C   LIG     1      16.530  35.044  22.935  1.00  0.00     0.002 A 
HETATM    5  C   LIG     1      17.017  36.205  23.539  1.00  0.00     0.026 A 
HETATM    6  C   LIG     1      17.542  37.242  22.756  1.00  0.00     0.060 A 
HETATM    7 CL   LIG     1      18.164  38.675  23.565  1.00  0.00    -0.082 Cl
ENDROOT
BRANCH   1   8
HETATM    8  N   LIG     1      18.105  38.182  20.541  1.00  0.00    -0.326 N 
HETATM    9  C   LIG     1      19.143  38.009  19.562  1.00  0.00     0.218 C 
HETATM   10  C   LIG     1      19.485  39.116  18.618  1.00  0.00     0.117 C 
HETATM   11  O   LIG     1      19.800  36.934  19.507  1.00  0.00    -0.274 OA
HETATM   12  H   LIG     1      17.747  39.148  20.709  1.00  0.00     0.169 HD
ENDBRANCH   1   8
TORSDOF 1
ENDMDL
MODEL 13
REMARK VINA RESULT:      -5.1      9.197     10.669
REMARK  1 active torsions:
REMARK  status: ('A' for Active; 'I' for Inactive)
REMARK       I    between atoms: C_2  and  N_3 
REMARK    1  A    between atoms: N_3  and  C_4 
ROOT
HETATM    1  C   LIG     1      14.471  30.651  14.972  1.00  0.00     0.056 A 
HETATM    2  C   LIG     1      13.705  30.590  16.150  1.00  0.00     0.031 A 
HETATM    3  C   LIG     1      13.827  31.582  17.128  1.00  0.00     0.002 A 
HETATM    4  C   LIG     1      14.706  32.648  16.936  1.00  0.00     0.002 A 
HETATM    5  C   LIG     1      15.460  32.730  15.764  1.00  0.00     0.026 A 
HETATM    6  C   LIG     1      15.344  31.742  14.778  1.00  0.00     0.060 A 
HETATM    7 CL   LIG     1      16.333  31.878  13.330  1.00  0.00    -0.082 Cl
ENDROOT
BRANCH   1   8
HETATM    8  N   LIG     1      14.324  29.647  13.951  1.00  0.00    -0.326 N 
HETATM    9  C   LIG     1      15.207  28.522  13.815  1.00  0.00     0.218 C 
HETATM   10  C   LIG     1      14.881  27.416  12.863  1.00  0.00     0.117 C 
HETATM   11  O   LIG     1      16.282  28.466  14.471  1.00  0.00    -0.274 OA
HETATM   12  H   LIG     1      13.575  29.772  13.236  1.00  0.00     0.169 HD
ENDBRANCH   1   8
TORSDOF 1
ENDMDL
MODEL 14
REMARK VINA RESULT:      -5.0      9.423     10.875
REMARK  1 active torsions:
REMARK  status: ('A' for Active; 'I' for Inactive)
REMARK       I    between atoms: C_2  and  N_3 
REMARK    1  A    between atoms: N_3  and  C_4 
ROOT
HETATM    1  C   LIG     1      15.158  31.075  14.278  1.00  0.00     0.056 A 
HETATM    2  C   LIG     1      16.130  31.728  13.500  1.00  0.00     0.031 A 
HETATM    3  C   LIG     1      16.826  32.828  14.011  1.00  0.00     0.002 A 
HETATM    4  C   LIG     1      16.565  33.281  15.304  1.00  0.00     0.002 A 
HETATM    5  C   LIG     1      15.614  32.632  16.093  1.00  0.00     0.026 A 
HETATM    6  C   LIG     1      14.913  31.528  15.591  1.00  0.00     0.060 A 
HETATM    7 CL   LIG     1      13.709  30.759  16.616  1.00  0.00    -0.082 Cl
ENDROOT
BRANCH   1   8
HETATM    8  N   LIG     1      14.463  29.924  13.765  1.00  0.00    -0.326 N 
HETATM    9  C   LIG     1      14.962  28.582  13.880  1.00  0.00     0.218 C 
HETATM   10  C   LIG     1      14.099  27.419  13.505  1.00  0.00     0.117 C 
HETATM   11  O   LIG     1      16.143  28.367  14.266  1.00  0.00    -0.274 OA
HETATM   12  H   LIG     1      13.579  30.074  13.231  1.00  0.00     0.169 HD
ENDBRANCH   1   8
TORSDOF 1
ENDMDL
MODEL 15
REMARK VINA RESULT:      -5.0      5.954      7.357
REMARK  1 active torsions:
REMARK  status: ('A' for Active; 'I' for Inactive)
REMARK       I    between atoms: C_2  and  N_3 
REMARK    1  A    between atoms: N_3  and  C_4 
ROOT
HETATM    1  C   LIG     1      14.986  32.608  18.117  1.00  0.00     0.056 A 
HETATM    2  C   LIG     1      15.209  33.912  17.641  1.00  0.00     0.031 A 
HETATM    3  C   LIG     1      15.540  34.943  18.526  1.00  0.00     0.002 A 
HETATM    4  C   LIG     1      15.661  34.682  19.891  1.00  0.00     0.002 A 
HETATM    5  C   LIG     1      15.459  33.388  20.375  1.00  0.00     0.026 A 
HETATM    6  C   LIG     1      15.129  32.348  19.496  1.00  0.00     0.060 A 
HETATM    7 CL   LIG     1      14.862  30.740  20.158  1.00  0.00    -0.082 Cl
ENDROOT
BRANCH   1   8
HETATM    8  N   LIG     1      14.676  31.539  17.205  1.00  0.00    -0.326 N 
HETATM    9  C   LIG     1      13.384  31.363  16.601  1.00  0.00     0.218 C 
HETATM   10  C   LIG     1      13.187  30.356  15.514  1.00  0.00     0.117 C 
HETATM   11  O   LIG     1      12.392  32.032  17.001  1.00  0.00    -0.274 OA
HETATM   12  H   LIG     1      15.407  30.819  17.015  1.00  0.00     0.169 HD
ENDBRANCH   1   8
TORSDOF 1
ENDMDL
MODEL 16
REMARK VINA RESULT:      -4.9      3.272      4.088
REMARK  1 active torsions:
REMARK  status: ('A' for Active; 'I' for Inactive)
REMARK       I    between atoms: C_2  and  N_3 
REMARK    1  A    between atoms: N_3  and  C_4 
ROOT
HETATM    1  C   LIG     1      17.815  37.721  21.470  1.00  0.00     0.056 A 
HETATM    2  C   LIG     1      17.859  38.664  22.513  1.00  0.00     0.031 A 
HETATM    3  C   LIG     1      16.879  38.663  23.510  1.00  0.00     0.002 A 
HETATM    4  C   LIG     1      15.853  37.719  23.482  1.00  0.00     0.002 A 
HETATM    5  C   LIG     1      15.806  36.768  22.461  1.00  0.00     0.026 A 
HETATM    6  C   LIG     1      16.784  36.759  21.458  1.00  0.00     0.060 A 
HETATM    7 CL   LIG     1      16.670  35.554  20.182  1.00  0.00    -0.082 Cl
ENDROOT
BRANCH   1   8
HETATM    8  N   LIG     1      18.840  37.700  20.460  1.00  0.00    -0.326 N 
HETATM    9  C   LIG     1      19.437  38.887  19.912  1.00  0.00     0.218 C 
HETATM   10  C   LIG     1      20.630  38.790  19.017  1.00  0.00     0.117 C 
HETATM   11  O   LIG     1      18.945  40.023  20.153  1.00  0.00    -0.274 OA
HETATM   12  H   LIG     1      19.125  36.779  20.060  1.00  0.00     0.169 HD
ENDBRANCH   1   8
TORSDOF 1
ENDMDL
MODEL 17
REMARK VINA RESULT:      -4.8     11.748     13.134
REMARK  1 active torsions:
REMARK  status: ('A' for Active; 'I' for Inactive)
REMARK       I    between atoms: C_2  and  N_3 
REMARK    1  A    between atoms: N_3  and  C_4 
ROOT
HETATM    1  C   LIG     1      13.470  28.501  14.167  1.00  0.00     0.056 A 
HETATM    2  C   LIG     1      12.817  29.496  14.915  1.00  0.00     0.031 A 
HETATM    3  C   LIG     1      13.490  30.667  15.277  1.00  0.00     0.002 A 
HETATM    4  C   LIG     1      14.816  30.860  14.889  1.00  0.00     0.002 A 
HETATM    5  C   LIG     1      15.471  29.887  14.132  1.00  0.00     0.026 A 
HETATM    6  C   LIG     1      14.805  28.712  13.763  1.00  0.00     0.060 A 
HETATM    7 CL   LIG     1      15.680  27.507  12.827  1.00  0.00    -0.082 Cl
ENDROOT
BRANCH   1   8
HETATM    8  N   LIG     1      12.769  27.309  13.766  1.00  0.00    -0.326 N 
HETATM    9  C   LIG     1      11.592  27.320  12.943  1.00  0.00     0.218 C 
HETATM   10  C   LIG     1      11.034  26.043  12.402  1.00  0.00     0.117 C 
HETATM   11  O   LIG     1      10.996  28.403  12.691  1.00  0.00    -0.274 OA
HETATM   12  H   LIG     1      13.096  26.391  14.140  1.00  0.00     0.169 HD
ENDBRANCH   1   8
TORSDOF 1
ENDMDL
MODEL 18
REMARK VINA RESULT:      -4.7      9.625     11.818
REMARK  1 active torsions:
REMARK  status: ('A' for Active; 'I' for Inactive)
REMARK       I    between atoms: C_2  and  N_3 
REMARK    1  A    between atoms: N_3  and  C_4 
ROOT
HETATM    1  C   LIG     1      19.012  34.097  12.674  1.00  0.00     0.056 A 
HETATM    2  C   LIG     1      20.307  33.551  12.732  1.00  0.00     0.031 A 
HETATM    3  C   LIG     1      21.166  33.644  11.633  1.00  0.00     0.002 A 
HETATM    4  C   LIG     1      20.746  34.289  10.470  1.00  0.00     0.002 A 
HETATM    5  C   LIG     1      19.469  34.850  10.404  1.00  0.00     0.026 A 
HETATM    6  C   LIG     1      18.602  34.763  11.500  1.00  0.00     0.060 A 
HETATM    7 CL   LIG     1      16.995  35.465  11.360  1.00  0.00    -0.082 Cl
ENDROOT
BRANCH   1   8
HETATM    8  N   LIG     1      18.138  34.029  13.815  1.00  0.00    -0.326 N 
HETATM    9  C   LIG     1      17.191  32.970  14.025  1.00  0.00     0.218 C 
HETATM   10  C   LIG     1      16.458  32.855  15.323  1.00  0.00     0.117 C 
HETATM   11  O   LIG     1      16.940  32.142  13.107  1.00  0.00    -0.274 OA
HETATM   12  H   LIG     1      18.148  34.819  14.497  1.00  0.00     0.169 HD
ENDBRANCH   1   8
TORSDOF 1
ENDMDL
MODEL 19
REMARK VINA RESULT:      -4.5      5.960      7.285
REMARK  1 active torsions:
REMARK  status: ('A' for Active; 'I' for Inactive)
REMARK       I    between atoms: C_2  and  N_3 
REMARK    1  A    between atoms: N_3  and  C_4 
ROOT
HETATM    1  C   LIG     1      14.936  32.274  18.173  1.00  0.00     0.056 A 
HETATM    2  C   LIG     1      14.803  31.891  19.520  1.00  0.00     0.031 A 
HETATM    3  C   LIG     1      15.068  32.804  20.545  1.00  0.00     0.002 A 
HETATM    4  C   LIG     1      15.459  34.107  20.238  1.00  0.00     0.002 A 
HETATM    5  C   LIG     1      15.579  34.505  18.906  1.00  0.00     0.026 A 
HETATM    6  C   LIG     1      15.314  33.599  17.871  1.00  0.00     0.060 A 
HETATM    7 CL   LIG     1      15.501  34.142  16.208  1.00  0.00    -0.082 Cl
ENDROOT
BRANCH   1   8
HETATM    8  N   LIG     1      14.634  31.346  17.115  1.00  0.00    -0.326 N 
HETATM    9  C   LIG     1      13.331  31.213  16.526  1.00  0.00     0.218 C 
HETATM   10  C   LIG     1      13.134  30.377  15.303  1.00  0.00     0.117 C 
HETATM   11  O   LIG     1      12.329  31.773  17.050  1.00  0.00    -0.274 OA
HETATM   12  H   LIG     1      15.384  30.693  16.797  1.00  0.00     0.169 HD
ENDBRANCH   1   8
TORSDOF 1
ENDMDL
MODEL 20
REMARK VINA RESULT:      -4.5      8.835     10.094
REMARK  1 active torsions:
REMARK  status: ('A' for Active; 'I' for Inactive)
REMARK       I    between atoms: C_2  and  N_3 
REMARK    1  A    between atoms: N_3  and  C_4 
ROOT
HETATM    1  C   LIG     1      16.328  32.483  14.719  1.00  0.00     0.056 A 
HETATM    2  C   LIG     1      16.270  33.384  15.797  1.00  0.00     0.031 A 
HETATM    3  C   LIG     1      15.235  33.303  16.734  1.00  0.00     0.002 A 
HETATM    4  C   LIG     1      14.255  32.318  16.611  1.00  0.00     0.002 A 
HETATM    5  C   LIG     1      14.310  31.406  15.555  1.00  0.00     0.026 A 
HETATM    6  C   LIG     1      15.344  31.478  14.612  1.00  0.00     0.060 A 
HETATM    7 CL   LIG     1      15.356  30.321  13.287  1.00  0.00    -0.082 Cl
ENDROOT
BRANCH   1   8
HETATM    8  N   LIG     1      17.409  32.545  13.771  1.00  0.00    -0.326 N 
HETATM    9  C   LIG     1      17.891  33.771  13.198  1.00  0.00     0.218 C 
HETATM   10  C   LIG     1      19.140  33.784  12.378  1.00  0.00     0.117 C 
HETATM   11  O   LIG     1      17.250  34.847  13.352  1.00  0.00    -0.274 OA
HETATM   12  H   LIG     1      17.828  31.650  13.436  1.00  0.00     0.169 HD
ENDBRANCH   1   8
TORSDOF 1
ENDMDL
