REMARK  0 active torsions:
REMARK  status: ('A' for Active; 'I' for Inactive)
ROOT
HETATM    1  C   LIG     1       2.408   1.118  -0.054  1.00  0.00     0.153 C 
HETATM    2  N   LIG     1       1.287   0.182   0.057  1.00  0.00    -0.345 N 
HETATM    3  C   LIG     1      -0.013   0.468  -0.564  1.00  0.00     0.399 C 
HETATM    4  N   LIG     1      -1.124   0.131   0.353  1.00  0.00     0.111 N 
HETATM    5  C   LIG     1      -2.406   0.494  -0.271  1.00  0.00     0.313 C 
HETATM    6  C   LIG     1      -1.117  -1.309   0.678  1.00  0.00     0.355 C 
HETATM    7  S   LIG     1       0.235  -1.665   1.842  1.00  0.00    -0.070 SA
HETATM    8  C   LIG     1       1.478  -1.083   0.699  1.00  0.00     0.139 C 
HETATM    9  S   LIG     1       2.629  -2.119   0.172  1.00  0.00    -0.053 SA
ENDROOT
TORSDOF 0
