REMARK  1 active torsions:
REMARK  status: ('A' for Active; 'I' for Inactive)
REMARK       I    between atoms: C_2  and  N_3 
REMARK    1  A    between atoms: N_3  and  C_4 
ROOT
HETATM    1  C   LIG     1      -0.381  -0.204   0.172  1.00  0.00     0.056 A 
HETATM    2  C   LIG     1      -0.692   1.129   0.495  1.00  0.00     0.031 A 
HETATM    3  C   LIG     1      -2.018   1.572   0.477  1.00  0.00     0.002 A 
HETATM    4  C   LIG     1      -3.046   0.689   0.146  1.00  0.00     0.002 A 
HETATM    5  C   LIG     1      -2.753  -0.641  -0.161  1.00  0.00     0.026 A 
HETATM    6  C   LIG     1      -1.428  -1.095  -0.144  1.00  0.00     0.060 A 
HETATM    7 CL   LIG     1      -1.108  -2.774  -0.560  1.00  0.00    -0.082 Cl
ENDROOT
BRANCH   1   8
HETATM    8  N   LIG     1       0.980  -0.670   0.220  1.00  0.00    -0.326 N 
HETATM    9  C   LIG     1       2.099   0.104  -0.241  1.00  0.00     0.218 C 
HETATM   10  C   LIG     1       3.497  -0.356   0.021  1.00  0.00     0.117 C 
HETATM   11  O   LIG     1       1.918   1.164  -0.900  1.00  0.00    -0.274 OA
HETATM   12  H   LIG     1       1.161  -1.643   0.552  1.00  0.00     0.169 HD
ENDBRANCH   1   8
TORSDOF 1
