MODEL 1
REMARK VINA RESULT:      -4.4      0.000      0.000
REMARK  0 active torsions:
REMARK  status: ('A' for Active; 'I' for Inactive)
ROOT
HETATM    1  C   LIG     1      15.736  36.147  21.857  1.00  0.00     0.153 C 
HETATM    2  N   LIG     1      16.677  36.460  22.935  1.00  0.00    -0.345 N 
HETATM    3  C   LIG     1      17.211  35.411  23.813  1.00  0.00     0.399 C 
HETATM    4  N   LIG     1      17.214  35.853  25.225  1.00  0.00     0.111 N 
HETATM    5  C   LIG     1      17.687  34.757  26.085  1.00  0.00     0.313 C 
HETATM    6  C   LIG     1      18.080  37.035  25.402  1.00  0.00     0.355 C 
HETATM    7  S   LIG     1      17.253  38.505  24.721  1.00  0.00    -0.070 SA
HETATM    8  C   LIG     1      17.169  37.796  23.084  1.00  0.00     0.139 C 
HETATM    9  S   LIG     1      17.933  38.545  21.846  1.00  0.00    -0.053 SA
ENDROOT
TORSDOF 0
ENDMDL
MODEL 2
REMARK VINA RESULT:      -4.3      2.330      4.145
REMARK  0 active torsions:
REMARK  status: ('A' for Active; 'I' for Inactive)
ROOT
HETATM    1  C   LIG     1      17.236  38.286  25.382  1.00  0.00     0.153 C 
HETATM    2  N   LIG     1      17.491  37.784  24.030  1.00  0.00    -0.345 N 
HETATM    3  C   LIG     1      18.389  38.492  23.108  1.00  0.00     0.399 C 
HETATM    4  N   LIG     1      17.811  38.552  21.747  1.00  0.00     0.111 N 
HETATM    5  C   LIG     1      18.700  39.326  20.867  1.00  0.00     0.313 C 
HETATM    6  C   LIG     1      17.623  37.194  21.198  1.00  0.00     0.355 C 
HETATM    7  S   LIG     1      16.195  36.404  22.001  1.00  0.00    -0.070 SA
HETATM    8  C   LIG     1      16.936  36.530  23.621  1.00  0.00     0.139 C 
HETATM    9  S   LIG     1      17.249  35.165  24.467  1.00  0.00    -0.053 SA
ENDROOT
TORSDOF 0
ENDMDL
MODEL 3
REMARK VINA RESULT:      -4.3      1.652      2.008
REMARK  0 active torsions:
REMARK  status: ('A' for Active; 'I' for Inactive)
ROOT
HETATM    1  C   LIG     1      15.839  35.337  21.688  1.00  0.00     0.153 C 
HETATM    2  N   LIG     1      16.772  36.304  22.272  1.00  0.00    -0.345 N 
HETATM    3  C   LIG     1      17.125  36.262  23.697  1.00  0.00     0.399 C 
HETATM    4  N   LIG     1      17.133  37.622  24.281  1.00  0.00     0.111 N 
HETATM    5  C   LIG     1      17.422  37.538  25.721  1.00  0.00     0.313 C 
HETATM    6  C   LIG     1      18.143  38.471  23.619  1.00  0.00     0.355 C 
HETATM    7  S   LIG     1      17.547  38.952  21.968  1.00  0.00    -0.070 SA
HETATM    8  C   LIG     1      17.432  37.253  21.428  1.00  0.00     0.139 C 
HETATM    9  S   LIG     1      18.337  36.753  20.161  1.00  0.00    -0.053 SA
ENDROOT
TORSDOF 0
ENDMDL
MODEL 4
REMARK VINA RESULT:      -3.8      3.155      4.831
REMARK  0 active torsions:
REMARK  status: ('A' for Active; 'I' for Inactive)
ROOT
HETATM    1  C   LIG     1      16.610  39.073  22.769  1.00  0.00     0.153 C 
HETATM    2  N   LIG     1      17.465  38.232  21.928  1.00  0.00    -0.345 N 
HETATM    3  C   LIG     1      18.717  38.744  21.356  1.00  0.00     0.399 C 
HETATM    4  N   LIG     1      18.863  38.328  19.944  1.00  0.00     0.111 N 
HETATM    5  C   LIG     1      20.089  38.915  19.381  1.00  0.00     0.313 C 
HETATM    6  C   LIG     1      18.918  36.857  19.834  1.00  0.00     0.355 C 
HETATM    7  S   LIG     1      17.256  36.164  20.089  1.00  0.00    -0.070 SA
HETATM    8  C   LIG     1      17.134  36.853  21.732  1.00  0.00     0.139 C 
HETATM    9  S   LIG     1      16.960  35.848  23.011  1.00  0.00    -0.053 SA
ENDROOT
TORSDOF 0
ENDMDL
MODEL 5
REMARK VINA RESULT:      -3.8      2.819      4.197
REMARK  0 active torsions:
REMARK  status: ('A' for Active; 'I' for Inactive)
ROOT
HETATM    1  C   LIG     1      17.221  35.225  21.522  1.00  0.00     0.153 C 
HETATM    2  N   LIG     1      17.494  36.654  21.353  1.00  0.00    -0.345 N 
HETATM    3  C   LIG     1      18.129  37.172  20.134  1.00  0.00     0.399 C 
HETATM    4  N   LIG     1      19.165  38.177  20.463  1.00  0.00     0.111 N 
HETATM    5  C   LIG     1      19.828  38.623  19.228  1.00  0.00     0.313 C 
HETATM    6  C   LIG     1      18.570  39.336  21.157  1.00  0.00     0.355 C 
HETATM    7  S   LIG     1      18.166  38.879  22.871  1.00  0.00    -0.070 SA
HETATM    8  C   LIG     1      17.052  37.585  22.347  1.00  0.00     0.139 C 
HETATM    9  S   LIG     1      15.472  37.671  22.763  1.00  0.00    -0.053 SA
ENDROOT
TORSDOF 0
ENDMDL
MODEL 6
REMARK VINA RESULT:      -3.8      2.041      2.511
REMARK  0 active torsions:
REMARK  status: ('A' for Active; 'I' for Inactive)
ROOT
HETATM    1  C   LIG     1      17.129  39.040  22.765  1.00  0.00     0.153 C 
HETATM    2  N   LIG     1      16.950  37.768  23.467  1.00  0.00    -0.345 N 
HETATM    3  C   LIG     1      17.178  37.653  24.913  1.00  0.00     0.399 C 
HETATM    4  N   LIG     1      17.927  36.418  25.235  1.00  0.00     0.111 N 
HETATM    5  C   LIG     1      18.200  36.369  26.680  1.00  0.00     0.313 C 
HETATM    6  C   LIG     1      17.164  35.221  24.830  1.00  0.00     0.355 C 
HETATM    7  S   LIG     1      17.226  35.042  23.020  1.00  0.00    -0.070 SA
HETATM    8  C   LIG     1      16.450  36.629  22.758  1.00  0.00     0.139 C 
HETATM    9  S   LIG     1      15.014  36.699  21.977  1.00  0.00    -0.053 SA
ENDROOT
TORSDOF 0
ENDMDL
MODEL 7
REMARK VINA RESULT:      -3.7      2.670      3.505
REMARK  0 active torsions:
REMARK  status: ('A' for Active; 'I' for Inactive)
ROOT
HETATM    1  C   LIG     1      18.666  36.877  19.655  1.00  0.00     0.153 C 
HETATM    2  N   LIG     1      17.796  36.887  20.833  1.00  0.00    -0.345 N 
HETATM    3  C   LIG     1      17.643  38.090  21.661  1.00  0.00     0.399 C 
HETATM    4  N   LIG     1      17.677  37.750  23.101  1.00  0.00     0.111 N 
HETATM    5  C   LIG     1      17.592  38.983  23.901  1.00  0.00     0.313 C 
HETATM    6  C   LIG     1      16.563  36.849  23.453  1.00  0.00     0.355 C 
HETATM    7  S   LIG     1      16.912  35.175  22.832  1.00  0.00    -0.070 SA
HETATM    8  C   LIG     1      17.000  35.737  21.138  1.00  0.00     0.139 C 
HETATM    9  S   LIG     1      15.944  35.140  20.041  1.00  0.00    -0.053 SA
ENDROOT
TORSDOF 0
ENDMDL
MODEL 8
REMARK VINA RESULT:      -3.6      8.391     10.171
REMARK  0 active torsions:
REMARK  status: ('A' for Active; 'I' for Inactive)
ROOT
HETATM    1  C   LIG     1      15.315  34.290  16.858  1.00  0.00     0.153 C 
HETATM    2  N   LIG     1      15.127  32.889  16.475  1.00  0.00    -0.345 N 
HETATM    3  C   LIG     1      15.827  32.310  15.321  1.00  0.00     0.399 C 
HETATM    4  N   LIG     1      14.916  31.466  14.517  1.00  0.00     0.111 N 
HETATM    5  C   LIG     1      15.628  30.960  13.333  1.00  0.00     0.313 C 
HETATM    6  C   LIG     1      14.409  30.333  15.317  1.00  0.00     0.355 C 
HETATM    7  S   LIG     1      13.160  30.931  16.497  1.00  0.00    -0.070 SA
HETATM    8  C   LIG     1      14.321  32.031  17.290  1.00  0.00     0.139 C 
HETATM    9  S   LIG     1      14.668  31.822  18.875  1.00  0.00    -0.053 SA
ENDROOT
TORSDOF 0
ENDMDL
MODEL 9
REMARK VINA RESULT:      -3.5      1.732      3.688
REMARK  0 active torsions:
REMARK  status: ('A' for Active; 'I' for Inactive)
ROOT
HETATM    1  C   LIG     1      17.180  36.524  24.306  1.00  0.00     0.153 C 
HETATM    2  N   LIG     1      16.909  36.444  22.869  1.00  0.00    -0.345 N 
HETATM    3  C   LIG     1      15.948  35.475  22.325  1.00  0.00     0.399 C 
HETATM    4  N   LIG     1      16.479  34.830  21.104  1.00  0.00     0.111 N 
HETATM    5  C   LIG     1      15.524  33.818  20.626  1.00  0.00     0.313 C 
HETATM    6  C   LIG     1      16.718  35.830  20.045  1.00  0.00     0.355 C 
HETATM    7  S   LIG     1      18.209  36.794  20.442  1.00  0.00    -0.070 SA
HETATM    8  C   LIG     1      17.514  37.385  21.977  1.00  0.00     0.139 C 
HETATM    9  S   LIG     1      17.298  38.993  22.191  1.00  0.00    -0.053 SA
ENDROOT
TORSDOF 0
ENDMDL
MODEL 10
REMARK VINA RESULT:      -3.5      8.378     10.170
REMARK  0 active torsions:
REMARK  status: ('A' for Active; 'I' for Inactive)
ROOT
HETATM    1  C   LIG     1      14.282  31.574  18.415  1.00  0.00     0.153 C 
HETATM    2  N   LIG     1      14.565  31.686  16.983  1.00  0.00    -0.345 N 
HETATM    3  C   LIG     1      13.895  30.823  16.001  1.00  0.00     0.399 C 
HETATM    4  N   LIG     1      14.855  30.325  14.991  1.00  0.00     0.111 N 
HETATM    5  C   LIG     1      14.167  29.410  14.066  1.00  0.00     0.313 C 
HETATM    6  C   LIG     1      15.450  31.444  14.235  1.00  0.00     0.355 C 
HETATM    7  S   LIG     1      16.666  32.306  15.278  1.00  0.00    -0.070 SA
HETATM    8  C   LIG     1      15.439  32.716  16.509  1.00  0.00     0.139 C 
HETATM    9  S   LIG     1      15.125  34.288  16.834  1.00  0.00    -0.053 SA
ENDROOT
TORSDOF 0
ENDMDL
MODEL 11
REMARK VINA RESULT:      -3.5      2.727      3.649
REMARK  0 active torsions:
REMARK  status: ('A' for Active; 'I' for Inactive)
ROOT
HETATM    1  C   LIG     1      18.756  38.566  20.480  1.00  0.00     0.153 C 
HETATM    2  N   LIG     1      17.874  37.637  21.190  1.00  0.00    -0.345 N 
HETATM    3  C   LIG     1      17.631  36.278  20.689  1.00  0.00     0.399 C 
HETATM    4  N   LIG     1      16.198  35.925  20.787  1.00  0.00     0.111 N 
HETATM    5  C   LIG     1      15.980  34.587  20.214  1.00  0.00     0.313 C 
HETATM    6  C   LIG     1      15.747  35.946  22.193  1.00  0.00     0.355 C 
HETATM    7  S   LIG     1      15.581  37.668  22.754  1.00  0.00    -0.070 SA
HETATM    8  C   LIG     1      17.305  38.018  22.447  1.00  0.00     0.139 C 
HETATM    9  S   LIG     1      18.265  38.466  23.694  1.00  0.00    -0.053 SA
ENDROOT
TORSDOF 0
ENDMDL
MODEL 12
REMARK VINA RESULT:      -3.0      2.081      2.695
REMARK  0 active torsions:
REMARK  status: ('A' for Active; 'I' for Inactive)
ROOT
HETATM    1  C   LIG     1      18.172  36.759  19.081  1.00  0.00     0.153 C 
HETATM    2  N   LIG     1      18.052  37.009  20.519  1.00  0.00    -0.345 N 
HETATM    3  C   LIG     1      17.929  35.905  21.480  1.00  0.00     0.399 C 
HETATM    4  N   LIG     1      16.898  36.201  22.498  1.00  0.00     0.111 N 
HETATM    5  C   LIG     1      16.752  35.048  23.401  1.00  0.00     0.313 C 
HETATM    6  C   LIG     1      17.259  37.402  23.277  1.00  0.00     0.355 C 
HETATM    7  S   LIG     1      16.990  38.889  22.264  1.00  0.00    -0.070 SA
HETATM    8  C   LIG     1      18.150  38.347  21.019  1.00  0.00     0.139 C 
HETATM    9  S   LIG     1      19.474  39.257  20.708  1.00  0.00    -0.053 SA
ENDROOT
TORSDOF 0
ENDMDL
MODEL 13
REMARK VINA RESULT:      -2.9      3.269      4.088
REMARK  0 active torsions:
REMARK  status: ('A' for Active; 'I' for Inactive)
ROOT
HETATM    1  C   LIG     1      18.806  39.330  22.542  1.00  0.00     0.153 C 
HETATM    2  N   LIG     1      18.231  38.356  21.612  1.00  0.00    -0.345 N 
HETATM    3  C   LIG     1      17.066  37.542  21.980  1.00  0.00     0.399 C 
HETATM    4  N   LIG     1      17.245  36.136  21.554  1.00  0.00     0.111 N 
HETATM    5  C   LIG     1      16.094  35.335  21.999  1.00  0.00     0.313 C 
HETATM    6  C   LIG     1      17.378  36.046  20.087  1.00  0.00     0.355 C 
HETATM    7  S   LIG     1      19.026  36.632  19.587  1.00  0.00    -0.070 SA
HETATM    8  C   LIG     1      18.747  38.254  20.280  1.00  0.00     0.139 C 
HETATM    9  S   LIG     1      18.780  39.561  19.298  1.00  0.00    -0.053 SA
ENDROOT
TORSDOF 0
ENDMDL
MODEL 14
REMARK VINA RESULT:      -2.6     16.226     17.076
REMARK  0 active torsions:
REMARK  status: ('A' for Active; 'I' for Inactive)
ROOT
HETATM    1  C   LIG     1      28.190  30.918  33.794  1.00  0.00     0.153 C 
HETATM    2  N   LIG     1      27.388  30.380  34.895  1.00  0.00    -0.345 N 
HETATM    3  C   LIG     1      26.672  31.265  35.824  1.00  0.00     0.399 C 
HETATM    4  N   LIG     1      26.827  30.803  37.221  1.00  0.00     0.111 N 
HETATM    5  C   LIG     1      26.159  31.748  38.129  1.00  0.00     0.313 C 
HETATM    6  C   LIG     1      26.254  29.454  37.394  1.00  0.00     0.355 C 
HETATM    7  S   LIG     1      27.358  28.221  36.639  1.00  0.00    -0.070 SA
HETATM    8  C   LIG     1      27.213  28.965  35.021  1.00  0.00     0.139 C 
HETATM    9  S   LIG     1      26.583  28.091  33.791  1.00  0.00    -0.053 SA
ENDROOT
TORSDOF 0
ENDMDL
MODEL 15
REMARK VINA RESULT:      -2.5     16.201     16.776
REMARK  0 active torsions:
REMARK  status: ('A' for Active; 'I' for Inactive)
ROOT
HETATM    1  C   LIG     1      26.097  24.389  18.315  1.00  0.00     0.153 C 
HETATM    2  N   LIG     1      25.411  23.324  19.049  1.00  0.00    -0.345 N 
HETATM    3  C   LIG     1      24.807  22.180  18.352  1.00  0.00     0.399 C 
HETATM    4  N   LIG     1      23.475  21.862  18.911  1.00  0.00     0.111 N 
HETATM    5  C   LIG     1      22.870  20.760  18.146  1.00  0.00     0.313 C 
HETATM    6  C   LIG     1      23.579  21.484  20.334  1.00  0.00     0.355 C 
HETATM    7  S   LIG     1      23.882  22.970  21.339  1.00  0.00    -0.070 SA
HETATM    8  C   LIG     1      25.405  23.337  20.481  1.00  0.00     0.139 C 
HETATM    9  S   LIG     1      26.809  23.366  21.319  1.00  0.00    -0.053 SA
ENDROOT
TORSDOF 0
ENDMDL
MODEL 16
REMARK VINA RESULT:      -2.5     15.854     16.344
REMARK  0 active torsions:
REMARK  status: ('A' for Active; 'I' for Inactive)
ROOT
HETATM    1  C   LIG     1      26.698  27.649  32.592  1.00  0.00     0.153 C 
HETATM    2  N   LIG     1      27.288  28.671  33.459  1.00  0.00    -0.345 N 
HETATM    3  C   LIG     1      26.592  29.150  34.660  1.00  0.00     0.399 C 
HETATM    4  N   LIG     1      26.688  30.621  34.778  1.00  0.00     0.111 N 
HETATM    5  C   LIG     1      25.923  31.074  35.950  1.00  0.00     0.313 C 
HETATM    6  C   LIG     1      28.096  31.046  34.907  1.00  0.00     0.355 C 
HETATM    7  S   LIG     1      28.925  30.906  33.293  1.00  0.00    -0.070 SA
HETATM    8  C   LIG     1      28.610  29.151  33.195  1.00  0.00     0.139 C 
HETATM    9  S   LIG     1      29.873  28.114  33.121  1.00  0.00    -0.053 SA
ENDROOT
TORSDOF 0
ENDMDL
MODEL 17
REMARK VINA RESULT:      -2.4     16.782     17.356
REMARK  0 active torsions:
REMARK  status: ('A' for Active; 'I' for Inactive)
ROOT
HETATM    1  C   LIG     1      25.808  31.316  36.106  1.00  0.00     0.153 C 
HETATM    2  N   LIG     1      26.593  30.119  35.791  1.00  0.00    -0.345 N 
HETATM    3  C   LIG     1      26.702  29.616  34.416  1.00  0.00     0.399 C 
HETATM    4  N   LIG     1      26.561  28.144  34.378  1.00  0.00     0.111 N 
HETATM    5  C   LIG     1      26.604  27.680  32.982  1.00  0.00     0.313 C 
HETATM    6  C   LIG     1      27.635  27.494  35.153  1.00  0.00     0.355 C 
HETATM    7  S   LIG     1      27.309  27.693  36.932  1.00  0.00    -0.070 SA
HETATM    8  C   LIG     1      27.350  29.475  36.821  1.00  0.00     0.139 C 
HETATM    9  S   LIG     1      28.474  30.305  37.671  1.00  0.00    -0.053 SA
ENDROOT
TORSDOF 0
ENDMDL
MODEL 18
REMARK VINA RESULT:      -2.3     16.022     16.563
REMARK  0 active torsions:
REMARK  status: ('A' for Active; 'I' for Inactive)
ROOT
HETATM    1  C   LIG     1      29.718  25.863  20.858  1.00  0.00     0.153 C 
HETATM    2  N   LIG     1      28.593  25.610  19.955  1.00  0.00    -0.345 N 
HETATM    3  C   LIG     1      27.299  25.132  20.461  1.00  0.00     0.399 C 
HETATM    4  N   LIG     1      26.756  24.061  19.598  1.00  0.00     0.111 N 
HETATM    5  C   LIG     1      25.497  23.557  20.170  1.00  0.00     0.313 C 
HETATM    6  C   LIG     1      26.517  24.561  18.229  1.00  0.00     0.355 C 
HETATM    7  S   LIG     1      28.106  24.747  17.363  1.00  0.00    -0.070 SA
HETATM    8  C   LIG     1      28.713  25.921  18.564  1.00  0.00     0.139 C 
HETATM    9  S   LIG     1      29.097  27.436  18.080  1.00  0.00    -0.053 SA
ENDROOT
TORSDOF 0
ENDMDL
MODEL 19
REMARK VINA RESULT:      -2.2     16.477     17.542
REMARK  0 active torsions:
REMARK  status: ('A' for Active; 'I' for Inactive)
ROOT
HETATM    1  C   LIG     1      27.359  27.408  37.577  1.00  0.00     0.153 C 
HETATM    2  N   LIG     1      27.184  28.360  36.477  1.00  0.00    -0.345 N 
HETATM    3  C   LIG     1      27.037  27.906  35.088  1.00  0.00     0.399 C 
HETATM    4  N   LIG     1      27.843  28.739  34.170  1.00  0.00     0.111 N 
HETATM    5  C   LIG     1      27.728  28.216  32.800  1.00  0.00     0.313 C 
HETATM    6  C   LIG     1      27.394  30.145  34.206  1.00  0.00     0.355 C 
HETATM    7  S   LIG     1      27.957  30.925  35.751  1.00  0.00    -0.070 SA
HETATM    8  C   LIG     1      27.058  29.757  36.760  1.00  0.00     0.139 C 
HETATM    9  S   LIG     1      25.885  30.302  37.762  1.00  0.00    -0.053 SA
ENDROOT
TORSDOF 0
ENDMDL
MODEL 20
REMARK VINA RESULT:      -2.2     15.755     16.454
REMARK  0 active torsions:
REMARK  status: ('A' for Active; 'I' for Inactive)
ROOT
HETATM    1  C   LIG     1      22.055  22.840  21.249  1.00  0.00     0.153 C 
HETATM    2  N   LIG     1      23.040  22.127  22.065  1.00  0.00    -0.345 N 
HETATM    3  C   LIG     1      22.759  20.793  22.612  1.00  0.00     0.399 C 
HETATM    4  N   LIG     1      23.209  20.691  24.017  1.00  0.00     0.111 N 
HETATM    5  C   LIG     1      22.850  19.370  24.556  1.00  0.00     0.313 C 
HETATM    6  C   LIG     1      24.668  20.891  24.116  1.00  0.00     0.355 C 
HETATM    7  S   LIG     1      25.059  22.654  23.895  1.00  0.00    -0.070 SA
HETATM    8  C   LIG     1      24.342  22.689  22.260  1.00  0.00     0.139 C 
HETATM    9  S   LIG     1      25.288  23.062  20.979  1.00  0.00    -0.053 SA
ENDROOT
TORSDOF 0
ENDMDL
