REMARK  2 active torsions:
REMARK  status: ('A' for Active; 'I' for Inactive)
REMARK    1  A    between atoms: O_1  and  C_2 
REMARK    2  A    between atoms: C_2  and  C_3 
ROOT
HETATM    1  C   LIG     1       0.715   0.126  -0.036  1.00  0.00     0.039 A 
HETATM    2  C   LIG     1      -0.066   1.290  -0.165  1.00  0.00     0.042 A 
HETATM    3  C   LIG     1      -1.463   1.207  -0.209  1.00  0.00     0.035 A 
HETATM    4 CL   LIG     1      -2.424   2.667  -0.360  1.00  0.00    -0.084 Cl
HETATM    5  C   LIG     1      -2.092  -0.038  -0.132  1.00  0.00     0.024 A 
HETATM    6  C   LIG     1      -1.327  -1.200  -0.016  1.00  0.00     0.003 A 
HETATM    7  C   LIG     1       0.069  -1.123   0.030  1.00  0.00     0.018 A 
ENDROOT
BRANCH   1   8
HETATM    8  C   LIG     1       2.195   0.228   0.006  1.00  0.00     0.176 C 
HETATM    9  O   LIG     1       2.764   1.252  -0.458  1.00  0.00    -0.646 OA
BRANCH   8  10
HETATM   10  O   LIG     1       2.985  -0.778   0.561  1.00  0.00    -0.773 OA
HETATM   11  H   LIG     1       2.594  -1.577   1.042  1.00  0.00     0.167 HD
ENDBRANCH   8  10
ENDBRANCH   1   8
TORSDOF 2
