MODEL 1
REMARK VINA RESULT:      -6.5      0.000      0.000
REMARK  2 active torsions:
REMARK  status: ('A' for Active; 'I' for Inactive)
REMARK    1  A    between atoms: O_1  and  C_2 
REMARK    2  A    between atoms: C_2  and  C_3 
ROOT
HETATM    1  C   LIG     1      17.073  37.658  22.245  1.00  0.00     0.039 A 
HETATM    2  C   LIG     1      18.040  38.505  21.673  1.00  0.00     0.042 A 
HETATM    3  C   LIG     1      18.745  38.108  20.530  1.00  0.00     0.035 A 
HETATM    4 CL   LIG     1      19.941  39.177  19.821  1.00  0.00    -0.084 Cl
HETATM    5  C   LIG     1      18.496  36.860  19.953  1.00  0.00     0.024 A 
HETATM    6  C   LIG     1      17.546  36.007  20.519  1.00  0.00     0.003 A 
HETATM    7  C   LIG     1      16.838  36.399  21.660  1.00  0.00     0.018 A 
ENDROOT
BRANCH   1   8
HETATM    8  C   LIG     1      16.335  38.090  23.459  1.00  0.00     0.176 C 
HETATM    9  O   LIG     1      16.974  38.485  24.470  1.00  0.00    -0.646 OA
BRANCH   8  10
HETATM   10  O   LIG     1      14.942  38.086  23.511  1.00  0.00    -0.773 OA
HETATM   11  H   LIG     1      14.415  37.370  23.995  1.00  0.00     0.167 HD
ENDBRANCH   8  10
ENDBRANCH   1   8
TORSDOF 2
ENDMDL
MODEL 2
REMARK VINA RESULT:      -6.3      3.566      4.579
REMARK  2 active torsions:
REMARK  status: ('A' for Active; 'I' for Inactive)
REMARK    1  A    between atoms: O_1  and  C_2 
REMARK    2  A    between atoms: C_2  and  C_3 
ROOT
HETATM    1  C   LIG     1      18.710  38.486  20.198  1.00  0.00     0.039 A 
HETATM    2  C   LIG     1      18.216  37.170  20.277  1.00  0.00     0.042 A 
HETATM    3  C   LIG     1      17.504  36.745  21.405  1.00  0.00     0.035 A 
HETATM    4 CL   LIG     1      16.885  35.105  21.484  1.00  0.00    -0.084 Cl
HETATM    5  C   LIG     1      17.285  37.626  22.466  1.00  0.00     0.024 A 
HETATM    6  C   LIG     1      17.781  38.929  22.404  1.00  0.00     0.003 A 
HETATM    7  C   LIG     1      18.492  39.360  21.279  1.00  0.00     0.018 A 
ENDROOT
BRANCH   1   8
HETATM    8  C   LIG     1      19.467  38.922  18.998  1.00  0.00     0.176 C 
HETATM    9  O   LIG     1      18.908  38.908  17.869  1.00  0.00    -0.646 OA
BRANCH   8  10
HETATM   10  O   LIG     1      20.786  39.365  19.083  1.00  0.00    -0.773 OA
HETATM   11  H   LIG     1      21.563  38.846  18.696  1.00  0.00     0.167 HD
ENDBRANCH   8  10
ENDBRANCH   1   8
TORSDOF 2
ENDMDL
MODEL 3
REMARK VINA RESULT:      -6.2      3.522      4.308
REMARK  2 active torsions:
REMARK  status: ('A' for Active; 'I' for Inactive)
REMARK    1  A    between atoms: O_1  and  C_2 
REMARK    2  A    between atoms: C_2  and  C_3 
ROOT
HETATM    1  C   LIG     1      18.792  38.318  19.860  1.00  0.00     0.039 A 
HETATM    2  C   LIG     1      18.297  38.922  21.032  1.00  0.00     0.042 A 
HETATM    3  C   LIG     1      17.568  38.173  21.963  1.00  0.00     0.035 A 
HETATM    4 CL   LIG     1      16.966  38.937  23.424  1.00  0.00    -0.084 Cl
HETATM    5  C   LIG     1      17.320  36.818  21.731  1.00  0.00     0.024 A 
HETATM    6  C   LIG     1      17.796  36.212  20.567  1.00  0.00     0.003 A 
HETATM    7  C   LIG     1      18.526  36.955  19.634  1.00  0.00     0.018 A 
ENDROOT
BRANCH   1   8
HETATM    8  C   LIG     1      19.560  39.124  18.879  1.00  0.00     0.176 C 
HETATM    9  O   LIG     1      18.970  39.631  17.888  1.00  0.00    -0.646 OA
BRANCH   8  10
HETATM   10  O   LIG     1      20.928  39.354  19.028  1.00  0.00    -0.773 OA
HETATM   11  H   LIG     1      21.575  38.631  19.312  1.00  0.00     0.167 HD
ENDBRANCH   8  10
ENDBRANCH   1   8
TORSDOF 2
ENDMDL
MODEL 4
REMARK VINA RESULT:      -6.2      3.273      4.000
REMARK  2 active torsions:
REMARK  status: ('A' for Active; 'I' for Inactive)
REMARK    1  A    between atoms: O_1  and  C_2 
REMARK    2  A    between atoms: C_2  and  C_3 
ROOT
HETATM    1  C   LIG     1      17.070  37.427  23.332  1.00  0.00     0.039 A 
HETATM    2  C   LIG     1      17.523  37.438  24.665  1.00  0.00     0.042 A 
HETATM    3  C   LIG     1      17.712  36.238  25.361  1.00  0.00     0.035 A 
HETATM    4 CL   LIG     1      18.286  36.266  27.018  1.00  0.00    -0.084 Cl
HETATM    5  C   LIG     1      17.443  35.017  24.736  1.00  0.00     0.024 A 
HETATM    6  C   LIG     1      16.982  34.995  23.419  1.00  0.00     0.003 A 
HETATM    7  C   LIG     1      16.793  36.191  22.718  1.00  0.00     0.018 A 
ENDROOT
BRANCH   1   8
HETATM    8  C   LIG     1      16.871  38.706  22.607  1.00  0.00     0.176 C 
HETATM    9  O   LIG     1      15.810  39.364  22.780  1.00  0.00    -0.646 OA
BRANCH   8  10
HETATM   10  O   LIG     1      17.836  39.217  21.740  1.00  0.00    -0.773 OA
HETATM   11  H   LIG     1      17.602  39.671  20.868  1.00  0.00     0.167 HD
ENDBRANCH   8  10
ENDBRANCH   1   8
TORSDOF 2
ENDMDL
MODEL 5
REMARK VINA RESULT:      -6.1      3.569      4.425
REMARK  2 active torsions:
REMARK  status: ('A' for Active; 'I' for Inactive)
REMARK    1  A    between atoms: O_1  and  C_2 
REMARK    2  A    between atoms: C_2  and  C_3 
ROOT
HETATM    1  C   LIG     1      16.461  36.272  22.479  1.00  0.00     0.039 A 
HETATM    2  C   LIG     1      16.839  35.397  23.515  1.00  0.00     0.042 A 
HETATM    3  C   LIG     1      17.405  35.896  24.695  1.00  0.00     0.035 A 
HETATM    4 CL   LIG     1      17.862  34.795  25.982  1.00  0.00    -0.084 Cl
HETATM    5  C   LIG     1      17.605  37.270  24.848  1.00  0.00     0.024 A 
HETATM    6  C   LIG     1      17.245  38.145  23.822  1.00  0.00     0.003 A 
HETATM    7  C   LIG     1      16.678  37.653  22.642  1.00  0.00     0.018 A 
ENDROOT
BRANCH   1   8
HETATM    8  C   LIG     1      15.865  35.729  21.233  1.00  0.00     0.176 C 
HETATM    9  O   LIG     1      16.617  35.313  20.311  1.00  0.00    -0.646 OA
BRANCH   8  10
HETATM   10  O   LIG     1      14.485  35.653  21.051  1.00  0.00    -0.773 OA
HETATM   11  H   LIG     1      13.879  36.459  21.121  1.00  0.00     0.167 HD
ENDBRANCH   8  10
ENDBRANCH   1   8
TORSDOF 2
ENDMDL
MODEL 6
REMARK VINA RESULT:      -6.0      7.860      8.955
REMARK  2 active torsions:
REMARK  status: ('A' for Active; 'I' for Inactive)
REMARK    1  A    between atoms: O_1  and  C_2 
REMARK    2  A    between atoms: C_2  and  C_3 
ROOT
HETATM    1  C   LIG     1      14.679  32.575  16.418  1.00  0.00     0.039 A 
HETATM    2  C   LIG     1      15.288  31.887  15.352  1.00  0.00     0.042 A 
HETATM    3  C   LIG     1      14.686  30.747  14.806  1.00  0.00     0.035 A 
HETATM    4 CL   LIG     1      15.451  29.905  13.470  1.00  0.00    -0.084 Cl
HETATM    5  C   LIG     1      13.475  30.281  15.323  1.00  0.00     0.024 A 
HETATM    6  C   LIG     1      12.868  30.948  16.388  1.00  0.00     0.003 A 
HETATM    7  C   LIG     1      13.465  32.088  16.937  1.00  0.00     0.018 A 
ENDROOT
BRANCH   1   8
HETATM    8  C   LIG     1      15.331  33.780  16.991  1.00  0.00     0.176 C 
HETATM    9  O   LIG     1      15.954  34.572  16.234  1.00  0.00    -0.646 OA
BRANCH   8  10
HETATM   10  O   LIG     1      15.263  34.075  18.352  1.00  0.00    -0.773 OA
HETATM   11  H   LIG     1      15.226  33.359  19.065  1.00  0.00     0.167 HD
ENDBRANCH   8  10
ENDBRANCH   1   8
TORSDOF 2
ENDMDL
MODEL 7
REMARK VINA RESULT:      -6.0      2.143      2.950
REMARK  2 active torsions:
REMARK  status: ('A' for Active; 'I' for Inactive)
REMARK    1  A    between atoms: O_1  and  C_2 
REMARK    2  A    between atoms: C_2  and  C_3 
ROOT
HETATM    1  C   LIG     1      17.452  36.872  21.119  1.00  0.00     0.039 A 
HETATM    2  C   LIG     1      18.486  37.241  20.238  1.00  0.00     0.042 A 
HETATM    3  C   LIG     1      19.125  38.480  20.372  1.00  0.00     0.035 A 
HETATM    4 CL   LIG     1      20.419  38.923  19.273  1.00  0.00    -0.084 Cl
HETATM    5  C   LIG     1      18.734  39.362  21.382  1.00  0.00     0.024 A 
HETATM    6  C   LIG     1      17.702  39.011  22.254  1.00  0.00     0.003 A 
HETATM    7  C   LIG     1      17.061  37.775  22.125  1.00  0.00     0.018 A 
ENDROOT
BRANCH   1   8
HETATM    8  C   LIG     1      16.781  35.557  20.963  1.00  0.00     0.176 C 
HETATM    9  O   LIG     1      16.627  34.812  21.967  1.00  0.00    -0.646 OA
BRANCH   8  10
HETATM   10  O   LIG     1      16.298  35.121  19.730  1.00  0.00    -0.773 OA
HETATM   11  H   LIG     1      15.902  34.201  19.593  1.00  0.00     0.167 HD
ENDBRANCH   8  10
ENDBRANCH   1   8
TORSDOF 2
ENDMDL
MODEL 8
REMARK VINA RESULT:      -5.9      2.896      3.399
REMARK  2 active torsions:
REMARK  status: ('A' for Active; 'I' for Inactive)
REMARK    1  A    between atoms: O_1  and  C_2 
REMARK    2  A    between atoms: C_2  and  C_3 
ROOT
HETATM    1  C   LIG     1      17.286  35.870  24.623  1.00  0.00     0.039 A 
HETATM    2  C   LIG     1      17.244  37.242  24.312  1.00  0.00     0.042 A 
HETATM    3  C   LIG     1      17.026  37.667  22.996  1.00  0.00     0.035 A 
HETATM    4 CL   LIG     1      16.966  39.380  22.626  1.00  0.00    -0.084 Cl
HETATM    5  C   LIG     1      16.855  36.726  21.978  1.00  0.00     0.024 A 
HETATM    6  C   LIG     1      16.906  35.362  22.272  1.00  0.00     0.003 A 
HETATM    7  C   LIG     1      17.123  34.932  23.585  1.00  0.00     0.018 A 
ENDROOT
BRANCH   1   8
HETATM    8  C   LIG     1      17.522  35.433  26.021  1.00  0.00     0.176 C 
HETATM    9  O   LIG     1      18.396  36.015  26.718  1.00  0.00    -0.646 OA
BRANCH   8  10
HETATM   10  O   LIG     1      16.789  34.398  26.601  1.00  0.00    -0.773 OA
HETATM   11  H   LIG     1      17.205  33.714  27.219  1.00  0.00     0.167 HD
ENDBRANCH   8  10
ENDBRANCH   1   8
TORSDOF 2
ENDMDL
MODEL 9
REMARK VINA RESULT:      -5.8      8.376      9.486
REMARK  2 active torsions:
REMARK  status: ('A' for Active; 'I' for Inactive)
REMARK    1  A    between atoms: O_1  and  C_2 
REMARK    2  A    between atoms: C_2  and  C_3 
ROOT
HETATM    1  C   LIG     1      14.902  31.875  16.209  1.00  0.00     0.039 A 
HETATM    2  C   LIG     1      14.083  30.789  15.848  1.00  0.00     0.042 A 
HETATM    3  C   LIG     1      14.212  30.190  14.589  1.00  0.00     0.035 A 
HETATM    4 CL   LIG     1      13.190  28.831  14.156  1.00  0.00    -0.084 Cl
HETATM    5  C   LIG     1      15.154  30.673  13.678  1.00  0.00     0.024 A 
HETATM    6  C   LIG     1      15.964  31.757  14.021  1.00  0.00     0.003 A 
HETATM    7  C   LIG     1      15.841  32.359  15.278  1.00  0.00     0.018 A 
ENDROOT
BRANCH   1   8
HETATM    8  C   LIG     1      14.753  32.504  17.545  1.00  0.00     0.176 C 
HETATM    9  O   LIG     1      15.379  33.564  17.810  1.00  0.00    -0.646 OA
BRANCH   8  10
HETATM   10  O   LIG     1      13.922  31.959  18.524  1.00  0.00    -0.773 OA
HETATM   11  H   LIG     1      13.538  31.026  18.457  1.00  0.00     0.167 HD
ENDBRANCH   8  10
ENDBRANCH   1   8
TORSDOF 2
ENDMDL
MODEL 10
REMARK VINA RESULT:      -5.7      8.617      9.724
REMARK  2 active torsions:
REMARK  status: ('A' for Active; 'I' for Inactive)
REMARK    1  A    between atoms: O_1  and  C_2 
REMARK    2  A    between atoms: C_2  and  C_3 
ROOT
HETATM    1  C   LIG     1      15.424  32.210  15.689  1.00  0.00     0.039 A 
HETATM    2  C   LIG     1      15.049  31.102  14.907  1.00  0.00     0.042 A 
HETATM    3  C   LIG     1      13.861  30.412  15.176  1.00  0.00     0.035 A 
HETATM    4 CL   LIG     1      13.400  29.038  14.187  1.00  0.00    -0.084 Cl
HETATM    5  C   LIG     1      13.042  30.817  16.233  1.00  0.00     0.024 A 
HETATM    6  C   LIG     1      13.410  31.907  17.023  1.00  0.00     0.003 A 
HETATM    7  C   LIG     1      14.595  32.601  16.757  1.00  0.00     0.018 A 
ENDROOT
BRANCH   1   8
HETATM    8  C   LIG     1      16.688  32.931  15.394  1.00  0.00     0.176 C 
HETATM    9  O   LIG     1      17.704  32.284  15.023  1.00  0.00    -0.646 OA
BRANCH   8  10
HETATM   10  O   LIG     1      16.785  34.317  15.502  1.00  0.00    -0.773 OA
HETATM   11  H   LIG     1      16.631  34.938  14.719  1.00  0.00     0.167 HD
ENDBRANCH   8  10
ENDBRANCH   1   8
TORSDOF 2
ENDMDL
MODEL 11
REMARK VINA RESULT:      -5.7      9.318     10.488
REMARK  2 active torsions:
REMARK  status: ('A' for Active; 'I' for Inactive)
REMARK    1  A    between atoms: O_1  and  C_2 
REMARK    2  A    between atoms: C_2  and  C_3 
ROOT
HETATM    1  C   LIG     1      14.170  30.344  15.033  1.00  0.00     0.039 A 
HETATM    2  C   LIG     1      15.309  31.106  14.708  1.00  0.00     0.042 A 
HETATM    3  C   LIG     1      15.648  32.235  15.464  1.00  0.00     0.035 A 
HETATM    4 CL   LIG     1      17.075  33.168  15.053  1.00  0.00    -0.084 Cl
HETATM    5  C   LIG     1      14.850  32.617  16.545  1.00  0.00     0.024 A 
HETATM    6  C   LIG     1      13.712  31.877  16.869  1.00  0.00     0.003 A 
HETATM    7  C   LIG     1      13.369  30.747  16.119  1.00  0.00     0.018 A 
ENDROOT
BRANCH   1   8
HETATM    8  C   LIG     1      13.820  29.152  14.222  1.00  0.00     0.176 C 
HETATM    9  O   LIG     1      14.733  28.387  13.809  1.00  0.00    -0.646 OA
BRANCH   8  10
HETATM   10  O   LIG     1      12.498  28.839  13.909  1.00  0.00    -0.773 OA
HETATM   11  H   LIG     1      11.813  29.542  13.667  1.00  0.00     0.167 HD
ENDBRANCH   8  10
ENDBRANCH   1   8
TORSDOF 2
ENDMDL
MODEL 12
REMARK VINA RESULT:      -5.7      8.263      9.083
REMARK  2 active torsions:
REMARK  status: ('A' for Active; 'I' for Inactive)
REMARK    1  A    between atoms: O_1  and  C_2 
REMARK    2  A    between atoms: C_2  and  C_3 
ROOT
HETATM    1  C   LIG     1      14.423  31.442  15.988  1.00  0.00     0.039 A 
HETATM    2  C   LIG     1      15.464  32.368  15.788  1.00  0.00     0.042 A 
HETATM    3  C   LIG     1      16.237  32.328  14.621  1.00  0.00     0.035 A 
HETATM    4 CL   LIG     1      17.525  33.495  14.381  1.00  0.00    -0.084 Cl
HETATM    5  C   LIG     1      15.983  31.359  13.648  1.00  0.00     0.024 A 
HETATM    6  C   LIG     1      14.961  30.427  13.841  1.00  0.00     0.003 A 
HETATM    7  C   LIG     1      14.184  30.464  15.004  1.00  0.00     0.018 A 
ENDROOT
BRANCH   1   8
HETATM    8  C   LIG     1      13.614  31.494  17.231  1.00  0.00     0.176 C 
HETATM    9  O   LIG     1      14.176  31.354  18.349  1.00  0.00    -0.646 OA
BRANCH   8  10
HETATM   10  O   LIG     1      12.236  31.710  17.202  1.00  0.00    -0.773 OA
HETATM   11  H   LIG     1      11.704  31.730  16.342  1.00  0.00     0.167 HD
ENDBRANCH   8  10
ENDBRANCH   1   8
TORSDOF 2
ENDMDL
MODEL 13
REMARK VINA RESULT:      -5.5      9.062     10.067
REMARK  2 active torsions:
REMARK  status: ('A' for Active; 'I' for Inactive)
REMARK    1  A    between atoms: O_1  and  C_2 
REMARK    2  A    between atoms: C_2  and  C_3 
ROOT
HETATM    1  C   LIG     1      16.082  32.130  14.244  1.00  0.00     0.039 A 
HETATM    2  C   LIG     1      15.572  32.376  15.533  1.00  0.00     0.042 A 
HETATM    3  C   LIG     1      14.597  31.536  16.084  1.00  0.00     0.035 A 
HETATM    4 CL   LIG     1      13.978  31.849  17.695  1.00  0.00    -0.084 Cl
HETATM    5  C   LIG     1      14.117  30.448  15.351  1.00  0.00     0.024 A 
HETATM    6  C   LIG     1      14.606  30.201  14.067  1.00  0.00     0.003 A 
HETATM    7  C   LIG     1      15.582  31.036  13.512  1.00  0.00     0.018 A 
ENDROOT
BRANCH   1   8
HETATM    8  C   LIG     1      17.113  33.031  13.671  1.00  0.00     0.176 C 
HETATM    9  O   LIG     1      18.274  33.043  14.161  1.00  0.00    -0.646 OA
BRANCH   8  10
HETATM   10  O   LIG     1      16.840  33.864  12.586  1.00  0.00    -0.773 OA
HETATM   11  H   LIG     1      17.288  34.761  12.460  1.00  0.00     0.167 HD
ENDBRANCH   8  10
ENDBRANCH   1   8
TORSDOF 2
ENDMDL
MODEL 14
REMARK VINA RESULT:      -5.5      9.094     10.298
REMARK  2 active torsions:
REMARK  status: ('A' for Active; 'I' for Inactive)
REMARK    1  A    between atoms: O_1  and  C_2 
REMARK    2  A    between atoms: C_2  and  C_3 
ROOT
HETATM    1  C   LIG     1      14.750  30.895  14.807  1.00  0.00     0.039 A 
HETATM    2  C   LIG     1      15.240  32.010  15.514  1.00  0.00     0.042 A 
HETATM    3  C   LIG     1      14.547  32.508  16.624  1.00  0.00     0.035 A 
HETATM    4 CL   LIG     1      15.175  33.892  17.501  1.00  0.00    -0.084 Cl
HETATM    5  C   LIG     1      13.356  31.904  17.033  1.00  0.00     0.024 A 
HETATM    6  C   LIG     1      12.854  30.806  16.332  1.00  0.00     0.003 A 
HETATM    7  C   LIG     1      13.543  30.303  15.224  1.00  0.00     0.018 A 
ENDROOT
BRANCH   1   8
HETATM    8  C   LIG     1      15.493  30.379  13.631  1.00  0.00     0.176 C 
HETATM    9  O   LIG     1      16.338  31.114  13.054  1.00  0.00    -0.646 OA
BRANCH   8  10
HETATM   10  O   LIG     1      15.294  29.087  13.146  1.00  0.00    -0.773 OA
HETATM   11  H   LIG     1      16.047  28.519  12.781  1.00  0.00     0.167 HD
ENDBRANCH   8  10
ENDBRANCH   1   8
TORSDOF 2
ENDMDL
MODEL 15
REMARK VINA RESULT:      -5.4     10.040     11.181
REMARK  2 active torsions:
REMARK  status: ('A' for Active; 'I' for Inactive)
REMARK    1  A    between atoms: O_1  and  C_2 
REMARK    2  A    between atoms: C_2  and  C_3 
ROOT
HETATM    1  C   LIG     1      14.265  29.900  14.385  1.00  0.00     0.039 A 
HETATM    2  C   LIG     1      13.958  30.455  15.641  1.00  0.00     0.042 A 
HETATM    3  C   LIG     1      14.606  31.616  16.082  1.00  0.00     0.035 A 
HETATM    4 CL   LIG     1      14.208  32.303  17.646  1.00  0.00    -0.084 Cl
HETATM    5  C   LIG     1      15.570  32.227  15.276  1.00  0.00     0.024 A 
HETATM    6  C   LIG     1      15.890  31.678  14.033  1.00  0.00     0.003 A 
HETATM    7  C   LIG     1      15.245  30.519  13.587  1.00  0.00     0.018 A 
ENDROOT
BRANCH   1   8
HETATM    8  C   LIG     1      13.572  28.667  13.932  1.00  0.00     0.176 C 
HETATM    9  O   LIG     1      14.235  27.613  13.742  1.00  0.00    -0.646 OA
BRANCH   8  10
HETATM   10  O   LIG     1      12.195  28.635  13.719  1.00  0.00    -0.773 OA
HETATM   11  H   LIG     1      11.782  28.292  12.862  1.00  0.00     0.167 HD
ENDBRANCH   8  10
ENDBRANCH   1   8
TORSDOF 2
ENDMDL
MODEL 16
REMARK VINA RESULT:      -5.3      9.123     10.289
REMARK  2 active torsions:
REMARK  status: ('A' for Active; 'I' for Inactive)
REMARK    1  A    between atoms: O_1  and  C_2 
REMARK    2  A    between atoms: C_2  and  C_3 
ROOT
HETATM    1  C   LIG     1      15.403  31.623  15.281  1.00  0.00     0.039 A 
HETATM    2  C   LIG     1      15.725  30.528  14.457  1.00  0.00     0.042 A 
HETATM    3  C   LIG     1      14.796  29.503  14.243  1.00  0.00     0.035 A 
HETATM    4 CL   LIG     1      15.208  28.149  13.206  1.00  0.00    -0.084 Cl
HETATM    5  C   LIG     1      13.541  29.558  14.854  1.00  0.00     0.024 A 
HETATM    6  C   LIG     1      13.215  30.634  15.682  1.00  0.00     0.003 A 
HETATM    7  C   LIG     1      14.139  31.661  15.899  1.00  0.00     0.018 A 
ENDROOT
BRANCH   1   8
HETATM    8  C   LIG     1      16.399  32.701  15.502  1.00  0.00     0.176 C 
HETATM    9  O   LIG     1      16.018  33.828  15.918  1.00  0.00    -0.646 OA
BRANCH   8  10
HETATM   10  O   LIG     1      17.760  32.502  15.275  1.00  0.00    -0.773 OA
HETATM   11  H   LIG     1      18.356  33.212  14.870  1.00  0.00     0.167 HD
ENDBRANCH   8  10
ENDBRANCH   1   8
TORSDOF 2
ENDMDL
MODEL 17
REMARK VINA RESULT:      -5.3      3.265      3.918
REMARK  2 active torsions:
REMARK  status: ('A' for Active; 'I' for Inactive)
REMARK    1  A    between atoms: O_1  and  C_2 
REMARK    2  A    between atoms: C_2  and  C_3 
ROOT
HETATM    1  C   LIG     1      17.895  36.808  20.867  1.00  0.00     0.039 A 
HETATM    2  C   LIG     1      17.866  37.728  21.932  1.00  0.00     0.042 A 
HETATM    3  C   LIG     1      17.292  37.376  23.159  1.00  0.00     0.035 A 
HETATM    4 CL   LIG     1      17.271  38.529  24.481  1.00  0.00    -0.084 Cl
HETATM    5  C   LIG     1      16.735  36.106  23.332  1.00  0.00     0.024 A 
HETATM    6  C   LIG     1      16.747  35.190  22.278  1.00  0.00     0.003 A 
HETATM    7  C   LIG     1      17.321  35.536  21.050  1.00  0.00     0.018 A 
ENDROOT
BRANCH   1   8
HETATM    8  C   LIG     1      18.504  37.196  19.570  1.00  0.00     0.176 C 
HETATM    9  O   LIG     1      19.377  38.104  19.536  1.00  0.00    -0.646 OA
BRANCH   8  10
HETATM   10  O   LIG     1      18.149  36.570  18.375  1.00  0.00    -0.773 OA
HETATM   11  H   LIG     1      17.369  35.930  18.305  1.00  0.00     0.167 HD
ENDBRANCH   8  10
ENDBRANCH   1   8
TORSDOF 2
ENDMDL
MODEL 18
REMARK VINA RESULT:      -5.0      8.265      9.463
REMARK  2 active torsions:
REMARK  status: ('A' for Active; 'I' for Inactive)
REMARK    1  A    between atoms: O_1  and  C_2 
REMARK    2  A    between atoms: C_2  and  C_3 
ROOT
HETATM    1  C   LIG     1      14.299  31.208  15.507  1.00  0.00     0.039 A 
HETATM    2  C   LIG     1      14.319  32.222  16.483  1.00  0.00     0.042 A 
HETATM    3  C   LIG     1      15.348  33.171  16.500  1.00  0.00     0.035 A 
HETATM    4 CL   LIG     1      15.355  34.435  17.717  1.00  0.00    -0.084 Cl
HETATM    5  C   LIG     1      16.370  33.112  15.549  1.00  0.00     0.024 A 
HETATM    6  C   LIG     1      16.366  32.104  14.584  1.00  0.00     0.003 A 
HETATM    7  C   LIG     1      15.340  31.154  14.561  1.00  0.00     0.018 A 
ENDROOT
BRANCH   1   8
HETATM    8  C   LIG     1      13.205  30.206  15.502  1.00  0.00     0.176 C 
HETATM    9  O   LIG     1      13.088  29.412  14.531  1.00  0.00    -0.646 OA
BRANCH   8  10
HETATM   10  O   LIG     1      12.298  30.104  16.557  1.00  0.00    -0.773 OA
HETATM   11  H   LIG     1      12.344  29.367  17.248  1.00  0.00     0.167 HD
ENDBRANCH   8  10
ENDBRANCH   1   8
TORSDOF 2
ENDMDL
MODEL 19
REMARK VINA RESULT:      -4.8      2.025      2.471
REMARK  2 active torsions:
REMARK  status: ('A' for Active; 'I' for Inactive)
REMARK    1  A    between atoms: O_1  and  C_2 
REMARK    2  A    between atoms: C_2  and  C_3 
ROOT
HETATM    1  C   LIG     1      16.866  35.723  22.589  1.00  0.00     0.039 A 
HETATM    2  C   LIG     1      17.729  36.377  21.689  1.00  0.00     0.042 A 
HETATM    3  C   LIG     1      17.548  36.243  20.307  1.00  0.00     0.035 A 
HETATM    4 CL   LIG     1      18.625  37.073  19.197  1.00  0.00    -0.084 Cl
HETATM    5  C   LIG     1      16.510  35.450  19.811  1.00  0.00     0.024 A 
HETATM    6  C   LIG     1      15.656  34.787  20.695  1.00  0.00     0.003 A 
HETATM    7  C   LIG     1      15.831  34.919  22.076  1.00  0.00     0.018 A 
ENDROOT
BRANCH   1   8
HETATM    8  C   LIG     1      17.071  35.871  24.051  1.00  0.00     0.176 C 
HETATM    9  O   LIG     1      16.979  37.010  24.583  1.00  0.00    -0.646 OA
BRANCH   8  10
HETATM   10  O   LIG     1      17.352  34.776  24.868  1.00  0.00    -0.773 OA
HETATM   11  H   LIG     1      17.335  33.824  24.530  1.00  0.00     0.167 HD
ENDBRANCH   8  10
ENDBRANCH   1   8
TORSDOF 2
ENDMDL
MODEL 20
REMARK VINA RESULT:      -4.4      9.897     10.813
REMARK  2 active torsions:
REMARK  status: ('A' for Active; 'I' for Inactive)
REMARK    1  A    between atoms: O_1  and  C_2 
REMARK    2  A    between atoms: C_2  and  C_3 
ROOT
HETATM    1  C   LIG     1      13.958  30.745  15.417  1.00  0.00     0.039 A 
HETATM    2  C   LIG     1      13.905  29.447  14.876  1.00  0.00     0.042 A 
HETATM    3  C   LIG     1      14.805  29.055  13.878  1.00  0.00     0.035 A 
HETATM    4 CL   LIG     1      14.734  27.430  13.221  1.00  0.00    -0.084 Cl
HETATM    5  C   LIG     1      15.761  29.958  13.405  1.00  0.00     0.024 A 
HETATM    6  C   LIG     1      15.815  31.253  13.926  1.00  0.00     0.003 A 
HETATM    7  C   LIG     1      14.918  31.649  14.924  1.00  0.00     0.018 A 
ENDROOT
BRANCH   1   8
HETATM    8  C   LIG     1      12.995  31.148  16.472  1.00  0.00     0.176 C 
HETATM    9  O   LIG     1      13.093  32.285  17.005  1.00  0.00    -0.646 OA
BRANCH   8  10
HETATM   10  O   LIG     1      11.966  30.305  16.888  1.00  0.00    -0.773 OA
HETATM   11  H   LIG     1      11.021  30.379  16.533  1.00  0.00     0.167 HD
ENDBRANCH   8  10
ENDBRANCH   1   8
TORSDOF 2
ENDMDL
