REMARK  5 active torsions:
REMARK  status: ('A' for Active; 'I' for Inactive)
REMARK    1  A    between atoms: C_2  and  C_5 
REMARK       I    between atoms: C_2  and  N_3 
REMARK    2  A    between atoms: N_3  and  O_4 
REMARK    3  A    between atoms: C_5  and  C_6 
REMARK    4  A    between atoms: C_9  and  C_10 
REMARK    5  A    between atoms: C_10  and  C_11 
ROOT
HETATM    1  C   LIG     1       1.634  -0.026   0.234  1.00  0.00    -0.045 A 
HETATM    2  C   LIG     1       1.005  -0.787  -0.769  1.00  0.00     0.008 A 
HETATM    3  C   LIG     1      -0.326  -0.540  -1.117  1.00  0.00     0.007 A 
HETATM    4  C   LIG     1      -1.051   0.474  -0.473  1.00  0.00    -0.058 A 
HETATM    5  C   LIG     1      -0.428   1.232   0.530  1.00  0.00     0.007 A 
HETATM    6  C   LIG     1       0.903   0.986   0.879  1.00  0.00     0.008 A 
ENDROOT
BRANCH   1   7
HETATM    7  C   LIG     1       3.076  -0.285   0.618  1.00  0.00     0.108 C 
HETATM    8  C   LIG     1       3.240  -1.683   1.230  1.00  0.00     0.025 C 
BRANCH   7   9
HETATM    9  C   LIG     1       3.984  -0.070  -0.571  1.00  0.00     0.249 C 
HETATM   10  O   LIG     1       4.361  -1.051  -1.268  1.00  0.00    -0.271 OA
HETATM   11  N   LIG     1       4.378   1.251  -0.958  1.00  0.00    -0.237 N 
HETATM   12  H   LIG     1       4.992   1.383  -1.793  1.00  0.00     0.197 HD
BRANCH  11  13
HETATM   13  O   LIG     1       3.931   2.341  -0.289  1.00  0.00    -0.287 OA
HETATM   14  H   LIG     1       4.621   2.518   0.400  1.00  0.00     0.244 HD
ENDBRANCH  11  13
ENDBRANCH   7   9
ENDBRANCH   1   7
BRANCH   4  15
HETATM   15  C   LIG     1      -2.495   0.726  -0.828  1.00  0.00     0.042 C 
BRANCH  15  16
HETATM   16  C   LIG     1      -3.462   0.113   0.207  1.00  0.00    -0.019 C 
HETATM   17  C   LIG     1      -4.899   0.567  -0.080  1.00  0.00     0.010 C 
HETATM   18  C   LIG     1      -3.388  -1.422   0.212  1.00  0.00     0.010 C 
ENDBRANCH  15  16
ENDBRANCH   4  15
TORSDOF 5
