MODEL 1
REMARK VINA RESULT:      -7.9      0.000      0.000
REMARK  5 active torsions:
REMARK  status: ('A' for Active; 'I' for Inactive)
REMARK    1  A    between atoms: C_2  and  C_5 
REMARK       I    between atoms: C_2  and  N_3 
REMARK    2  A    between atoms: N_3  and  O_4 
REMARK    3  A    between atoms: C_5  and  C_6 
REMARK    4  A    between atoms: C_9  and  C_10 
REMARK    5  A    between atoms: C_10  and  C_11 
ROOT
HETATM    1  C   LIG     1      18.641  38.392  20.701  1.00  0.00    -0.045 A 
HETATM    2  C   LIG     1      18.004  37.138  20.738  1.00  0.00     0.008 A 
HETATM    3  C   LIG     1      17.389  36.689  21.910  1.00  0.00     0.007 A 
HETATM    4  C   LIG     1      17.396  37.485  23.065  1.00  0.00    -0.058 A 
HETATM    5  C   LIG     1      18.034  38.735  23.032  1.00  0.00     0.007 A 
HETATM    6  C   LIG     1      18.649  39.185  21.861  1.00  0.00     0.008 A 
ENDROOT
BRANCH   1   7
HETATM    7  C   LIG     1      19.310  38.888  19.435  1.00  0.00     0.108 C 
HETATM    8  C   LIG     1      20.828  38.668  19.492  1.00  0.00     0.025 C 
BRANCH   7   9
HETATM    9  C   LIG     1      18.682  38.243  18.221  1.00  0.00     0.249 C 
HETATM   10  O   LIG     1      18.359  37.025  18.244  1.00  0.00    -0.271 OA
HETATM   11  N   LIG     1      18.390  39.018  17.053  1.00  0.00    -0.237 N 
HETATM   12  H   LIG     1      17.940  38.561  16.229  1.00  0.00     0.197 HD
BRANCH  11  13
HETATM   13  O   LIG     1      18.643  40.349  17.012  1.00  0.00    -0.287 OA
HETATM   14  H   LIG     1      19.368  40.491  17.672  1.00  0.00     0.244 HD
ENDBRANCH  11  13
ENDBRANCH   7   9
ENDBRANCH   1   7
BRANCH   4  15
HETATM   15  C   LIG     1      16.757  36.993  24.338  1.00  0.00     0.042 C 
BRANCH  15  16
HETATM   16  C   LIG     1      17.732  36.153  25.190  1.00  0.00    -0.019 C 
HETATM   17  C   LIG     1      18.160  36.943  26.434  1.00  0.00     0.010 C 
HETATM   18  C   LIG     1      17.109  34.812  25.609  1.00  0.00     0.010 C 
ENDBRANCH  15  16
ENDBRANCH   4  15
TORSDOF 5
ENDMDL
MODEL 2
REMARK VINA RESULT:      -7.7      4.315      5.691
REMARK  5 active torsions:
REMARK  status: ('A' for Active; 'I' for Inactive)
REMARK    1  A    between atoms: C_2  and  C_5 
REMARK       I    between atoms: C_2  and  N_3 
REMARK    2  A    between atoms: N_3  and  O_4 
REMARK    3  A    between atoms: C_5  and  C_6 
REMARK    4  A    between atoms: C_9  and  C_10 
REMARK    5  A    between atoms: C_10  and  C_11 
ROOT
HETATM    1  C   LIG     1      16.980  36.764  21.974  1.00  0.00    -0.045 A 
HETATM    2  C   LIG     1      17.603  35.548  21.634  1.00  0.00     0.008 A 
HETATM    3  C   LIG     1      16.838  34.439  21.262  1.00  0.00     0.007 A 
HETATM    4  C   LIG     1      15.438  34.526  21.218  1.00  0.00    -0.058 A 
HETATM    5  C   LIG     1      14.814  35.735  21.560  1.00  0.00     0.007 A 
HETATM    6  C   LIG     1      15.578  36.845  21.933  1.00  0.00     0.008 A 
ENDROOT
BRANCH   1   7
HETATM    7  C   LIG     1      17.800  37.972  22.378  1.00  0.00     0.108 C 
HETATM    8  C   LIG     1      18.189  38.808  21.151  1.00  0.00     0.025 C 
BRANCH   7   9
HETATM    9  C   LIG     1      17.062  38.786  23.416  1.00  0.00     0.249 C 
HETATM   10  O   LIG     1      16.349  39.765  23.066  1.00  0.00    -0.271 OA
HETATM   11  N   LIG     1      17.113  38.421  24.800  1.00  0.00    -0.237 N 
HETATM   12  H   LIG     1      16.582  38.984  25.502  1.00  0.00     0.197 HD
BRANCH  11  13
HETATM   13  O   LIG     1      17.799  37.328  25.213  1.00  0.00    -0.287 OA
HETATM   14  H   LIG     1      17.162  36.575  25.114  1.00  0.00     0.244 HD
ENDBRANCH  11  13
ENDBRANCH   7   9
ENDBRANCH   1   7
BRANCH   4  15
HETATM   15  C   LIG     1      14.608  33.324  20.842  1.00  0.00     0.042 C 
BRANCH  15  16
HETATM   16  C   LIG     1      15.368  32.367  19.900  1.00  0.00    -0.019 C 
HETATM   17  C   LIG     1      14.936  30.918  20.160  1.00  0.00     0.010 C 
HETATM   18  C   LIG     1      15.140  32.725  18.423  1.00  0.00     0.010 C 
ENDBRANCH  15  16
ENDBRANCH   4  15
TORSDOF 5
ENDMDL
MODEL 3
REMARK VINA RESULT:      -7.4      3.819      6.429
REMARK  5 active torsions:
REMARK  status: ('A' for Active; 'I' for Inactive)
REMARK    1  A    between atoms: C_2  and  C_5 
REMARK       I    between atoms: C_2  and  N_3 
REMARK    2  A    between atoms: N_3  and  O_4 
REMARK    3  A    between atoms: C_5  and  C_6 
REMARK    4  A    between atoms: C_9  and  C_10 
REMARK    5  A    between atoms: C_10  and  C_11 
ROOT
HETATM    1  C   LIG     1      17.343  36.574  23.277  1.00  0.00    -0.045 A 
HETATM    2  C   LIG     1      17.748  37.862  22.881  1.00  0.00     0.008 A 
HETATM    3  C   LIG     1      18.085  38.122  21.549  1.00  0.00     0.007 A 
HETATM    4  C   LIG     1      18.020  37.101  20.589  1.00  0.00    -0.058 A 
HETATM    5  C   LIG     1      17.620  35.814  20.981  1.00  0.00     0.007 A 
HETATM    6  C   LIG     1      17.283  35.553  22.313  1.00  0.00     0.008 A 
ENDROOT
BRANCH   1   7
HETATM    7  C   LIG     1      16.975  36.282  24.717  1.00  0.00     0.108 C 
HETATM    8  C   LIG     1      16.797  34.775  24.945  1.00  0.00     0.025 C 
BRANCH   7   9
HETATM    9  C   LIG     1      17.995  36.887  25.654  1.00  0.00     0.249 C 
HETATM   10  O   LIG     1      19.002  36.218  26.014  1.00  0.00    -0.271 OA
HETATM   11  N   LIG     1      17.866  38.243  26.095  1.00  0.00    -0.237 N 
HETATM   12  H   LIG     1      18.590  38.650  26.729  1.00  0.00     0.197 HD
BRANCH  11  13
HETATM   13  O   LIG     1      16.846  39.026  25.669  1.00  0.00    -0.287 OA
HETATM   14  H   LIG     1      16.864  38.952  24.681  1.00  0.00     0.244 HD
ENDBRANCH  11  13
ENDBRANCH   7   9
ENDBRANCH   1   7
BRANCH   4  15
HETATM   15  C   LIG     1      18.407  37.372  19.157  1.00  0.00     0.042 C 
BRANCH  15  16
HETATM   16  C   LIG     1      19.031  38.772  18.980  1.00  0.00    -0.019 C 
HETATM   17  C   LIG     1      20.524  38.732  19.331  1.00  0.00     0.010 C 
HETATM   18  C   LIG     1      18.843  39.299  17.549  1.00  0.00     0.010 C 
ENDBRANCH  15  16
ENDBRANCH   4  15
TORSDOF 5
ENDMDL
MODEL 4
REMARK VINA RESULT:      -7.3      3.424      6.459
REMARK  5 active torsions:
REMARK  status: ('A' for Active; 'I' for Inactive)
REMARK    1  A    between atoms: C_2  and  C_5 
REMARK       I    between atoms: C_2  and  N_3 
REMARK    2  A    between atoms: N_3  and  O_4 
REMARK    3  A    between atoms: C_5  and  C_6 
REMARK    4  A    between atoms: C_9  and  C_10 
REMARK    5  A    between atoms: C_10  and  C_11 
ROOT
HETATM    1  C   LIG     1      17.572  37.123  21.318  1.00  0.00    -0.045 A 
HETATM    2  C   LIG     1      17.838  38.498  21.452  1.00  0.00     0.008 A 
HETATM    3  C   LIG     1      18.458  39.205  20.418  1.00  0.00     0.007 A 
HETATM    4  C   LIG     1      18.821  38.551  19.230  1.00  0.00    -0.058 A 
HETATM    5  C   LIG     1      18.560  37.179  19.095  1.00  0.00     0.007 A 
HETATM    6  C   LIG     1      17.940  36.472  20.128  1.00  0.00     0.008 A 
ENDROOT
BRANCH   1   7
HETATM    7  C   LIG     1      16.899  36.348  22.432  1.00  0.00     0.108 C 
HETATM    8  C   LIG     1      17.448  34.917  22.517  1.00  0.00     0.025 C 
BRANCH   7   9
HETATM    9  C   LIG     1      17.029  37.091  23.742  1.00  0.00     0.249 C 
HETATM   10  O   LIG     1      18.057  36.942  24.457  1.00  0.00    -0.271 OA
HETATM   11  N   LIG     1      16.019  38.016  24.159  1.00  0.00    -0.237 N 
HETATM   12  H   LIG     1      16.133  38.534  25.059  1.00  0.00     0.197 HD
BRANCH  11  13
HETATM   13  O   LIG     1      14.938  38.271  23.384  1.00  0.00    -0.287 OA
HETATM   14  H   LIG     1      15.309  38.494  22.493  1.00  0.00     0.244 HD
ENDBRANCH  11  13
ENDBRANCH   7   9
ENDBRANCH   1   7
BRANCH   4  15
HETATM   15  C   LIG     1      19.514  39.305  18.123  1.00  0.00     0.042 C 
BRANCH  15  16
HETATM   16  C   LIG     1      18.515  39.863  17.087  1.00  0.00    -0.019 C 
HETATM   17  C   LIG     1      18.950  41.262  16.634  1.00  0.00     0.010 C 
HETATM   18  C   LIG     1      18.384  38.935  15.869  1.00  0.00     0.010 C 
ENDBRANCH  15  16
ENDBRANCH   4  15
TORSDOF 5
ENDMDL
MODEL 5
REMARK VINA RESULT:      -7.2      3.104      6.277
REMARK  5 active torsions:
REMARK  status: ('A' for Active; 'I' for Inactive)
REMARK    1  A    between atoms: C_2  and  C_5 
REMARK       I    between atoms: C_2  and  N_3 
REMARK    2  A    between atoms: N_3  and  O_4 
REMARK    3  A    between atoms: C_5  and  C_6 
REMARK    4  A    between atoms: C_9  and  C_10 
REMARK    5  A    between atoms: C_10  and  C_11 
ROOT
HETATM    1  C   LIG     1      17.744  37.563  21.387  1.00  0.00    -0.045 A 
HETATM    2  C   LIG     1      18.105  36.769  20.282  1.00  0.00     0.008 A 
HETATM    3  C   LIG     1      18.701  37.347  19.158  1.00  0.00     0.007 A 
HETATM    4  C   LIG     1      18.952  38.727  19.118  1.00  0.00    -0.058 A 
HETATM    5  C   LIG     1      18.589  39.522  20.216  1.00  0.00     0.007 A 
HETATM    6  C   LIG     1      17.993  38.945  21.341  1.00  0.00     0.008 A 
ENDROOT
BRANCH   1   7
HETATM    7  C   LIG     1      17.098  36.947  22.610  1.00  0.00     0.108 C 
HETATM    8  C   LIG     1      17.716  37.505  23.899  1.00  0.00     0.025 C 
BRANCH   7   9
HETATM    9  C   LIG     1      15.599  37.135  22.565  1.00  0.00     0.249 C 
HETATM   10  O   LIG     1      15.072  38.159  23.080  1.00  0.00    -0.271 OA
HETATM   11  N   LIG     1      14.765  36.189  21.887  1.00  0.00    -0.237 N 
HETATM   12  H   LIG     1      13.732  36.344  21.850  1.00  0.00     0.197 HD
BRANCH  11  13
HETATM   13  O   LIG     1      15.295  35.118  21.249  1.00  0.00    -0.287 OA
HETATM   14  H   LIG     1      16.239  35.084  21.547  1.00  0.00     0.244 HD
ENDBRANCH  11  13
ENDBRANCH   7   9
ENDBRANCH   1   7
BRANCH   4  15
HETATM   15  C   LIG     1      19.571  39.358  17.897  1.00  0.00     0.042 C 
BRANCH  15  16
HETATM   16  C   LIG     1      18.507  39.931  16.937  1.00  0.00    -0.019 C 
HETATM   17  C   LIG     1      18.928  41.325  16.455  1.00  0.00     0.010 C 
HETATM   18  C   LIG     1      18.275  39.006  15.731  1.00  0.00     0.010 C 
ENDBRANCH  15  16
ENDBRANCH   4  15
TORSDOF 5
ENDMDL
MODEL 6
REMARK VINA RESULT:      -7.1      4.430      4.889
REMARK  5 active torsions:
REMARK  status: ('A' for Active; 'I' for Inactive)
REMARK    1  A    between atoms: C_2  and  C_5 
REMARK       I    between atoms: C_2  and  N_3 
REMARK    2  A    between atoms: N_3  and  O_4 
REMARK    3  A    between atoms: C_5  and  C_6 
REMARK    4  A    between atoms: C_9  and  C_10 
REMARK    5  A    between atoms: C_10  and  C_11 
ROOT
HETATM    1  C   LIG     1      15.744  35.236  21.184  1.00  0.00    -0.045 A 
HETATM    2  C   LIG     1      16.811  34.634  21.876  1.00  0.00     0.008 A 
HETATM    3  C   LIG     1      17.316  35.213  23.044  1.00  0.00     0.007 A 
HETATM    4  C   LIG     1      16.762  36.402  23.543  1.00  0.00    -0.058 A 
HETATM    5  C   LIG     1      15.701  37.007  22.852  1.00  0.00     0.007 A 
HETATM    6  C   LIG     1      15.195  36.428  21.685  1.00  0.00     0.008 A 
ENDROOT
BRANCH   1   7
HETATM    7  C   LIG     1      15.189  34.616  19.918  1.00  0.00     0.108 C 
HETATM    8  C   LIG     1      16.012  35.036  18.693  1.00  0.00     0.025 C 
BRANCH   7   9
HETATM    9  C   LIG     1      15.103  33.114  20.062  1.00  0.00     0.249 C 
HETATM   10  O   LIG     1      15.855  32.366  19.379  1.00  0.00    -0.271 OA
HETATM   11  N   LIG     1      14.214  32.522  21.016  1.00  0.00    -0.237 N 
HETATM   12  H   LIG     1      14.180  31.483  21.115  1.00  0.00     0.197 HD
BRANCH  11  13
HETATM   13  O   LIG     1      13.448  33.288  21.830  1.00  0.00    -0.287 OA
HETATM   14  H   LIG     1      12.536  33.234  21.446  1.00  0.00     0.244 HD
ENDBRANCH  11  13
ENDBRANCH   7   9
ENDBRANCH   1   7
BRANCH   4  15
HETATM   15  C   LIG     1      17.321  37.043  24.788  1.00  0.00     0.042 C 
BRANCH  15  16
HETATM   16  C   LIG     1      18.140  36.047  25.636  1.00  0.00    -0.019 C 
HETATM   17  C   LIG     1      18.814  36.778  26.804  1.00  0.00     0.010 C 
HETATM   18  C   LIG     1      17.264  34.902  26.168  1.00  0.00     0.010 C 
ENDBRANCH  15  16
ENDBRANCH   4  15
TORSDOF 5
ENDMDL
MODEL 7
REMARK VINA RESULT:      -7.0      9.332     11.028
REMARK  5 active torsions:
REMARK  status: ('A' for Active; 'I' for Inactive)
REMARK    1  A    between atoms: C_2  and  C_5 
REMARK       I    between atoms: C_2  and  N_3 
REMARK    2  A    between atoms: N_3  and  O_4 
REMARK    3  A    between atoms: C_5  and  C_6 
REMARK    4  A    between atoms: C_9  and  C_10 
REMARK    5  A    between atoms: C_10  and  C_11 
ROOT
HETATM    1  C   LIG     1      15.164  31.705  15.661  1.00  0.00    -0.045 A 
HETATM    2  C   LIG     1      13.986  31.300  16.316  1.00  0.00     0.008 A 
HETATM    3  C   LIG     1      13.132  30.363  15.727  1.00  0.00     0.007 A 
HETATM    4  C   LIG     1      13.442  29.810  14.475  1.00  0.00    -0.058 A 
HETATM    5  C   LIG     1      14.614  30.214  13.818  1.00  0.00     0.007 A 
HETATM    6  C   LIG     1      15.468  31.151  14.406  1.00  0.00     0.008 A 
ENDROOT
BRANCH   1   7
HETATM    7  C   LIG     1      16.096  32.719  16.291  1.00  0.00     0.108 C 
HETATM    8  C   LIG     1      16.968  33.400  15.227  1.00  0.00     0.025 C 
BRANCH   7   9
HETATM    9  C   LIG     1      15.311  33.715  17.113  1.00  0.00     0.249 C 
HETATM   10  O   LIG     1      14.709  34.669  16.549  1.00  0.00    -0.271 OA
HETATM   11  N   LIG     1      15.191  33.556  18.531  1.00  0.00    -0.237 N 
HETATM   12  H   LIG     1      14.630  34.244  19.082  1.00  0.00     0.197 HD
BRANCH  11  13
HETATM   13  O   LIG     1      15.751  32.501  19.169  1.00  0.00    -0.287 OA
HETATM   14  H   LIG     1      16.393  32.120  18.517  1.00  0.00     0.244 HD
ENDBRANCH  11  13
ENDBRANCH   7   9
ENDBRANCH   1   7
BRANCH   4  15
HETATM   15  C   LIG     1      12.510  28.818  13.825  1.00  0.00     0.042 C 
BRANCH  15  16
HETATM   16  C   LIG     1      13.080  27.384  13.851  1.00  0.00    -0.019 C 
HETATM   17  C   LIG     1      12.289  26.485  12.893  1.00  0.00     0.010 C 
HETATM   18  C   LIG     1      14.572  27.361  13.481  1.00  0.00     0.010 C 
ENDBRANCH  15  16
ENDBRANCH   4  15
TORSDOF 5
ENDMDL
MODEL 8
REMARK VINA RESULT:      -7.0      5.944      7.074
REMARK  5 active torsions:
REMARK  status: ('A' for Active; 'I' for Inactive)
REMARK    1  A    between atoms: C_2  and  C_5 
REMARK       I    between atoms: C_2  and  N_3 
REMARK    2  A    between atoms: N_3  and  O_4 
REMARK    3  A    between atoms: C_5  and  C_6 
REMARK    4  A    between atoms: C_9  and  C_10 
REMARK    5  A    between atoms: C_10  and  C_11 
ROOT
HETATM    1  C   LIG     1      15.131  33.004  17.428  1.00  0.00    -0.045 A 
HETATM    2  C   LIG     1      15.127  34.390  17.672  1.00  0.00     0.008 A 
HETATM    3  C   LIG     1      15.260  34.881  18.974  1.00  0.00     0.007 A 
HETATM    4  C   LIG     1      15.404  33.998  20.054  1.00  0.00    -0.058 A 
HETATM    5  C   LIG     1      15.405  32.615  19.814  1.00  0.00     0.007 A 
HETATM    6  C   LIG     1      15.272  32.122  18.513  1.00  0.00     0.008 A 
ENDROOT
BRANCH   1   7
HETATM    7  C   LIG     1      14.989  32.461  16.021  1.00  0.00     0.108 C 
HETATM    8  C   LIG     1      16.363  32.239  15.375  1.00  0.00     0.025 C 
BRANCH   7   9
HETATM    9  C   LIG     1      14.147  31.206  16.024  1.00  0.00     0.249 C 
HETATM   10  O   LIG     1      14.627  30.118  15.603  1.00  0.00    -0.271 OA
HETATM   11  N   LIG     1      12.820  31.219  16.559  1.00  0.00    -0.237 N 
HETATM   12  H   LIG     1      12.258  30.338  16.569  1.00  0.00     0.197 HD
BRANCH  11  13
HETATM   13  O   LIG     1      12.292  32.345  17.098  1.00  0.00    -0.287 OA
HETATM   14  H   LIG     1      12.043  32.092  18.024  1.00  0.00     0.244 HD
ENDBRANCH  11  13
ENDBRANCH   7   9
ENDBRANCH   1   7
BRANCH   4  15
HETATM   15  C   LIG     1      15.521  34.524  21.463  1.00  0.00     0.042 C 
BRANCH  15  16
HETATM   16  C   LIG     1      16.968  34.933  21.810  1.00  0.00    -0.019 C 
HETATM   17  C   LIG     1      17.344  36.222  21.067  1.00  0.00     0.010 C 
HETATM   18  C   LIG     1      17.155  35.126  23.323  1.00  0.00     0.010 C 
ENDBRANCH  15  16
ENDBRANCH   4  15
TORSDOF 5
ENDMDL
MODEL 9
REMARK VINA RESULT:      -7.0      1.549      2.125
REMARK  5 active torsions:
REMARK  status: ('A' for Active; 'I' for Inactive)
REMARK    1  A    between atoms: C_2  and  C_5 
REMARK       I    between atoms: C_2  and  N_3 
REMARK    2  A    between atoms: N_3  and  O_4 
REMARK    3  A    between atoms: C_5  and  C_6 
REMARK    4  A    between atoms: C_9  and  C_10 
REMARK    5  A    between atoms: C_10  and  C_11 
ROOT
HETATM    1  C   LIG     1      18.216  38.065  20.846  1.00  0.00    -0.045 A 
HETATM    2  C   LIG     1      17.509  36.877  21.110  1.00  0.00     0.008 A 
HETATM    3  C   LIG     1      17.092  36.574  22.409  1.00  0.00     0.007 A 
HETATM    4  C   LIG     1      17.367  37.454  23.466  1.00  0.00    -0.058 A 
HETATM    5  C   LIG     1      18.074  38.638  23.207  1.00  0.00     0.007 A 
HETATM    6  C   LIG     1      18.493  38.942  21.908  1.00  0.00     0.008 A 
ENDROOT
BRANCH   1   7
HETATM    7  C   LIG     1      18.672  38.404  19.442  1.00  0.00     0.108 C 
HETATM    8  C   LIG     1      18.064  39.732  18.970  1.00  0.00     0.025 C 
BRANCH   7   9
HETATM    9  C   LIG     1      20.181  38.405  19.365  1.00  0.00     0.249 C 
HETATM   10  O   LIG     1      20.814  39.495  19.318  1.00  0.00    -0.271 OA
HETATM   11  N   LIG     1      20.915  37.176  19.406  1.00  0.00    -0.237 N 
HETATM   12  H   LIG     1      21.959  37.196  19.370  1.00  0.00     0.197 HD
BRANCH  11  13
HETATM   13  O   LIG     1      20.282  35.986  19.539  1.00  0.00    -0.287 OA
HETATM   14  H   LIG     1      19.902  35.798  18.644  1.00  0.00     0.244 HD
ENDBRANCH  11  13
ENDBRANCH   7   9
ENDBRANCH   1   7
BRANCH   4  15
HETATM   15  C   LIG     1      16.941  37.118  24.873  1.00  0.00     0.042 C 
BRANCH  15  16
HETATM   16  C   LIG     1      17.868  36.071  25.526  1.00  0.00    -0.019 C 
HETATM   17  C   LIG     1      18.483  36.640  26.811  1.00  0.00     0.010 C 
HETATM   18  C   LIG     1      17.120  34.765  25.835  1.00  0.00     0.010 C 
ENDBRANCH  15  16
ENDBRANCH   4  15
TORSDOF 5
ENDMDL
MODEL 10
REMARK VINA RESULT:      -7.0      4.018      5.179
REMARK  5 active torsions:
REMARK  status: ('A' for Active; 'I' for Inactive)
REMARK    1  A    between atoms: C_2  and  C_5 
REMARK       I    between atoms: C_2  and  N_3 
REMARK    2  A    between atoms: N_3  and  O_4 
REMARK    3  A    between atoms: C_5  and  C_6 
REMARK    4  A    between atoms: C_9  and  C_10 
REMARK    5  A    between atoms: C_10  and  C_11 
ROOT
HETATM    1  C   LIG     1      15.620  35.037  19.947  1.00  0.00    -0.045 A 
HETATM    2  C   LIG     1      14.886  35.375  21.099  1.00  0.00     0.008 A 
HETATM    3  C   LIG     1      15.443  36.203  22.077  1.00  0.00     0.007 A 
HETATM    4  C   LIG     1      16.741  36.714  21.920  1.00  0.00    -0.058 A 
HETATM    5  C   LIG     1      17.476  36.376  20.774  1.00  0.00     0.007 A 
HETATM    6  C   LIG     1      16.921  35.548  19.795  1.00  0.00     0.008 A 
ENDROOT
BRANCH   1   7
HETATM    7  C   LIG     1      15.026  34.141  18.880  1.00  0.00     0.108 C 
HETATM    8  C   LIG     1      15.605  34.471  17.498  1.00  0.00     0.025 C 
BRANCH   7   9
HETATM    9  C   LIG     1      15.215  32.687  19.249  1.00  0.00     0.249 C 
HETATM   10  O   LIG     1      16.118  32.351  20.063  1.00  0.00    -0.271 OA
HETATM   11  N   LIG     1      14.338  31.683  18.729  1.00  0.00    -0.237 N 
HETATM   12  H   LIG     1      14.473  30.685  19.008  1.00  0.00     0.197 HD
BRANCH  11  13
HETATM   13  O   LIG     1      13.304  32.007  17.916  1.00  0.00    -0.287 OA
HETATM   14  H   LIG     1      13.185  31.218  17.328  1.00  0.00     0.244 HD
ENDBRANCH  11  13
ENDBRANCH   7   9
ENDBRANCH   1   7
BRANCH   4  15
HETATM   15  C   LIG     1      17.354  37.587  22.985  1.00  0.00     0.042 C 
BRANCH  15  16
HETATM   16  C   LIG     1      16.881  37.194  24.401  1.00  0.00    -0.019 C 
HETATM   17  C   LIG     1      17.428  35.810  24.775  1.00  0.00     0.010 C 
HETATM   18  C   LIG     1      17.312  38.230  25.451  1.00  0.00     0.010 C 
ENDBRANCH  15  16
ENDBRANCH   4  15
TORSDOF 5
ENDMDL
MODEL 11
REMARK VINA RESULT:      -6.9      3.980      5.464
REMARK  5 active torsions:
REMARK  status: ('A' for Active; 'I' for Inactive)
REMARK    1  A    between atoms: C_2  and  C_5 
REMARK       I    between atoms: C_2  and  N_3 
REMARK    2  A    between atoms: N_3  and  O_4 
REMARK    3  A    between atoms: C_5  and  C_6 
REMARK    4  A    between atoms: C_9  and  C_10 
REMARK    5  A    between atoms: C_10  and  C_11 
ROOT
HETATM    1  C   LIG     1      15.683  34.248  20.679  1.00  0.00    -0.045 A 
HETATM    2  C   LIG     1      14.594  35.116  20.882  1.00  0.00     0.008 A 
HETATM    3  C   LIG     1      14.746  36.278  21.645  1.00  0.00     0.007 A 
HETATM    4  C   LIG     1      15.989  36.595  22.213  1.00  0.00    -0.058 A 
HETATM    5  C   LIG     1      17.076  35.730  22.015  1.00  0.00     0.007 A 
HETATM    6  C   LIG     1      16.925  34.568  21.253  1.00  0.00     0.008 A 
ENDROOT
BRANCH   1   7
HETATM    7  C   LIG     1      15.530  32.988  19.853  1.00  0.00     0.108 C 
HETATM    8  C   LIG     1      14.568  32.001  20.529  1.00  0.00     0.025 C 
BRANCH   7   9
HETATM    9  C   LIG     1      15.103  33.330  18.444  1.00  0.00     0.249 C 
HETATM   10  O   LIG     1      15.573  34.348  17.868  1.00  0.00    -0.271 OA
HETATM   11  N   LIG     1      14.210  32.472  17.725  1.00  0.00    -0.237 N 
HETATM   12  H   LIG     1      13.938  32.715  16.745  1.00  0.00     0.197 HD
BRANCH  11  13
HETATM   13  O   LIG     1      13.744  31.325  18.274  1.00  0.00    -0.287 OA
HETATM   14  H   LIG     1      12.843  31.553  18.617  1.00  0.00     0.244 HD
ENDBRANCH  11  13
ENDBRANCH   7   9
ENDBRANCH   1   7
BRANCH   4  15
HETATM   15  C   LIG     1      16.150  37.835  23.058  1.00  0.00     0.042 C 
BRANCH  15  16
HETATM   16  C   LIG     1      17.545  37.913  23.712  1.00  0.00    -0.019 C 
HETATM   17  C   LIG     1      18.397  38.979  23.012  1.00  0.00     0.010 C 
HETATM   18  C   LIG     1      17.450  38.222  25.215  1.00  0.00     0.010 C 
ENDBRANCH  15  16
ENDBRANCH   4  15
TORSDOF 5
ENDMDL
MODEL 12
REMARK VINA RESULT:      -6.8      8.682      9.921
REMARK  5 active torsions:
REMARK  status: ('A' for Active; 'I' for Inactive)
REMARK    1  A    between atoms: C_2  and  C_5 
REMARK       I    between atoms: C_2  and  N_3 
REMARK    2  A    between atoms: N_3  and  O_4 
REMARK    3  A    between atoms: C_5  and  C_6 
REMARK    4  A    between atoms: C_9  and  C_10 
REMARK    5  A    between atoms: C_10  and  C_11 
ROOT
HETATM    1  C   LIG     1      14.748  30.902  14.864  1.00  0.00    -0.045 A 
HETATM    2  C   LIG     1      15.782  31.819  15.130  1.00  0.00     0.008 A 
HETATM    3  C   LIG     1      15.778  32.573  16.307  1.00  0.00     0.007 A 
HETATM    4  C   LIG     1      14.743  32.420  17.242  1.00  0.00    -0.058 A 
HETATM    5  C   LIG     1      13.708  31.510  16.979  1.00  0.00     0.007 A 
HETATM    6  C   LIG     1      13.712  30.756  15.802  1.00  0.00     0.008 A 
ENDROOT
BRANCH   1   7
HETATM    7  C   LIG     1      14.744  30.081  13.592  1.00  0.00     0.108 C 
HETATM    8  C   LIG     1      15.904  30.485  12.672  1.00  0.00     0.025 C 
BRANCH   7   9
HETATM    9  C   LIG     1      14.758  28.605  13.918  1.00  0.00     0.249 C 
HETATM   10  O   LIG     1      15.825  28.049  14.295  1.00  0.00    -0.271 OA
HETATM   11  N   LIG     1      13.553  27.834  13.863  1.00  0.00    -0.237 N 
HETATM   12  H   LIG     1      13.578  26.819  14.109  1.00  0.00     0.197 HD
BRANCH  11  13
HETATM   13  O   LIG     1      12.368  28.407  13.543  1.00  0.00    -0.287 OA
HETATM   14  H   LIG     1      12.540  28.893  12.697  1.00  0.00     0.244 HD
ENDBRANCH  11  13
ENDBRANCH   7   9
ENDBRANCH   1   7
BRANCH   4  15
HETATM   15  C   LIG     1      14.721  33.250  18.502  1.00  0.00     0.042 C 
BRANCH  15  16
HETATM   16  C   LIG     1      15.546  32.605  19.635  1.00  0.00    -0.019 C 
HETATM   17  C   LIG     1      15.829  33.637  20.735  1.00  0.00     0.010 C 
HETATM   18  C   LIG     1      14.829  31.384  20.234  1.00  0.00     0.010 C 
ENDBRANCH  15  16
ENDBRANCH   4  15
TORSDOF 5
ENDMDL
MODEL 13
REMARK VINA RESULT:      -6.7      5.973      7.294
REMARK  5 active torsions:
REMARK  status: ('A' for Active; 'I' for Inactive)
REMARK    1  A    between atoms: C_2  and  C_5 
REMARK       I    between atoms: C_2  and  N_3 
REMARK    2  A    between atoms: N_3  and  O_4 
REMARK    3  A    between atoms: C_5  and  C_6 
REMARK    4  A    between atoms: C_9  and  C_10 
REMARK    5  A    between atoms: C_10  and  C_11 
ROOT
HETATM    1  C   LIG     1      14.867  32.419  17.681  1.00  0.00    -0.045 A 
HETATM    2  C   LIG     1      14.962  33.797  17.415  1.00  0.00     0.008 A 
HETATM    3  C   LIG     1      15.194  34.706  18.452  1.00  0.00     0.007 A 
HETATM    4  C   LIG     1      15.339  34.253  19.772  1.00  0.00    -0.058 A 
HETATM    5  C   LIG     1      15.240  32.879  20.041  1.00  0.00     0.007 A 
HETATM    6  C   LIG     1      15.009  31.970  19.005  1.00  0.00     0.008 A 
ENDROOT
BRANCH   1   7
HETATM    7  C   LIG     1      14.617  31.426  16.564  1.00  0.00     0.108 C 
HETATM    8  C   LIG     1      13.114  31.265  16.298  1.00  0.00     0.025 C 
BRANCH   7   9
HETATM    9  C   LIG     1      15.379  31.829  15.322  1.00  0.00     0.249 C 
HETATM   10  O   LIG     1      15.785  33.014  15.182  1.00  0.00    -0.271 OA
HETATM   11  N   LIG     1      15.702  30.859  14.320  1.00  0.00    -0.237 N 
HETATM   12  H   LIG     1      16.245  31.150  13.476  1.00  0.00     0.197 HD
BRANCH  11  13
HETATM   13  O   LIG     1      15.359  29.557  14.466  1.00  0.00    -0.287 OA
HETATM   14  H   LIG     1      14.629  29.410  13.812  1.00  0.00     0.244 HD
ENDBRANCH  11  13
ENDBRANCH   7   9
ENDBRANCH   1   7
BRANCH   4  15
HETATM   15  C   LIG     1      15.563  35.232  20.897  1.00  0.00     0.042 C 
BRANCH  15  16
HETATM   16  C   LIG     1      17.024  35.220  21.394  1.00  0.00    -0.019 C 
HETATM   17  C   LIG     1      17.801  36.390  20.777  1.00  0.00     0.010 C 
HETATM   18  C   LIG     1      17.102  35.289  22.927  1.00  0.00     0.010 C 
ENDBRANCH  15  16
ENDBRANCH   4  15
TORSDOF 5
ENDMDL
MODEL 14
REMARK VINA RESULT:      -6.7      2.672      4.092
REMARK  5 active torsions:
REMARK  status: ('A' for Active; 'I' for Inactive)
REMARK    1  A    between atoms: C_2  and  C_5 
REMARK       I    between atoms: C_2  and  N_3 
REMARK    2  A    between atoms: N_3  and  O_4 
REMARK    3  A    between atoms: C_5  and  C_6 
REMARK    4  A    between atoms: C_9  and  C_10 
REMARK    5  A    between atoms: C_10  and  C_11 
ROOT
HETATM    1  C   LIG     1      17.808  37.726  20.901  1.00  0.00    -0.045 A 
HETATM    2  C   LIG     1      16.948  37.511  21.994  1.00  0.00     0.008 A 
HETATM    3  C   LIG     1      16.152  36.363  22.056  1.00  0.00     0.007 A 
HETATM    4  C   LIG     1      16.204  35.408  21.029  1.00  0.00    -0.058 A 
HETATM    5  C   LIG     1      17.058  35.621  19.936  1.00  0.00     0.007 A 
HETATM    6  C   LIG     1      17.854  36.768  19.874  1.00  0.00     0.008 A 
ENDROOT
BRANCH   1   7
HETATM    7  C   LIG     1      18.675  38.965  20.825  1.00  0.00     0.108 C 
HETATM    8  C   LIG     1      19.313  39.275  22.187  1.00  0.00     0.025 C 
BRANCH   7   9
HETATM    9  C   LIG     1      19.706  38.820  19.730  1.00  0.00     0.249 C 
HETATM   10  O   LIG     1      20.740  38.123  19.919  1.00  0.00    -0.271 OA
HETATM   11  N   LIG     1      19.495  39.418  18.446  1.00  0.00    -0.237 N 
HETATM   12  H   LIG     1      20.210  39.293  17.694  1.00  0.00     0.197 HD
BRANCH  11  13
HETATM   13  O   LIG     1      18.361  40.106  18.170  1.00  0.00    -0.287 OA
HETATM   14  H   LIG     1      18.492  40.993  18.592  1.00  0.00     0.244 HD
ENDBRANCH  11  13
ENDBRANCH   7   9
ENDBRANCH   1   7
BRANCH   4  15
HETATM   15  C   LIG     1      15.328  34.182  21.080  1.00  0.00     0.042 C 
BRANCH  15  16
HETATM   16  C   LIG     1      15.613  33.217  19.909  1.00  0.00    -0.019 C 
HETATM   17  C   LIG     1      14.975  31.849  20.186  1.00  0.00     0.010 C 
HETATM   18  C   LIG     1      15.096  33.777  18.575  1.00  0.00     0.010 C 
ENDBRANCH  15  16
ENDBRANCH   4  15
TORSDOF 5
ENDMDL
MODEL 15
REMARK VINA RESULT:      -6.6      9.416     11.397
REMARK  5 active torsions:
REMARK  status: ('A' for Active; 'I' for Inactive)
REMARK    1  A    between atoms: C_2  and  C_5 
REMARK       I    between atoms: C_2  and  N_3 
REMARK    2  A    between atoms: N_3  and  O_4 
REMARK    3  A    between atoms: C_5  and  C_6 
REMARK    4  A    between atoms: C_9  and  C_10 
REMARK    5  A    between atoms: C_10  and  C_11 
ROOT
HETATM    1  C   LIG     1      15.345  31.320  14.937  1.00  0.00    -0.045 A 
HETATM    2  C   LIG     1      15.975  32.244  15.792  1.00  0.00     0.008 A 
HETATM    3  C   LIG     1      16.846  33.208  15.275  1.00  0.00     0.007 A 
HETATM    4  C   LIG     1      17.098  33.270  13.896  1.00  0.00    -0.058 A 
HETATM    5  C   LIG     1      16.473  32.348  13.042  1.00  0.00     0.007 A 
HETATM    6  C   LIG     1      15.603  31.384  13.558  1.00  0.00     0.008 A 
ENDROOT
BRANCH   1   7
HETATM    7  C   LIG     1      14.399  30.273  15.487  1.00  0.00     0.108 C 
HETATM    8  C   LIG     1      13.367  30.903  16.432  1.00  0.00     0.025 C 
BRANCH   7   9
HETATM    9  C   LIG     1      13.749  29.506  14.358  1.00  0.00     0.249 C 
HETATM   10  O   LIG     1      12.610  29.844  13.934  1.00  0.00    -0.271 OA
HETATM   11  N   LIG     1      14.440  28.429  13.715  1.00  0.00    -0.237 N 
HETATM   12  H   LIG     1      13.983  27.921  12.925  1.00  0.00     0.197 HD
BRANCH  11  13
HETATM   13  O   LIG     1      15.697  28.084  14.082  1.00  0.00    -0.287 OA
HETATM   14  H   LIG     1      15.811  28.463  14.990  1.00  0.00     0.244 HD
ENDBRANCH  11  13
ENDBRANCH   7   9
ENDBRANCH   1   7
BRANCH   4  15
HETATM   15  C   LIG     1      18.056  34.292  13.338  1.00  0.00     0.042 C 
BRANCH  15  16
HETATM   16  C   LIG     1      19.023  33.677  12.304  1.00  0.00    -0.019 C 
HETATM   17  C   LIG     1      18.913  34.425  10.969  1.00  0.00     0.010 C 
HETATM   18  C   LIG     1      20.477  33.704  12.802  1.00  0.00     0.010 C 
ENDBRANCH  15  16
ENDBRANCH   4  15
TORSDOF 5
ENDMDL
MODEL 16
REMARK VINA RESULT:      -6.6      6.960      8.220
REMARK  5 active torsions:
REMARK  status: ('A' for Active; 'I' for Inactive)
REMARK    1  A    between atoms: C_2  and  C_5 
REMARK       I    between atoms: C_2  and  N_3 
REMARK    2  A    between atoms: N_3  and  O_4 
REMARK    3  A    between atoms: C_5  and  C_6 
REMARK    4  A    between atoms: C_9  and  C_10 
REMARK    5  A    between atoms: C_10  and  C_11 
ROOT
HETATM    1  C   LIG     1      14.608  32.223  16.984  1.00  0.00    -0.045 A 
HETATM    2  C   LIG     1      14.964  33.584  17.041  1.00  0.00     0.008 A 
HETATM    3  C   LIG     1      15.350  34.166  18.251  1.00  0.00     0.007 A 
HETATM    4  C   LIG     1      15.393  33.398  19.425  1.00  0.00    -0.058 A 
HETATM    5  C   LIG     1      15.035  32.043  19.373  1.00  0.00     0.007 A 
HETATM    6  C   LIG     1      14.648  31.460  18.163  1.00  0.00     0.008 A 
ENDROOT
BRANCH   1   7
HETATM    7  C   LIG     1      14.188  31.583  15.677  1.00  0.00     0.108 C 
HETATM    8  C   LIG     1      15.366  30.848  15.021  1.00  0.00     0.025 C 
BRANCH   7   9
HETATM    9  C   LIG     1      12.997  30.678  15.893  1.00  0.00     0.249 C 
HETATM   10  O   LIG     1      12.216  30.877  16.862  1.00  0.00    -0.271 OA
HETATM   11  N   LIG     1      12.706  29.623  14.969  1.00  0.00    -0.237 N 
HETATM   12  H   LIG     1      11.869  29.018  15.124  1.00  0.00     0.197 HD
BRANCH  11  13
HETATM   13  O   LIG     1      13.470  29.423  13.868  1.00  0.00    -0.287 OA
HETATM   14  H   LIG     1      12.928  29.770  13.115  1.00  0.00     0.244 HD
ENDBRANCH  11  13
ENDBRANCH   7   9
ENDBRANCH   1   7
BRANCH   4  15
HETATM   15  C   LIG     1      15.784  34.029  20.738  1.00  0.00     0.042 C 
BRANCH  15  16
HETATM   16  C   LIG     1      15.892  35.565  20.634  1.00  0.00    -0.019 C 
HETATM   17  C   LIG     1      14.957  36.230  21.652  1.00  0.00     0.010 C 
HETATM   18  C   LIG     1      17.335  36.048  20.853  1.00  0.00     0.010 C 
ENDBRANCH  15  16
ENDBRANCH   4  15
TORSDOF 5
ENDMDL
MODEL 17
REMARK VINA RESULT:      -6.5      8.240     10.140
REMARK  5 active torsions:
REMARK  status: ('A' for Active; 'I' for Inactive)
REMARK    1  A    between atoms: C_2  and  C_5 
REMARK       I    between atoms: C_2  and  N_3 
REMARK    2  A    between atoms: N_3  and  O_4 
REMARK    3  A    between atoms: C_5  and  C_6 
REMARK    4  A    between atoms: C_9  and  C_10 
REMARK    5  A    between atoms: C_10  and  C_11 
ROOT
HETATM    1  C   LIG     1      14.753  32.092  17.520  1.00  0.00    -0.045 A 
HETATM    2  C   LIG     1      15.750  32.191  16.532  1.00  0.00     0.008 A 
HETATM    3  C   LIG     1      15.627  31.492  15.327  1.00  0.00     0.007 A 
HETATM    4  C   LIG     1      14.503  30.687  15.087  1.00  0.00    -0.058 A 
HETATM    5  C   LIG     1      13.509  30.584  16.072  1.00  0.00     0.007 A 
HETATM    6  C   LIG     1      13.632  31.282  17.277  1.00  0.00     0.008 A 
ENDROOT
BRANCH   1   7
HETATM    7  C   LIG     1      14.878  32.846  18.828  1.00  0.00     0.108 C 
HETATM    8  C   LIG     1      15.816  32.115  19.797  1.00  0.00     0.025 C 
BRANCH   7   9
HETATM    9  C   LIG     1      15.312  34.271  18.575  1.00  0.00     0.249 C 
HETATM   10  O   LIG     1      15.682  34.628  17.423  1.00  0.00    -0.271 OA
HETATM   11  N   LIG     1      15.253  35.248  19.620  1.00  0.00    -0.237 N 
HETATM   12  H   LIG     1      15.541  36.233  19.424  1.00  0.00     0.197 HD
BRANCH  11  13
HETATM   13  O   LIG     1      14.786  34.931  20.852  1.00  0.00    -0.287 OA
HETATM   14  H   LIG     1      14.077  35.599  21.035  1.00  0.00     0.244 HD
ENDBRANCH  11  13
ENDBRANCH   7   9
ENDBRANCH   1   7
BRANCH   4  15
HETATM   15  C   LIG     1      14.379  29.911  13.799  1.00  0.00     0.042 C 
BRANCH  15  16
HETATM   16  C   LIG     1      14.409  28.386  14.035  1.00  0.00    -0.019 C 
HETATM   17  C   LIG     1      13.044  27.773  13.701  1.00  0.00     0.010 C 
HETATM   18  C   LIG     1      15.508  27.706  13.203  1.00  0.00     0.010 C 
ENDBRANCH  15  16
ENDBRANCH   4  15
TORSDOF 5
ENDMDL
MODEL 18
REMARK VINA RESULT:      -6.4      8.240     10.583
REMARK  5 active torsions:
REMARK  status: ('A' for Active; 'I' for Inactive)
REMARK    1  A    between atoms: C_2  and  C_5 
REMARK       I    between atoms: C_2  and  N_3 
REMARK    2  A    between atoms: N_3  and  O_4 
REMARK    3  A    between atoms: C_5  and  C_6 
REMARK    4  A    between atoms: C_9  and  C_10 
REMARK    5  A    between atoms: C_10  and  C_11 
ROOT
HETATM    1  C   LIG     1      15.855  32.467  14.756  1.00  0.00    -0.045 A 
HETATM    2  C   LIG     1      16.562  33.514  15.376  1.00  0.00     0.008 A 
HETATM    3  C   LIG     1      17.617  34.148  14.714  1.00  0.00     0.007 A 
HETATM    4  C   LIG     1      17.983  33.750  13.420  1.00  0.00    -0.058 A 
HETATM    5  C   LIG     1      17.284  32.703  12.800  1.00  0.00     0.007 A 
HETATM    6  C   LIG     1      16.228  32.069  13.461  1.00  0.00     0.008 A 
ENDROOT
BRANCH   1   7
HETATM    7  C   LIG     1      14.709  31.775  15.464  1.00  0.00     0.108 C 
HETATM    8  C   LIG     1      14.690  30.274  15.143  1.00  0.00     0.025 C 
BRANCH   7   9
HETATM    9  C   LIG     1      14.771  32.042  16.950  1.00  0.00     0.249 C 
HETATM   10  O   LIG     1      15.870  32.328  17.500  1.00  0.00    -0.271 OA
HETATM   11  N   LIG     1      13.578  32.035  17.743  1.00  0.00    -0.237 N 
HETATM   12  H   LIG     1      13.636  32.239  18.766  1.00  0.00     0.197 HD
BRANCH  11  13
HETATM   13  O   LIG     1      12.365  31.815  17.182  1.00  0.00    -0.287 OA
HETATM   14  H   LIG     1      12.527  31.838  16.205  1.00  0.00     0.244 HD
ENDBRANCH  11  13
ENDBRANCH   7   9
ENDBRANCH   1   7
BRANCH   4  15
HETATM   15  C   LIG     1      19.139  34.413  12.713  1.00  0.00     0.042 C 
BRANCH  15  16
HETATM   16  C   LIG     1      20.381  33.500  12.649  1.00  0.00    -0.019 C 
HETATM   17  C   LIG     1      20.488  32.851  11.263  1.00  0.00     0.010 C 
HETATM   18  C   LIG     1      21.670  34.274  12.966  1.00  0.00     0.010 C 
ENDBRANCH  15  16
ENDBRANCH   4  15
TORSDOF 5
ENDMDL
MODEL 19
REMARK VINA RESULT:      -6.3      7.724      8.948
REMARK  5 active torsions:
REMARK  status: ('A' for Active; 'I' for Inactive)
REMARK    1  A    between atoms: C_2  and  C_5 
REMARK       I    between atoms: C_2  and  N_3 
REMARK    2  A    between atoms: N_3  and  O_4 
REMARK    3  A    between atoms: C_5  and  C_6 
REMARK    4  A    between atoms: C_9  and  C_10 
REMARK    5  A    between atoms: C_10  and  C_11 
ROOT
HETATM    1  C   LIG     1      14.838  31.523  15.756  1.00  0.00    -0.045 A 
HETATM    2  C   LIG     1      13.998  30.968  16.739  1.00  0.00     0.008 A 
HETATM    3  C   LIG     1      14.070  31.408  18.064  1.00  0.00     0.007 A 
HETATM    4  C   LIG     1      14.977  32.414  18.429  1.00  0.00    -0.058 A 
HETATM    5  C   LIG     1      15.817  32.968  17.452  1.00  0.00     0.007 A 
HETATM    6  C   LIG     1      15.747  32.528  16.127  1.00  0.00     0.008 A 
ENDROOT
BRANCH   1   7
HETATM    7  C   LIG     1      14.768  31.054  14.317  1.00  0.00     0.108 C 
HETATM    8  C   LIG     1      15.813  31.773  13.453  1.00  0.00     0.025 C 
BRANCH   7   9
HETATM    9  C   LIG     1      14.904  29.550  14.248  1.00  0.00     0.249 C 
HETATM   10  O   LIG     1      16.028  29.005  14.420  1.00  0.00    -0.271 OA
HETATM   11  N   LIG     1      13.752  28.723  14.047  1.00  0.00    -0.237 N 
HETATM   12  H   LIG     1      13.861  27.684  14.018  1.00  0.00     0.197 HD
BRANCH  11  13
HETATM   13  O   LIG     1      12.513  29.259  13.939  1.00  0.00    -0.287 OA
HETATM   14  H   LIG     1      12.666  30.209  13.700  1.00  0.00     0.244 HD
ENDBRANCH  11  13
ENDBRANCH   7   9
ENDBRANCH   1   7
BRANCH   4  15
HETATM   15  C   LIG     1      15.074  32.874  19.862  1.00  0.00     0.042 C 
BRANCH  15  16
HETATM   16  C   LIG     1      15.779  34.241  19.986  1.00  0.00    -0.019 C 
HETATM   17  C   LIG     1      14.740  35.368  20.032  1.00  0.00     0.010 C 
HETATM   18  C   LIG     1      16.677  34.304  21.232  1.00  0.00     0.010 C 
ENDBRANCH  15  16
ENDBRANCH   4  15
TORSDOF 5
ENDMDL
MODEL 20
REMARK VINA RESULT:      -6.0      8.348      9.716
REMARK  5 active torsions:
REMARK  status: ('A' for Active; 'I' for Inactive)
REMARK    1  A    between atoms: C_2  and  C_5 
REMARK       I    between atoms: C_2  and  N_3 
REMARK    2  A    between atoms: N_3  and  O_4 
REMARK    3  A    between atoms: C_5  and  C_6 
REMARK    4  A    between atoms: C_9  and  C_10 
REMARK    5  A    between atoms: C_10  and  C_11 
ROOT
HETATM    1  C   LIG     1      14.512  30.746  15.540  1.00  0.00    -0.045 A 
HETATM    2  C   LIG     1      15.683  31.518  15.425  1.00  0.00     0.008 A 
HETATM    3  C   LIG     1      15.915  32.588  16.294  1.00  0.00     0.007 A 
HETATM    4  C   LIG     1      14.985  32.903  17.296  1.00  0.00    -0.058 A 
HETATM    5  C   LIG     1      13.815  32.137  17.411  1.00  0.00     0.007 A 
HETATM    6  C   LIG     1      13.581  31.067  16.543  1.00  0.00     0.008 A 
ENDROOT
BRANCH   1   7
HETATM    7  C   LIG     1      14.251  29.584  14.605  1.00  0.00     0.108 C 
HETATM    8  C   LIG     1      12.780  29.550  14.166  1.00  0.00     0.025 C 
BRANCH   7   9
HETATM    9  C   LIG     1      15.198  29.632  13.428  1.00  0.00     0.249 C 
HETATM   10  O   LIG     1      15.639  30.739  13.013  1.00  0.00    -0.271 OA
HETATM   11  N   LIG     1      15.655  28.425  12.810  1.00  0.00    -0.237 N 
HETATM   12  H   LIG     1      16.324  28.476  12.008  1.00  0.00     0.197 HD
BRANCH  11  13
HETATM   13  O   LIG     1      15.274  27.211  13.274  1.00  0.00    -0.287 OA
HETATM   14  H   LIG     1      15.417  27.255  14.253  1.00  0.00     0.244 HD
ENDBRANCH  11  13
ENDBRANCH   7   9
ENDBRANCH   1   7
BRANCH   4  15
HETATM   15  C   LIG     1      15.220  34.073  18.218  1.00  0.00     0.042 C 
BRANCH  15  16
HETATM   16  C   LIG     1      15.226  33.649  19.702  1.00  0.00    -0.019 C 
HETATM   17  C   LIG     1      15.801  32.234  19.845  1.00  0.00     0.010 C 
HETATM   18  C   LIG     1      16.029  34.631  20.569  1.00  0.00     0.010 C 
ENDBRANCH  15  16
ENDBRANCH   4  15
TORSDOF 5
ENDMDL
