MODEL 1
REMARK VINA RESULT:      -7.1      0.000      0.000
REMARK  2 active torsions:
REMARK  status: ('A' for Active; 'I' for Inactive)
REMARK       I    between atoms: C_2  and  N_5 
REMARK       I    between atoms: C_2  and  N_3 
REMARK    1  A    between atoms: N_3  and  N_4 
REMARK    2  A    between atoms: N_5  and  C_6 
ROOT
HETATM    1  O   LIG     1      16.130  37.906  24.635  1.00  0.00    -0.246 OA
HETATM    2  C   LIG     1      17.135  38.116  23.906  1.00  0.00     0.335 C 
HETATM    3  N   LIG     1      18.452  38.046  24.471  1.00  0.00    -0.275 N 
HETATM    4  N   LIG     1      16.939  38.478  22.531  1.00  0.00    -0.308 N 
HETATM    5  H   LIG     1      19.277  38.367  23.917  1.00  0.00     0.185 HD
HETATM    6  H   LIG     1      16.035  38.935  22.276  1.00  0.00     0.170 HD
ENDROOT
BRANCH   4   7
HETATM    7  C   LIG     1      17.907  38.258  21.492  1.00  0.00     0.036 A 
HETATM    8  C   LIG     1      18.777  39.298  21.128  1.00  0.00     0.029 A 
HETATM    9  C   LIG     1      19.707  39.114  20.100  1.00  0.00     0.002 A 
HETATM   10  C   LIG     1      19.763  37.897  19.415  1.00  0.00     0.000 A 
HETATM   11  C   LIG     1      18.884  36.865  19.753  1.00  0.00     0.002 A 
HETATM   12  C   LIG     1      17.954  37.044  20.782  1.00  0.00     0.029 A 
ENDBRANCH   4   7
BRANCH   3  13
HETATM   13  N   LIG     1      18.666  37.599  25.786  1.00  0.00    -0.246 NA
HETATM   14  H   LIG     1      18.924  38.428  26.368  1.00  0.00     0.143 HD
HETATM   15  H   LIG     1      17.758  37.223  26.143  1.00  0.00     0.143 HD
ENDBRANCH   3  13
TORSDOF 2
ENDMDL
MODEL 2
REMARK VINA RESULT:      -6.9      3.015      4.907
REMARK  2 active torsions:
REMARK  status: ('A' for Active; 'I' for Inactive)
REMARK       I    between atoms: C_2  and  N_5 
REMARK       I    between atoms: C_2  and  N_3 
REMARK    1  A    between atoms: N_3  and  N_4 
REMARK    2  A    between atoms: N_5  and  C_6 
ROOT
HETATM    1  O   LIG     1      16.142  39.659  22.624  1.00  0.00    -0.246 OA
HETATM    2  C   LIG     1      16.867  38.703  23.008  1.00  0.00     0.335 C 
HETATM    3  N   LIG     1      18.213  38.591  22.526  1.00  0.00    -0.275 N 
HETATM    4  N   LIG     1      16.310  37.710  23.881  1.00  0.00    -0.308 N 
HETATM    5  H   LIG     1      18.766  37.726  22.715  1.00  0.00     0.185 HD
HETATM    6  H   LIG     1      15.274  37.571  23.857  1.00  0.00     0.170 HD
ENDROOT
BRANCH   4   7
HETATM    7  C   LIG     1      17.084  36.894  24.776  1.00  0.00     0.036 A 
HETATM    8  C   LIG     1      17.074  35.499  24.620  1.00  0.00     0.029 A 
HETATM    9  C   LIG     1      17.797  34.685  25.498  1.00  0.00     0.002 A 
HETATM   10  C   LIG     1      18.521  35.256  26.547  1.00  0.00     0.000 A 
HETATM   11  C   LIG     1      18.517  36.642  26.726  1.00  0.00     0.002 A 
HETATM   12  C   LIG     1      17.797  37.460  25.849  1.00  0.00     0.029 A 
ENDBRANCH   4   7
BRANCH   3  13
HETATM   13  N   LIG     1      18.804  39.604  21.752  1.00  0.00    -0.246 NA
HETATM   14  H   LIG     1      19.685  39.900  22.230  1.00  0.00     0.143 HD
HETATM   15  H   LIG     1      19.061  39.186  20.828  1.00  0.00     0.143 HD
ENDBRANCH   3  13
TORSDOF 2
ENDMDL
MODEL 3
REMARK VINA RESULT:      -6.5      2.742      4.833
REMARK  2 active torsions:
REMARK  status: ('A' for Active; 'I' for Inactive)
REMARK       I    between atoms: C_2  and  N_5 
REMARK       I    between atoms: C_2  and  N_3 
REMARK    1  A    between atoms: N_3  and  N_4 
REMARK    2  A    between atoms: N_5  and  C_6 
ROOT
HETATM    1  O   LIG     1      17.577  38.947  21.280  1.00  0.00    -0.246 OA
HETATM    2  C   LIG     1      17.458  37.917  21.995  1.00  0.00     0.335 C 
HETATM    3  N   LIG     1      17.622  36.618  21.407  1.00  0.00    -0.275 N 
HETATM    4  N   LIG     1      17.105  38.062  23.378  1.00  0.00    -0.308 N 
HETATM    5  H   LIG     1      17.376  35.763  21.952  1.00  0.00     0.185 HD
HETATM    6  H   LIG     1      16.582  38.923  23.656  1.00  0.00     0.170 HD
ENDROOT
BRANCH   4   7
HETATM    7  C   LIG     1      17.417  37.099  24.398  1.00  0.00     0.036 A 
HETATM    8  C   LIG     1      18.165  37.497  25.517  1.00  0.00     0.029 A 
HETATM    9  C   LIG     1      18.504  36.569  26.506  1.00  0.00     0.002 A 
HETATM   10  C   LIG     1      18.114  35.234  26.379  1.00  0.00     0.000 A 
HETATM   11  C   LIG     1      17.390  34.823  25.256  1.00  0.00     0.002 A 
HETATM   12  C   LIG     1      17.047  35.748  24.265  1.00  0.00     0.029 A 
ENDBRANCH   4   7
BRANCH   3  13
HETATM   13  N   LIG     1      18.064  36.462  20.083  1.00  0.00    -0.246 NA
HETATM   14  H   LIG     1      17.312  35.966  19.551  1.00  0.00     0.143 HD
HETATM   15  H   LIG     1      18.175  37.417  19.671  1.00  0.00     0.143 HD
ENDBRANCH   3  13
TORSDOF 2
ENDMDL
MODEL 4
REMARK VINA RESULT:      -6.3      3.685      5.011
REMARK  2 active torsions:
REMARK  status: ('A' for Active; 'I' for Inactive)
REMARK       I    between atoms: C_2  and  N_5 
REMARK       I    between atoms: C_2  and  N_3 
REMARK    1  A    between atoms: N_3  and  N_4 
REMARK    2  A    between atoms: N_5  and  C_6 
ROOT
HETATM    1  O   LIG     1      15.970  33.598  20.086  1.00  0.00    -0.246 OA
HETATM    2  C   LIG     1      15.792  34.547  20.896  1.00  0.00     0.335 C 
HETATM    3  N   LIG     1      14.584  34.608  21.668  1.00  0.00    -0.275 N 
HETATM    4  N   LIG     1      16.781  35.583  20.987  1.00  0.00    -0.308 N 
HETATM    5  H   LIG     1      14.360  35.463  22.222  1.00  0.00     0.185 HD
HETATM    6  H   LIG     1      17.387  35.748  20.152  1.00  0.00     0.170 HD
ENDROOT
BRANCH   4   7
HETATM    7  C   LIG     1      16.982  36.408  22.147  1.00  0.00     0.036 A 
HETATM    8  C   LIG     1      17.078  35.807  23.412  1.00  0.00     0.029 A 
HETATM    9  C   LIG     1      17.245  36.593  24.556  1.00  0.00     0.002 A 
HETATM   10  C   LIG     1      17.302  37.985  24.448  1.00  0.00     0.000 A 
HETATM   11  C   LIG     1      17.183  38.593  23.196  1.00  0.00     0.002 A 
HETATM   12  C   LIG     1      17.017  37.811  22.049  1.00  0.00     0.029 A 
ENDBRANCH   4   7
BRANCH   3  13
HETATM   13  N   LIG     1      13.655  33.554  21.663  1.00  0.00    -0.246 NA
HETATM   14  H   LIG     1      14.150  32.692  21.340  1.00  0.00     0.143 HD
HETATM   15  H   LIG     1      13.347  33.400  22.651  1.00  0.00     0.143 HD
ENDBRANCH   3  13
TORSDOF 2
ENDMDL
MODEL 5
REMARK VINA RESULT:      -6.3      3.734      5.133
REMARK  2 active torsions:
REMARK  status: ('A' for Active; 'I' for Inactive)
REMARK       I    between atoms: C_2  and  N_5 
REMARK       I    between atoms: C_2  and  N_3 
REMARK    1  A    between atoms: N_3  and  N_4 
REMARK    2  A    between atoms: N_5  and  C_6 
ROOT
HETATM    1  O   LIG     1      16.074  35.221  19.802  1.00  0.00    -0.246 OA
HETATM    2  C   LIG     1      16.827  35.500  20.772  1.00  0.00     0.335 C 
HETATM    3  N   LIG     1      18.087  36.145  20.534  1.00  0.00    -0.275 N 
HETATM    4  N   LIG     1      16.432  35.115  22.098  1.00  0.00    -0.308 N 
HETATM    5  H   LIG     1      18.780  36.239  21.309  1.00  0.00     0.185 HD
HETATM    6  H   LIG     1      15.779  34.305  22.191  1.00  0.00     0.170 HD
ENDROOT
BRANCH   4   7
HETATM    7  C   LIG     1      16.883  35.767  23.296  1.00  0.00     0.036 A 
HETATM    8  C   LIG     1      17.297  34.989  24.390  1.00  0.00     0.029 A 
HETATM    9  C   LIG     1      17.712  35.603  25.576  1.00  0.00     0.002 A 
HETATM   10  C   LIG     1      17.700  36.996  25.686  1.00  0.00     0.000 A 
HETATM   11  C   LIG     1      17.265  37.777  24.612  1.00  0.00     0.002 A 
HETATM   12  C   LIG     1      16.852  37.168  23.423  1.00  0.00     0.029 A 
ENDBRANCH   4   7
BRANCH   3  13
HETATM   13  N   LIG     1      18.443  36.615  19.260  1.00  0.00    -0.246 NA
HETATM   14  H   LIG     1      18.382  35.812  18.593  1.00  0.00     0.143 HD
HETATM   15  H   LIG     1      17.730  37.326  18.975  1.00  0.00     0.143 HD
ENDBRANCH   3  13
TORSDOF 2
ENDMDL
MODEL 6
REMARK VINA RESULT:      -6.3      2.988      4.112
REMARK  2 active torsions:
REMARK  status: ('A' for Active; 'I' for Inactive)
REMARK       I    between atoms: C_2  and  N_5 
REMARK       I    between atoms: C_2  and  N_3 
REMARK    1  A    between atoms: N_3  and  N_4 
REMARK    2  A    between atoms: N_5  and  C_6 
ROOT
HETATM    1  O   LIG     1      14.989  34.433  21.618  1.00  0.00    -0.246 OA
HETATM    2  C   LIG     1      15.935  35.025  21.033  1.00  0.00     0.335 C 
HETATM    3  N   LIG     1      16.142  34.823  19.628  1.00  0.00    -0.275 N 
HETATM    4  N   LIG     1      16.826  35.848  21.801  1.00  0.00    -0.308 N 
HETATM    5  H   LIG     1      17.008  35.184  19.170  1.00  0.00     0.185 HD
HETATM    6  H   LIG     1      16.925  35.634  22.819  1.00  0.00     0.170 HD
ENDROOT
BRANCH   4   7
HETATM    7  C   LIG     1      17.589  36.938  21.258  1.00  0.00     0.036 A 
HETATM    8  C   LIG     1      18.398  36.719  20.131  1.00  0.00     0.029 A 
HETATM    9  C   LIG     1      19.171  37.758  19.604  1.00  0.00     0.002 A 
HETATM   10  C   LIG     1      19.156  39.018  20.208  1.00  0.00     0.000 A 
HETATM   11  C   LIG     1      18.374  39.239  21.344  1.00  0.00     0.002 A 
HETATM   12  C   LIG     1      17.597  38.203  21.873  1.00  0.00     0.029 A 
ENDBRANCH   4   7
BRANCH   3  13
HETATM   13  N   LIG     1      15.225  34.102  18.846  1.00  0.00    -0.246 NA
HETATM   14  H   LIG     1      14.951  33.247  19.381  1.00  0.00     0.143 HD
HETATM   15  H   LIG     1      14.373  34.697  18.728  1.00  0.00     0.143 HD
ENDBRANCH   3  13
TORSDOF 2
ENDMDL
MODEL 7
REMARK VINA RESULT:      -6.3      3.827      5.175
REMARK  2 active torsions:
REMARK  status: ('A' for Active; 'I' for Inactive)
REMARK       I    between atoms: C_2  and  N_5 
REMARK       I    between atoms: C_2  and  N_3 
REMARK    1  A    between atoms: N_3  and  N_4 
REMARK    2  A    between atoms: N_5  and  C_6 
ROOT
HETATM    1  O   LIG     1      16.060  34.829  19.801  1.00  0.00    -0.246 OA
HETATM    2  C   LIG     1      15.892  35.112  21.017  1.00  0.00     0.335 C 
HETATM    3  N   LIG     1      14.875  34.438  21.772  1.00  0.00    -0.275 N 
HETATM    4  N   LIG     1      16.686  36.150  21.610  1.00  0.00    -0.308 N 
HETATM    5  H   LIG     1      14.626  34.772  22.729  1.00  0.00     0.185 HD
HETATM    6  H   LIG     1      17.072  36.885  20.976  1.00  0.00     0.170 HD
ENDROOT
BRANCH   4   7
HETATM    7  C   LIG     1      16.977  36.242  23.014  1.00  0.00     0.036 A 
HETATM    8  C   LIG     1      17.108  37.507  23.610  1.00  0.00     0.029 A 
HETATM    9  C   LIG     1      17.419  37.620  24.968  1.00  0.00     0.002 A 
HETATM   10  C   LIG     1      17.619  36.472  25.739  1.00  0.00     0.000 A 
HETATM   11  C   LIG     1      17.516  35.209  25.150  1.00  0.00     0.002 A 
HETATM   12  C   LIG     1      17.203  35.092  23.792  1.00  0.00     0.029 A 
ENDBRANCH   4   7
BRANCH   3  13
HETATM   13  N   LIG     1      14.157  33.356  21.236  1.00  0.00    -0.246 NA
HETATM   14  H   LIG     1      13.143  33.512  21.438  1.00  0.00     0.143 HD
HETATM   15  H   LIG     1      14.286  33.374  20.198  1.00  0.00     0.143 HD
ENDBRANCH   3  13
TORSDOF 2
ENDMDL
MODEL 8
REMARK VINA RESULT:      -6.1      2.140      3.034
REMARK  2 active torsions:
REMARK  status: ('A' for Active; 'I' for Inactive)
REMARK       I    between atoms: C_2  and  N_5 
REMARK       I    between atoms: C_2  and  N_3 
REMARK    1  A    between atoms: N_3  and  N_4 
REMARK    2  A    between atoms: N_5  and  C_6 
ROOT
HETATM    1  O   LIG     1      17.065  38.688  25.614  1.00  0.00    -0.246 OA
HETATM    2  C   LIG     1      17.166  37.792  24.734  1.00  0.00     0.335 C 
HETATM    3  N   LIG     1      17.526  36.456  25.115  1.00  0.00    -0.275 N 
HETATM    4  N   LIG     1      16.974  38.141  23.356  1.00  0.00    -0.308 N 
HETATM    5  H   LIG     1      17.762  35.750  24.384  1.00  0.00     0.185 HD
HETATM    6  H   LIG     1      17.151  39.133  23.079  1.00  0.00     0.170 HD
ENDROOT
BRANCH   4   7
HETATM    7  C   LIG     1      16.563  37.215  22.337  1.00  0.00     0.036 A 
HETATM    8  C   LIG     1      15.232  36.769  22.306  1.00  0.00     0.029 A 
HETATM    9  C   LIG     1      14.819  35.846  21.341  1.00  0.00     0.002 A 
HETATM   10  C   LIG     1      15.734  35.347  20.411  1.00  0.00     0.000 A 
HETATM   11  C   LIG     1      17.066  35.765  20.449  1.00  0.00     0.002 A 
HETATM   12  C   LIG     1      17.484  36.690  21.411  1.00  0.00     0.029 A 
ENDBRANCH   4   7
BRANCH   3  13
HETATM   13  N   LIG     1      17.621  36.077  26.464  1.00  0.00    -0.246 NA
HETATM   14  H   LIG     1      17.478  35.043  26.517  1.00  0.00     0.143 HD
HETATM   15  H   LIG     1      18.595  36.285  26.784  1.00  0.00     0.143 HD
ENDBRANCH   3  13
TORSDOF 2
ENDMDL
MODEL 9
REMARK VINA RESULT:      -6.0      1.667      2.485
REMARK  2 active torsions:
REMARK  status: ('A' for Active; 'I' for Inactive)
REMARK       I    between atoms: C_2  and  N_5 
REMARK       I    between atoms: C_2  and  N_3 
REMARK    1  A    between atoms: N_3  and  N_4 
REMARK    2  A    between atoms: N_5  and  C_6 
ROOT
HETATM    1  O   LIG     1      15.016  37.736  23.388  1.00  0.00    -0.246 OA
HETATM    2  C   LIG     1      15.880  37.363  22.550  1.00  0.00     0.335 C 
HETATM    3  N   LIG     1      15.569  36.309  21.628  1.00  0.00    -0.275 N 
HETATM    4  N   LIG     1      17.183  37.963  22.575  1.00  0.00    -0.308 N 
HETATM    5  H   LIG     1      16.322  35.891  21.039  1.00  0.00     0.185 HD
HETATM    6  H   LIG     1      17.510  38.372  23.479  1.00  0.00     0.170 HD
ENDROOT
BRANCH   4   7
HETATM    7  C   LIG     1      18.063  38.030  21.441  1.00  0.00     0.036 A 
HETATM    8  C   LIG     1      18.692  39.246  21.127  1.00  0.00     0.029 A 
HETATM    9  C   LIG     1      19.529  39.340  20.011  1.00  0.00     0.002 A 
HETATM   10  C   LIG     1      19.733  38.228  19.191  1.00  0.00     0.000 A 
HETATM   11  C   LIG     1      19.092  37.020  19.482  1.00  0.00     0.002 A 
HETATM   12  C   LIG     1      18.255  36.921  20.597  1.00  0.00     0.029 A 
ENDBRANCH   4   7
BRANCH   3  13
HETATM   13  N   LIG     1      14.271  35.780  21.525  1.00  0.00    -0.246 NA
HETATM   14  H   LIG     1      14.253  35.134  20.704  1.00  0.00     0.143 HD
HETATM   15  H   LIG     1      14.092  35.214  22.386  1.00  0.00     0.143 HD
ENDBRANCH   3  13
TORSDOF 2
ENDMDL
MODEL 10
REMARK VINA RESULT:      -5.9      1.386      2.073
REMARK  2 active torsions:
REMARK  status: ('A' for Active; 'I' for Inactive)
REMARK       I    between atoms: C_2  and  N_5 
REMARK       I    between atoms: C_2  and  N_3 
REMARK    1  A    between atoms: N_3  and  N_4 
REMARK    2  A    between atoms: N_5  and  C_6 
ROOT
HETATM    1  O   LIG     1      17.003  35.439  25.342  1.00  0.00    -0.246 OA
HETATM    2  C   LIG     1      17.345  36.427  24.639  1.00  0.00     0.335 C 
HETATM    3  N   LIG     1      18.190  37.442  25.201  1.00  0.00    -0.275 N 
HETATM    4  N   LIG     1      16.833  36.547  23.304  1.00  0.00    -0.308 N 
HETATM    5  H   LIG     1      18.351  38.333  24.682  1.00  0.00     0.185 HD
HETATM    6  H   LIG     1      15.926  36.074  23.090  1.00  0.00     0.170 HD
ENDROOT
BRANCH   4   7
HETATM    7  C   LIG     1      17.482  37.279  22.252  1.00  0.00     0.036 A 
HETATM    8  C   LIG     1      17.848  36.613  21.072  1.00  0.00     0.029 A 
HETATM    9  C   LIG     1      18.507  37.300  20.048  1.00  0.00     0.002 A 
HETATM   10  C   LIG     1      18.820  38.653  20.200  1.00  0.00     0.000 A 
HETATM   11  C   LIG     1      18.483  39.319  21.381  1.00  0.00     0.002 A 
HETATM   12  C   LIG     1      17.822  38.636  22.407  1.00  0.00     0.029 A 
ENDBRANCH   4   7
BRANCH   3  13
HETATM   13  N   LIG     1      18.778  37.292  26.467  1.00  0.00    -0.246 NA
HETATM   14  H   LIG     1      18.030  37.426  27.185  1.00  0.00     0.143 HD
HETATM   15  H   LIG     1      19.123  36.307  26.541  1.00  0.00     0.143 HD
ENDBRANCH   3  13
TORSDOF 2
ENDMDL
MODEL 11
REMARK VINA RESULT:      -5.9      7.730      8.873
REMARK  2 active torsions:
REMARK  status: ('A' for Active; 'I' for Inactive)
REMARK       I    between atoms: C_2  and  N_5 
REMARK       I    between atoms: C_2  and  N_3 
REMARK    1  A    between atoms: N_3  and  N_4 
REMARK    2  A    between atoms: N_5  and  C_6 
ROOT
HETATM    1  O   LIG     1      15.590  34.745  18.822  1.00  0.00    -0.246 OA
HETATM    2  C   LIG     1      15.313  33.575  18.447  1.00  0.00     0.335 C 
HETATM    3  N   LIG     1      14.838  32.615  19.402  1.00  0.00    -0.275 N 
HETATM    4  N   LIG     1      15.533  33.209  17.077  1.00  0.00    -0.308 N 
HETATM    5  H   LIG     1      14.754  31.610  19.134  1.00  0.00     0.185 HD
HETATM    6  H   LIG     1      16.254  33.745  16.543  1.00  0.00     0.170 HD
ENDROOT
BRANCH   4   7
HETATM    7  C   LIG     1      14.834  32.152  16.401  1.00  0.00     0.036 A 
HETATM    8  C   LIG     1      15.403  31.569  15.257  1.00  0.00     0.029 A 
HETATM    9  C   LIG     1      14.725  30.559  14.568  1.00  0.00     0.002 A 
HETATM   10  C   LIG     1      13.468  30.135  15.003  1.00  0.00     0.000 A 
HETATM   11  C   LIG     1      12.882  30.725  16.126  1.00  0.00     0.002 A 
HETATM   12  C   LIG     1      13.557  31.735  16.820  1.00  0.00     0.029 A 
ENDBRANCH   4   7
BRANCH   3  13
HETATM   13  N   LIG     1      14.525  32.982  20.721  1.00  0.00    -0.246 NA
HETATM   14  H   LIG     1      14.751  33.997  20.833  1.00  0.00     0.143 HD
HETATM   15  H   LIG     1      13.493  32.866  20.845  1.00  0.00     0.143 HD
ENDBRANCH   3  13
TORSDOF 2
ENDMDL
MODEL 12
REMARK VINA RESULT:      -5.8      4.970      6.109
REMARK  2 active torsions:
REMARK  status: ('A' for Active; 'I' for Inactive)
REMARK       I    between atoms: C_2  and  N_5 
REMARK       I    between atoms: C_2  and  N_3 
REMARK    1  A    between atoms: N_3  and  N_4 
REMARK    2  A    between atoms: N_5  and  C_6 
ROOT
HETATM    1  O   LIG     1      15.531  32.627  17.939  1.00  0.00    -0.246 OA
HETATM    2  C   LIG     1      15.300  33.274  18.995  1.00  0.00     0.335 C 
HETATM    3  N   LIG     1      14.717  32.608  20.125  1.00  0.00    -0.275 N 
HETATM    4  N   LIG     1      15.573  34.682  19.027  1.00  0.00    -0.308 N 
HETATM    5  H   LIG     1      14.382  33.164  20.943  1.00  0.00     0.185 HD
HETATM    6  H   LIG     1      15.568  35.196  18.116  1.00  0.00     0.170 HD
ENDROOT
BRANCH   4   7
HETATM    7  C   LIG     1      15.845  35.426  20.225  1.00  0.00     0.036 A 
HETATM    8  C   LIG     1      14.780  35.804  21.059  1.00  0.00     0.029 A 
HETATM    9  C   LIG     1      15.020  36.553  22.215  1.00  0.00     0.002 A 
HETATM   10  C   LIG     1      16.321  36.944  22.539  1.00  0.00     0.000 A 
HETATM   11  C   LIG     1      17.384  36.594  21.703  1.00  0.00     0.002 A 
HETATM   12  C   LIG     1      17.149  35.844  20.547  1.00  0.00     0.029 A 
ENDBRANCH   4   7
BRANCH   3  13
HETATM   13  N   LIG     1      14.535  31.216  20.145  1.00  0.00    -0.246 NA
HETATM   14  H   LIG     1      15.256  30.790  19.519  1.00  0.00     0.143 HD
HETATM   15  H   LIG     1      14.719  30.887  21.120  1.00  0.00     0.143 HD
ENDBRANCH   3  13
TORSDOF 2
ENDMDL
MODEL 13
REMARK VINA RESULT:      -5.7     10.808     12.069
REMARK  2 active torsions:
REMARK  status: ('A' for Active; 'I' for Inactive)
REMARK       I    between atoms: C_2  and  N_5 
REMARK       I    between atoms: C_2  and  N_3 
REMARK    1  A    between atoms: N_3  and  N_4 
REMARK    2  A    between atoms: N_5  and  C_6 
ROOT
HETATM    1  O   LIG     1      14.792  27.442  13.530  1.00  0.00    -0.246 OA
HETATM    2  C   LIG     1      14.303  28.548  13.884  1.00  0.00     0.335 C 
HETATM    3  N   LIG     1      12.883  28.747  13.836  1.00  0.00    -0.275 N 
HETATM    4  N   LIG     1      15.186  29.609  14.276  1.00  0.00    -0.308 N 
HETATM    5  H   LIG     1      12.484  29.702  13.979  1.00  0.00     0.185 HD
HETATM    6  H   LIG     1      16.159  29.593  13.895  1.00  0.00     0.170 HD
ENDROOT
BRANCH   4   7
HETATM    7  C   LIG     1      14.815  30.689  15.148  1.00  0.00     0.036 A 
HETATM    8  C   LIG     1      15.656  31.808  15.256  1.00  0.00     0.029 A 
HETATM    9  C   LIG     1      15.327  32.857  16.121  1.00  0.00     0.002 A 
HETATM   10  C   LIG     1      14.167  32.789  16.896  1.00  0.00     0.000 A 
HETATM   11  C   LIG     1      13.337  31.669  16.813  1.00  0.00     0.002 A 
HETATM   12  C   LIG     1      13.660  30.618  15.949  1.00  0.00     0.029 A 
ENDBRANCH   4   7
BRANCH   3  13
HETATM   13  N   LIG     1      12.001  27.692  13.551  1.00  0.00    -0.246 NA
HETATM   14  H   LIG     1      12.128  27.432  12.546  1.00  0.00     0.143 HD
HETATM   15  H   LIG     1      12.288  26.873  14.135  1.00  0.00     0.143 HD
ENDBRANCH   3  13
TORSDOF 2
ENDMDL
MODEL 14
REMARK VINA RESULT:      -5.6      9.110     10.516
REMARK  2 active torsions:
REMARK  status: ('A' for Active; 'I' for Inactive)
REMARK       I    between atoms: C_2  and  N_5 
REMARK       I    between atoms: C_2  and  N_3 
REMARK    1  A    between atoms: N_3  and  N_4 
REMARK    2  A    between atoms: N_5  and  C_6 
ROOT
HETATM    1  O   LIG     1      18.565  32.919  15.106  1.00  0.00    -0.246 OA
HETATM    2  C   LIG     1      17.330  32.775  14.904  1.00  0.00     0.335 C 
HETATM    3  N   LIG     1      16.823  32.783  13.562  1.00  0.00    -0.275 N 
HETATM    4  N   LIG     1      16.445  32.661  16.028  1.00  0.00    -0.308 N 
HETATM    5  H   LIG     1      15.793  32.820  13.393  1.00  0.00     0.185 HD
HETATM    6  H   LIG     1      16.756  33.084  16.932  1.00  0.00     0.170 HD
ENDROOT
BRANCH   4   7
HETATM    7  C   LIG     1      15.164  32.013  15.986  1.00  0.00     0.036 A 
HETATM    8  C   LIG     1      14.144  32.445  16.849  1.00  0.00     0.029 A 
HETATM    9  C   LIG     1      12.899  31.808  16.844  1.00  0.00     0.002 A 
HETATM   10  C   LIG     1      12.668  30.726  15.991  1.00  0.00     0.000 A 
HETATM   11  C   LIG     1      13.685  30.273  15.147  1.00  0.00     0.002 A 
HETATM   12  C   LIG     1      14.931  30.908  15.147  1.00  0.00     0.029 A 
ENDBRANCH   4   7
BRANCH   3  13
HETATM   13  N   LIG     1      17.682  32.794  12.451  1.00  0.00    -0.246 NA
HETATM   14  H   LIG     1      18.455  32.116  12.637  1.00  0.00     0.143 HD
HETATM   15  H   LIG     1      17.139  32.446  11.628  1.00  0.00     0.143 HD
ENDBRANCH   3  13
TORSDOF 2
ENDMDL
MODEL 15
REMARK VINA RESULT:      -5.6      1.433      2.350
REMARK  2 active torsions:
REMARK  status: ('A' for Active; 'I' for Inactive)
REMARK       I    between atoms: C_2  and  N_5 
REMARK       I    between atoms: C_2  and  N_3 
REMARK    1  A    between atoms: N_3  and  N_4 
REMARK    2  A    between atoms: N_5  and  C_6 
ROOT
HETATM    1  O   LIG     1      17.176  38.994  24.553  1.00  0.00    -0.246 OA
HETATM    2  C   LIG     1      17.242  38.472  23.409  1.00  0.00     0.335 C 
HETATM    3  N   LIG     1      16.100  37.789  22.871  1.00  0.00    -0.275 N 
HETATM    4  N   LIG     1      18.481  38.522  22.687  1.00  0.00    -0.308 N 
HETATM    5  H   LIG     1      16.192  37.225  21.998  1.00  0.00     0.185 HD
HETATM    6  H   LIG     1      19.361  38.615  23.243  1.00  0.00     0.170 HD
ENDROOT
BRANCH   4   7
HETATM    7  C   LIG     1      18.586  38.446  21.256  1.00  0.00     0.036 A 
HETATM    8  C   LIG     1      18.496  37.195  20.623  1.00  0.00     0.029 A 
HETATM    9  C   LIG     1      18.625  37.096  19.235  1.00  0.00     0.002 A 
HETATM   10  C   LIG     1      18.861  38.239  18.468  1.00  0.00     0.000 A 
HETATM   11  C   LIG     1      18.977  39.485  19.091  1.00  0.00     0.002 A 
HETATM   12  C   LIG     1      18.847  39.590  20.480  1.00  0.00     0.029 A 
ENDBRANCH   4   7
BRANCH   3  13
HETATM   13  N   LIG     1      14.855  37.815  23.520  1.00  0.00    -0.246 NA
HETATM   14  H   LIG     1      14.809  38.690  24.090  1.00  0.00     0.143 HD
HETATM   15  H   LIG     1      14.115  37.870  22.782  1.00  0.00     0.143 HD
ENDBRANCH   3  13
TORSDOF 2
ENDMDL
MODEL 16
REMARK VINA RESULT:      -5.5      8.055      9.265
REMARK  2 active torsions:
REMARK  status: ('A' for Active; 'I' for Inactive)
REMARK       I    between atoms: C_2  and  N_5 
REMARK       I    between atoms: C_2  and  N_3 
REMARK    1  A    between atoms: N_3  and  N_4 
REMARK    2  A    between atoms: N_5  and  C_6 
ROOT
HETATM    1  O   LIG     1      14.281  31.467  19.640  1.00  0.00    -0.246 OA
HETATM    2  C   LIG     1      14.477  31.916  18.479  1.00  0.00     0.335 C 
HETATM    3  N   LIG     1      15.085  33.204  18.306  1.00  0.00    -0.275 N 
HETATM    4  N   LIG     1      14.035  31.150  17.349  1.00  0.00    -0.308 N 
HETATM    5  H   LIG     1      15.110  33.647  17.362  1.00  0.00     0.185 HD
HETATM    6  H   LIG     1      13.246  30.480  17.498  1.00  0.00     0.170 HD
ENDROOT
BRANCH   4   7
HETATM    7  C   LIG     1      14.602  31.250  16.033  1.00  0.00     0.036 A 
HETATM    8  C   LIG     1      14.278  30.284  15.067  1.00  0.00     0.029 A 
HETATM    9  C   LIG     1      14.841  30.347  13.788  1.00  0.00     0.002 A 
HETATM   10  C   LIG     1      15.744  31.365  13.469  1.00  0.00     0.000 A 
HETATM   11  C   LIG     1      16.091  32.316  14.432  1.00  0.00     0.002 A 
HETATM   12  C   LIG     1      15.529  32.258  15.711  1.00  0.00     0.029 A 
ENDBRANCH   4   7
BRANCH   3  13
HETATM   13  N   LIG     1      15.611  33.921  19.394  1.00  0.00    -0.246 NA
HETATM   14  H   LIG     1      14.815  34.189  20.016  1.00  0.00     0.143 HD
HETATM   15  H   LIG     1      16.235  33.273  19.928  1.00  0.00     0.143 HD
ENDBRANCH   3  13
TORSDOF 2
ENDMDL
MODEL 17
REMARK VINA RESULT:      -5.4      8.821     10.101
REMARK  2 active torsions:
REMARK  status: ('A' for Active; 'I' for Inactive)
REMARK       I    between atoms: C_2  and  N_5 
REMARK       I    between atoms: C_2  and  N_3 
REMARK    1  A    between atoms: N_3  and  N_4 
REMARK    2  A    between atoms: N_5  and  C_6 
ROOT
HETATM    1  O   LIG     1      16.011  34.596  16.397  1.00  0.00    -0.246 OA
HETATM    2  C   LIG     1      15.745  33.365  16.395  1.00  0.00     0.335 C 
HETATM    3  N   LIG     1      15.447  32.699  17.630  1.00  0.00    -0.275 N 
HETATM    4  N   LIG     1      15.803  32.639  15.158  1.00  0.00    -0.308 N 
HETATM    5  H   LIG     1      15.378  31.658  17.659  1.00  0.00     0.185 HD
HETATM    6  H   LIG     1      16.420  33.016  14.404  1.00  0.00     0.170 HD
ENDROOT
BRANCH   4   7
HETATM    7  C   LIG     1      15.074  31.428  14.897  1.00  0.00     0.036 A 
HETATM    8  C   LIG     1      13.806  31.248  15.475  1.00  0.00     0.029 A 
HETATM    9  C   LIG     1      13.093  30.066  15.257  1.00  0.00     0.002 A 
HETATM   10  C   LIG     1      13.645  29.047  14.476  1.00  0.00     0.000 A 
HETATM   11  C   LIG     1      14.916  29.207  13.918  1.00  0.00     0.002 A 
HETATM   12  C   LIG     1      15.632  30.389  14.131  1.00  0.00     0.029 A 
ENDBRANCH   4   7
BRANCH   3  13
HETATM   13  N   LIG     1      15.291  33.411  18.831  1.00  0.00    -0.246 NA
HETATM   14  H   LIG     1      16.073  34.101  18.898  1.00  0.00     0.143 HD
HETATM   15  H   LIG     1      14.393  33.944  18.767  1.00  0.00     0.143 HD
ENDBRANCH   3  13
TORSDOF 2
ENDMDL
MODEL 18
REMARK VINA RESULT:      -5.0     10.827     12.228
REMARK  2 active torsions:
REMARK  status: ('A' for Active; 'I' for Inactive)
REMARK       I    between atoms: C_2  and  N_5 
REMARK       I    between atoms: C_2  and  N_3 
REMARK    1  A    between atoms: N_3  and  N_4 
REMARK    2  A    between atoms: N_5  and  C_6 
ROOT
HETATM    1  O   LIG     1      16.345  32.931  15.320  1.00  0.00    -0.246 OA
HETATM    2  C   LIG     1      15.824  32.062  14.572  1.00  0.00     0.335 C 
HETATM    3  N   LIG     1      16.218  31.979  13.194  1.00  0.00    -0.275 N 
HETATM    4  N   LIG     1      14.801  31.205  15.101  1.00  0.00    -0.308 N 
HETATM    5  H   LIG     1      15.685  31.371  12.534  1.00  0.00     0.185 HD
HETATM    6  H   LIG     1      14.248  31.559  15.914  1.00  0.00     0.170 HD
ENDROOT
BRANCH   4   7
HETATM    7  C   LIG     1      14.488  29.903  14.580  1.00  0.00     0.036 A 
HETATM    8  C   LIG     1      15.528  29.067  14.142  1.00  0.00     0.029 A 
HETATM    9  C   LIG     1      15.243  27.808  13.605  1.00  0.00     0.002 A 
HETATM   10  C   LIG     1      13.918  27.380  13.485  1.00  0.00     0.000 A 
HETATM   11  C   LIG     1      12.875  28.216  13.895  1.00  0.00     0.002 A 
HETATM   12  C   LIG     1      13.156  29.475  14.434  1.00  0.00     0.029 A 
ENDBRANCH   4   7
BRANCH   3  13
HETATM   13  N   LIG     1      17.284  32.741  12.687  1.00  0.00    -0.246 NA
HETATM   14  H   LIG     1      16.914  33.689  12.447  1.00  0.00     0.143 HD
HETATM   15  H   LIG     1      17.986  32.852  13.454  1.00  0.00     0.143 HD
ENDBRANCH   3  13
TORSDOF 2
ENDMDL
MODEL 19
REMARK VINA RESULT:      -4.9      5.600      6.806
REMARK  2 active torsions:
REMARK  status: ('A' for Active; 'I' for Inactive)
REMARK       I    between atoms: C_2  and  N_5 
REMARK       I    between atoms: C_2  and  N_3 
REMARK    1  A    between atoms: N_3  and  N_4 
REMARK    2  A    between atoms: N_5  and  C_6 
ROOT
HETATM    1  O   LIG     1      16.767  34.860  21.719  1.00  0.00    -0.246 OA
HETATM    2  C   LIG     1      15.826  34.415  21.009  1.00  0.00     0.335 C 
HETATM    3  N   LIG     1      14.548  35.068  21.030  1.00  0.00    -0.275 N 
HETATM    4  N   LIG     1      16.037  33.226  20.234  1.00  0.00    -0.308 N 
HETATM    5  H   LIG     1      13.726  34.620  20.568  1.00  0.00     0.185 HD
HETATM    6  H   LIG     1      16.772  32.559  20.562  1.00  0.00     0.170 HD
ENDROOT
BRANCH   4   7
HETATM    7  C   LIG     1      15.300  32.895  19.046  1.00  0.00     0.036 A 
HETATM    8  C   LIG     1      14.633  31.661  18.970  1.00  0.00     0.029 A 
HETATM    9  C   LIG     1      13.934  31.307  17.812  1.00  0.00     0.002 A 
HETATM   10  C   LIG     1      13.909  32.172  16.716  1.00  0.00     0.000 A 
HETATM   11  C   LIG     1      14.590  33.391  16.773  1.00  0.00     0.002 A 
HETATM   12  C   LIG     1      15.289  33.750  17.929  1.00  0.00     0.029 A 
ENDBRANCH   4   7
BRANCH   3  13
HETATM   13  N   LIG     1      14.354  36.284  21.704  1.00  0.00    -0.246 NA
HETATM   14  H   LIG     1      14.024  36.988  21.005  1.00  0.00     0.143 HD
HETATM   15  H   LIG     1      13.591  36.140  22.403  1.00  0.00     0.143 HD
ENDBRANCH   3  13
TORSDOF 2
ENDMDL
MODEL 20
REMARK VINA RESULT:      -4.7      7.547      8.777
REMARK  2 active torsions:
REMARK  status: ('A' for Active; 'I' for Inactive)
REMARK       I    between atoms: C_2  and  N_5 
REMARK       I    between atoms: C_2  and  N_3 
REMARK    1  A    between atoms: N_3  and  N_4 
REMARK    2  A    between atoms: N_5  and  C_6 
ROOT
HETATM    1  O   LIG     1      14.581  30.966  15.183  1.00  0.00    -0.246 OA
HETATM    2  C   LIG     1      14.301  31.621  16.222  1.00  0.00     0.335 C 
HETATM    3  N   LIG     1      13.089  31.340  16.937  1.00  0.00    -0.275 N 
HETATM    4  N   LIG     1      15.177  32.678  16.640  1.00  0.00    -0.308 N 
HETATM    5  H   LIG     1      12.775  31.976  17.703  1.00  0.00     0.185 HD
HETATM    6  H   LIG     1      15.768  33.134  15.908  1.00  0.00     0.170 HD
ENDROOT
BRANCH   4   7
HETATM    7  C   LIG     1      15.286  33.151  17.992  1.00  0.00     0.036 A 
HETATM    8  C   LIG     1      15.475  34.522  18.230  1.00  0.00     0.029 A 
HETATM    9  C   LIG     1      15.612  34.999  19.537  1.00  0.00     0.002 A 
HETATM   10  C   LIG     1      15.578  34.111  20.615  1.00  0.00     0.000 A 
HETATM   11  C   LIG     1      15.415  32.743  20.387  1.00  0.00     0.002 A 
HETATM   12  C   LIG     1      15.276  32.261  19.081  1.00  0.00     0.029 A 
ENDBRANCH   4   7
BRANCH   3  13
HETATM   13  N   LIG     1      12.273  30.248  16.599  1.00  0.00    -0.246 NA
HETATM   14  H   LIG     1      12.092  30.289  15.571  1.00  0.00     0.143 HD
HETATM   15  H   LIG     1      12.814  29.376  16.798  1.00  0.00     0.143 HD
ENDBRANCH   3  13
TORSDOF 2
ENDMDL
