MODEL 1
REMARK VINA RESULT:      -6.9      0.000      0.000
REMARK  1 active torsions:
REMARK  status: ('A' for Active; 'I' for Inactive)
REMARK       I    between atoms: C_2  and  N_3 
REMARK    1  A    between atoms: N_3  and  C_4 
ROOT
HETATM    1  C   LIG     1      16.793  35.613  22.522  1.00  0.00     0.035 A 
HETATM    2  C   LIG     1      17.176  34.972  23.715  1.00  0.00     0.036 A 
HETATM    3  C   LIG     1      17.353  35.710  24.895  1.00  0.00    -0.060 A 
HETATM    4  C   LIG     1      17.796  35.025  26.155  1.00  0.00     0.048 C 
HETATM    5  C   LIG     1      17.191  37.103  24.870  1.00  0.00     0.007 A 
HETATM    6  C   LIG     1      16.834  37.747  23.684  1.00  0.00     0.003 A 
HETATM    7  C   LIG     1      16.641  37.007  22.514  1.00  0.00     0.029 A 
ENDROOT
BRANCH   1   8
HETATM    8  N   LIG     1      16.618  34.879  21.297  1.00  0.00    -0.328 N 
HETATM    9  C   LIG     1      15.460  34.084  20.995  1.00  0.00     0.218 C 
HETATM   10  C   LIG     1      15.459  33.173  19.810  1.00  0.00     0.117 C 
HETATM   11  O   LIG     1      14.418  34.173  21.699  1.00  0.00    -0.274 OA
HETATM   12  H   LIG     1      17.336  35.002  20.547  1.00  0.00     0.169 HD
ENDBRANCH   1   8
TORSDOF 1
ENDMDL
MODEL 2
REMARK VINA RESULT:      -6.5      2.413      3.541
REMARK  1 active torsions:
REMARK  status: ('A' for Active; 'I' for Inactive)
REMARK       I    between atoms: C_2  and  N_3 
REMARK    1  A    between atoms: N_3  and  C_4 
ROOT
HETATM    1  C   LIG     1      17.264  36.374  21.294  1.00  0.00     0.035 A 
HETATM    2  C   LIG     1      18.279  36.789  20.411  1.00  0.00     0.036 A 
HETATM    3  C   LIG     1      18.751  38.110  20.439  1.00  0.00    -0.060 A 
HETATM    4  C   LIG     1      19.810  38.554  19.471  1.00  0.00     0.048 C 
HETATM    5  C   LIG     1      18.173  39.033  21.321  1.00  0.00     0.007 A 
HETATM    6  C   LIG     1      17.149  38.633  22.184  1.00  0.00     0.003 A 
HETATM    7  C   LIG     1      16.693  37.313  22.167  1.00  0.00     0.029 A 
ENDROOT
BRANCH   1   8
HETATM    8  N   LIG     1      16.755  35.029  21.275  1.00  0.00    -0.328 N 
HETATM    9  C   LIG     1      15.933  34.496  20.224  1.00  0.00     0.218 C 
HETATM   10  C   LIG     1      15.259  33.173  20.391  1.00  0.00     0.117 C 
HETATM   11  O   LIG     1      15.801  35.116  19.134  1.00  0.00    -0.274 OA
HETATM   12  H   LIG     1      17.075  34.375  22.025  1.00  0.00     0.169 HD
ENDBRANCH   1   8
TORSDOF 1
ENDMDL
MODEL 3
REMARK VINA RESULT:      -6.3      4.123      8.397
REMARK  1 active torsions:
REMARK  status: ('A' for Active; 'I' for Inactive)
REMARK       I    between atoms: C_2  and  N_3 
REMARK    1  A    between atoms: N_3  and  C_4 
ROOT
HETATM    1  C   LIG     1      14.671  32.415  17.106  1.00  0.00     0.035 A 
HETATM    2  C   LIG     1      15.420  32.272  15.923  1.00  0.00     0.036 A 
HETATM    3  C   LIG     1      15.021  31.359  14.934  1.00  0.00    -0.060 A 
HETATM    4  C   LIG     1      15.844  31.187  13.690  1.00  0.00     0.048 C 
HETATM    5  C   LIG     1      13.895  30.552  15.151  1.00  0.00     0.007 A 
HETATM    6  C   LIG     1      13.162  30.674  16.333  1.00  0.00     0.003 A 
HETATM    7  C   LIG     1      13.550  31.595  17.309  1.00  0.00     0.029 A 
ENDROOT
BRANCH   1   8
HETATM    8  N   LIG     1      15.067  33.334  18.139  1.00  0.00    -0.328 N 
HETATM    9  C   LIG     1      15.463  32.934  19.461  1.00  0.00     0.218 C 
HETATM   10  C   LIG     1      15.636  33.957  20.538  1.00  0.00     0.117 C 
HETATM   11  O   LIG     1      15.708  31.726  19.721  1.00  0.00    -0.274 OA
HETATM   12  H   LIG     1      15.158  34.344  17.886  1.00  0.00     0.169 HD
ENDBRANCH   1   8
TORSDOF 1
ENDMDL
MODEL 4
REMARK VINA RESULT:      -6.2      1.000      2.379
REMARK  1 active torsions:
REMARK  status: ('A' for Active; 'I' for Inactive)
REMARK       I    between atoms: C_2  and  N_3 
REMARK    1  A    between atoms: N_3  and  C_4 
ROOT
HETATM    1  C   LIG     1      16.987  35.626  21.915  1.00  0.00     0.035 A 
HETATM    2  C   LIG     1      17.236  36.967  21.563  1.00  0.00     0.036 A 
HETATM    3  C   LIG     1      17.495  37.926  22.554  1.00  0.00    -0.060 A 
HETATM    4  C   LIG     1      17.726  39.360  22.175  1.00  0.00     0.048 C 
HETATM    5  C   LIG     1      17.459  37.552  23.905  1.00  0.00     0.007 A 
HETATM    6  C   LIG     1      17.190  36.229  24.260  1.00  0.00     0.003 A 
HETATM    7  C   LIG     1      16.949  35.272  23.271  1.00  0.00     0.029 A 
ENDROOT
BRANCH   1   8
HETATM    8  N   LIG     1      16.706  34.629  20.918  1.00  0.00    -0.328 N 
HETATM    9  C   LIG     1      15.489  33.867  20.865  1.00  0.00     0.218 C 
HETATM   10  C   LIG     1      15.372  32.696  19.943  1.00  0.00     0.117 C 
HETATM   11  O   LIG     1      14.493  34.197  21.563  1.00  0.00    -0.274 OA
HETATM   12  H   LIG     1      17.389  34.515  20.135  1.00  0.00     0.169 HD
ENDBRANCH   1   8
TORSDOF 1
ENDMDL
MODEL 5
REMARK VINA RESULT:      -6.1      1.476      1.988
REMARK  1 active torsions:
REMARK  status: ('A' for Active; 'I' for Inactive)
REMARK       I    between atoms: C_2  and  N_3 
REMARK    1  A    between atoms: N_3  and  C_4 
ROOT
HETATM    1  C   LIG     1      17.295  36.559  21.614  1.00  0.00     0.035 A 
HETATM    2  C   LIG     1      17.087  36.658  23.003  1.00  0.00     0.036 A 
HETATM    3  C   LIG     1      17.397  37.845  23.686  1.00  0.00    -0.060 A 
HETATM    4  C   LIG     1      17.204  37.932  25.173  1.00  0.00     0.048 C 
HETATM    5  C   LIG     1      17.961  38.919  22.985  1.00  0.00     0.007 A 
HETATM    6  C   LIG     1      18.192  38.817  21.611  1.00  0.00     0.003 A 
HETATM    7  C   LIG     1      17.866  37.642  20.930  1.00  0.00     0.029 A 
ENDROOT
BRANCH   1   8
HETATM    8  N   LIG     1      16.997  35.349  20.896  1.00  0.00    -0.328 N 
HETATM    9  C   LIG     1      15.686  34.767  20.811  1.00  0.00     0.218 C 
HETATM   10  C   LIG     1      15.505  33.396  20.244  1.00  0.00     0.117 C 
HETATM   11  O   LIG     1      14.670  35.418  21.175  1.00  0.00    -0.274 OA
HETATM   12  H   LIG     1      17.762  34.916  20.329  1.00  0.00     0.169 HD
ENDBRANCH   1   8
TORSDOF 1
ENDMDL
MODEL 6
REMARK VINA RESULT:      -6.1      3.559      5.573
REMARK  1 active torsions:
REMARK  status: ('A' for Active; 'I' for Inactive)
REMARK       I    between atoms: C_2  and  N_3 
REMARK    1  A    between atoms: N_3  and  C_4 
ROOT
HETATM    1  C   LIG     1      17.717  37.979  21.943  1.00  0.00     0.035 A 
HETATM    2  C   LIG     1      18.682  38.729  21.244  1.00  0.00     0.036 A 
HETATM    3  C   LIG     1      19.192  38.267  20.020  1.00  0.00    -0.060 A 
HETATM    4  C   LIG     1      20.245  39.055  19.296  1.00  0.00     0.048 C 
HETATM    5  C   LIG     1      18.771  37.028  19.518  1.00  0.00     0.007 A 
HETATM    6  C   LIG     1      17.831  36.269  20.220  1.00  0.00     0.003 A 
HETATM    7  C   LIG     1      17.311  36.739  21.429  1.00  0.00     0.029 A 
ENDROOT
BRANCH   1   8
HETATM    8  N   LIG     1      17.190  38.425  23.205  1.00  0.00    -0.328 N 
HETATM    9  C   LIG     1      17.855  38.238  24.465  1.00  0.00     0.218 C 
HETATM   10  C   LIG     1      17.138  38.522  25.745  1.00  0.00     0.117 C 
HETATM   11  O   LIG     1      19.060  37.871  24.507  1.00  0.00    -0.274 OA
HETATM   12  H   LIG     1      16.315  38.997  23.194  1.00  0.00     0.169 HD
ENDBRANCH   1   8
TORSDOF 1
ENDMDL
MODEL 7
REMARK VINA RESULT:      -6.0      2.849      4.560
REMARK  1 active torsions:
REMARK  status: ('A' for Active; 'I' for Inactive)
REMARK       I    between atoms: C_2  and  N_3 
REMARK    1  A    between atoms: N_3  and  C_4 
ROOT
HETATM    1  C   LIG     1      17.394  37.048  22.881  1.00  0.00     0.035 A 
HETATM    2  C   LIG     1      17.856  36.603  21.628  1.00  0.00     0.036 A 
HETATM    3  C   LIG     1      18.277  37.524  20.656  1.00  0.00    -0.060 A 
HETATM    4  C   LIG     1      18.736  37.044  19.310  1.00  0.00     0.048 C 
HETATM    5  C   LIG     1      18.191  38.898  20.922  1.00  0.00     0.007 A 
HETATM    6  C   LIG     1      17.711  39.345  22.156  1.00  0.00     0.003 A 
HETATM    7  C   LIG     1      17.310  38.427  23.128  1.00  0.00     0.029 A 
ENDROOT
BRANCH   1   8
HETATM    8  N   LIG     1      16.945  36.124  23.887  1.00  0.00    -0.328 N 
HETATM    9  C   LIG     1      17.577  35.960  25.167  1.00  0.00     0.218 C 
HETATM   10  C   LIG     1      17.193  34.822  26.058  1.00  0.00     0.117 C 
HETATM   11  O   LIG     1      18.433  36.791  25.572  1.00  0.00    -0.274 OA
HETATM   12  H   LIG     1      16.054  35.605  23.712  1.00  0.00     0.169 HD
ENDBRANCH   1   8
TORSDOF 1
ENDMDL
MODEL 8
REMARK VINA RESULT:      -6.0      7.730      9.355
REMARK  1 active torsions:
REMARK  status: ('A' for Active; 'I' for Inactive)
REMARK       I    between atoms: C_2  and  N_3 
REMARK    1  A    between atoms: N_3  and  C_4 
ROOT
HETATM    1  C   LIG     1      15.910  32.179  15.572  1.00  0.00     0.035 A 
HETATM    2  C   LIG     1      15.344  31.125  14.829  1.00  0.00     0.036 A 
HETATM    3  C   LIG     1      14.107  30.577  15.201  1.00  0.00    -0.060 A 
HETATM    4  C   LIG     1      13.526  29.431  14.424  1.00  0.00     0.048 C 
HETATM    5  C   LIG     1      13.456  31.052  16.348  1.00  0.00     0.007 A 
HETATM    6  C   LIG     1      14.025  32.081  17.102  1.00  0.00     0.003 A 
HETATM    7  C   LIG     1      15.248  32.638  16.720  1.00  0.00     0.029 A 
ENDROOT
BRANCH   1   8
HETATM    8  N   LIG     1      17.183  32.747  15.218  1.00  0.00    -0.328 N 
HETATM    9  C   LIG     1      17.474  33.331  13.938  1.00  0.00     0.218 C 
HETATM   10  C   LIG     1      18.879  33.687  13.573  1.00  0.00     0.117 C 
HETATM   11  O   LIG     1      16.547  33.585  13.122  1.00  0.00    -0.274 OA
HETATM   12  H   LIG     1      17.910  32.821  15.966  1.00  0.00     0.169 HD
ENDBRANCH   1   8
TORSDOF 1
ENDMDL
MODEL 9
REMARK VINA RESULT:      -5.7      8.040      9.946
REMARK  1 active torsions:
REMARK  status: ('A' for Active; 'I' for Inactive)
REMARK       I    between atoms: C_2  and  N_3 
REMARK    1  A    between atoms: N_3  and  C_4 
ROOT
HETATM    1  C   LIG     1      15.759  31.772  13.850  1.00  0.00     0.035 A 
HETATM    2  C   LIG     1      15.319  32.229  15.107  1.00  0.00     0.036 A 
HETATM    3  C   LIG     1      14.483  31.429  15.903  1.00  0.00    -0.060 A 
HETATM    4  C   LIG     1      13.990  31.937  17.227  1.00  0.00     0.048 C 
HETATM    5  C   LIG     1      14.049  30.188  15.418  1.00  0.00     0.007 A 
HETATM    6  C   LIG     1      14.464  29.740  14.162  1.00  0.00     0.003 A 
HETATM    7  C   LIG     1      15.310  30.530  13.379  1.00  0.00     0.029 A 
ENDROOT
BRANCH   1   8
HETATM    8  N   LIG     1      16.605  32.579  13.013  1.00  0.00    -0.328 N 
HETATM    9  C   LIG     1      17.803  33.227  13.468  1.00  0.00     0.218 C 
HETATM   10  C   LIG     1      18.495  34.230  12.601  1.00  0.00     0.117 C 
HETATM   11  O   LIG     1      18.309  32.932  14.584  1.00  0.00    -0.274 OA
HETATM   12  H   LIG     1      16.382  32.624  11.992  1.00  0.00     0.169 HD
ENDBRANCH   1   8
TORSDOF 1
ENDMDL
MODEL 10
REMARK VINA RESULT:      -5.6      2.770      3.722
REMARK  1 active torsions:
REMARK  status: ('A' for Active; 'I' for Inactive)
REMARK       I    between atoms: C_2  and  N_3 
REMARK    1  A    between atoms: N_3  and  C_4 
ROOT
HETATM    1  C   LIG     1      17.558  37.378  22.306  1.00  0.00     0.035 A 
HETATM    2  C   LIG     1      17.760  37.733  23.653  1.00  0.00     0.036 A 
HETATM    3  C   LIG     1      17.557  36.792  24.675  1.00  0.00    -0.060 A 
HETATM    4  C   LIG     1      17.741  37.187  26.112  1.00  0.00     0.048 C 
HETATM    5  C   LIG     1      17.103  35.506  24.351  1.00  0.00     0.007 A 
HETATM    6  C   LIG     1      16.879  35.156  23.017  1.00  0.00     0.003 A 
HETATM    7  C   LIG     1      17.099  36.088  22.000  1.00  0.00     0.029 A 
ENDROOT
BRANCH   1   8
HETATM    8  N   LIG     1      17.747  38.329  21.243  1.00  0.00    -0.328 N 
HETATM    9  C   LIG     1      18.641  38.129  20.137  1.00  0.00     0.218 C 
HETATM   10  C   LIG     1      18.952  39.256  19.205  1.00  0.00     0.117 C 
HETATM   11  O   LIG     1      19.145  36.995  19.914  1.00  0.00    -0.274 OA
HETATM   12  H   LIG     1      17.132  39.174  21.229  1.00  0.00     0.169 HD
ENDBRANCH   1   8
TORSDOF 1
ENDMDL
MODEL 11
REMARK VINA RESULT:      -5.6     10.104     11.586
REMARK  1 active torsions:
REMARK  status: ('A' for Active; 'I' for Inactive)
REMARK       I    between atoms: C_2  and  N_3 
REMARK    1  A    between atoms: N_3  and  C_4 
ROOT
HETATM    1  C   LIG     1      19.449  33.872  11.797  1.00  0.00     0.035 A 
HETATM    2  C   LIG     1      20.502  34.131  12.694  1.00  0.00     0.036 A 
HETATM    3  C   LIG     1      21.610  34.893  12.291  1.00  0.00    -0.060 A 
HETATM    4  C   LIG     1      22.746  35.137  13.242  1.00  0.00     0.048 C 
HETATM    5  C   LIG     1      21.686  35.357  10.970  1.00  0.00     0.007 A 
HETATM    6  C   LIG     1      20.654  35.083  10.069  1.00  0.00     0.003 A 
HETATM    7  C   LIG     1      19.544  34.340  10.478  1.00  0.00     0.029 A 
ENDROOT
BRANCH   1   8
HETATM    8  N   LIG     1      18.311  33.083  12.185  1.00  0.00    -0.328 N 
HETATM    9  C   LIG     1      17.386  33.460  13.218  1.00  0.00     0.218 C 
HETATM   10  C   LIG     1      16.371  32.482  13.715  1.00  0.00     0.117 C 
HETATM   11  O   LIG     1      17.392  34.628  13.691  1.00  0.00    -0.274 OA
HETATM   12  H   LIG     1      18.093  32.229  11.622  1.00  0.00     0.169 HD
ENDBRANCH   1   8
TORSDOF 1
ENDMDL
MODEL 12
REMARK VINA RESULT:      -5.6      9.041     10.667
REMARK  1 active torsions:
REMARK  status: ('A' for Active; 'I' for Inactive)
REMARK       I    between atoms: C_2  and  N_3 
REMARK    1  A    between atoms: N_3  and  C_4 
ROOT
HETATM    1  C   LIG     1      13.450  29.884  14.730  1.00  0.00     0.035 A 
HETATM    2  C   LIG     1      14.514  30.406  13.970  1.00  0.00     0.036 A 
HETATM    3  C   LIG     1      15.339  31.413  14.497  1.00  0.00    -0.060 A 
HETATM    4  C   LIG     1      16.450  31.989  13.668  1.00  0.00     0.048 C 
HETATM    5  C   LIG     1      15.068  31.931  15.771  1.00  0.00     0.007 A 
HETATM    6  C   LIG     1      13.999  31.433  16.519  1.00  0.00     0.003 A 
HETATM    7  C   LIG     1      13.191  30.419  16.000  1.00  0.00     0.029 A 
ENDROOT
BRANCH   1   8
HETATM    8  N   LIG     1      12.584  28.862  14.206  1.00  0.00    -0.328 N 
HETATM    9  C   LIG     1      13.051  27.631  13.632  1.00  0.00     0.218 C 
HETATM   10  C   LIG     1      12.104  26.731  12.904  1.00  0.00     0.117 C 
HETATM   11  O   LIG     1      14.252  27.273  13.766  1.00  0.00    -0.274 OA
HETATM   12  H   LIG     1      11.553  28.984  14.331  1.00  0.00     0.169 HD
ENDBRANCH   1   8
TORSDOF 1
ENDMDL
MODEL 13
REMARK VINA RESULT:      -5.5      4.238      5.034
REMARK  1 active torsions:
REMARK  status: ('A' for Active; 'I' for Inactive)
REMARK       I    between atoms: C_2  and  N_3 
REMARK    1  A    between atoms: N_3  and  C_4 
ROOT
HETATM    1  C   LIG     1      18.580  38.028  20.150  1.00  0.00     0.035 A 
HETATM    2  C   LIG     1      18.011  36.760  20.376  1.00  0.00     0.036 A 
HETATM    3  C   LIG     1      17.349  36.483  21.582  1.00  0.00    -0.060 A 
HETATM    4  C   LIG     1      16.774  35.118  21.831  1.00  0.00     0.048 C 
HETATM    5  C   LIG     1      17.296  37.462  22.584  1.00  0.00     0.007 A 
HETATM    6  C   LIG     1      17.879  38.714  22.373  1.00  0.00     0.003 A 
HETATM    7  C   LIG     1      18.523  38.994  21.165  1.00  0.00     0.029 A 
ENDROOT
BRANCH   1   8
HETATM    8  N   LIG     1      19.275  38.331  18.928  1.00  0.00    -0.328 N 
HETATM    9  C   LIG     1      18.871  39.356  18.006  1.00  0.00     0.218 C 
HETATM   10  C   LIG     1      19.507  39.452  16.657  1.00  0.00     0.117 C 
HETATM   11  O   LIG     1      18.006  40.212  18.336  1.00  0.00    -0.274 OA
HETATM   12  H   LIG     1      20.177  37.835  18.743  1.00  0.00     0.169 HD
ENDBRANCH   1   8
TORSDOF 1
ENDMDL
MODEL 14
REMARK VINA RESULT:      -5.4      8.445     10.217
REMARK  1 active torsions:
REMARK  status: ('A' for Active; 'I' for Inactive)
REMARK       I    between atoms: C_2  and  N_3 
REMARK    1  A    between atoms: N_3  and  C_4 
ROOT
HETATM    1  C   LIG     1      16.945  32.727  13.628  1.00  0.00     0.035 A 
HETATM    2  C   LIG     1      16.108  31.620  13.388  1.00  0.00     0.036 A 
HETATM    3  C   LIG     1      15.225  31.168  14.381  1.00  0.00    -0.060 A 
HETATM    4  C   LIG     1      14.360  29.967  14.131  1.00  0.00     0.048 C 
HETATM    5  C   LIG     1      15.213  31.795  15.635  1.00  0.00     0.007 A 
HETATM    6  C   LIG     1      16.059  32.878  15.885  1.00  0.00     0.003 A 
HETATM    7  C   LIG     1      16.924  33.339  14.890  1.00  0.00     0.029 A 
ENDROOT
BRANCH   1   8
HETATM    8  N   LIG     1      17.866  33.200  12.630  1.00  0.00    -0.328 N 
HETATM    9  C   LIG     1      17.831  34.520  12.065  1.00  0.00     0.218 C 
HETATM   10  C   LIG     1      18.672  34.855  10.875  1.00  0.00     0.117 C 
HETATM   11  O   LIG     1      17.122  35.423  12.586  1.00  0.00    -0.274 OA
HETATM   12  H   LIG     1      18.663  32.576  12.366  1.00  0.00     0.169 HD
ENDBRANCH   1   8
TORSDOF 1
ENDMDL
MODEL 15
REMARK VINA RESULT:      -5.3      3.393      4.378
REMARK  1 active torsions:
REMARK  status: ('A' for Active; 'I' for Inactive)
REMARK       I    between atoms: C_2  and  N_3 
REMARK    1  A    between atoms: N_3  and  C_4 
ROOT
HETATM    1  C   LIG     1      17.955  38.197  21.539  1.00  0.00     0.035 A 
HETATM    2  C   LIG     1      17.355  36.938  21.341  1.00  0.00     0.036 A 
HETATM    3  C   LIG     1      16.798  36.238  22.422  1.00  0.00    -0.060 A 
HETATM    4  C   LIG     1      16.191  34.881  22.210  1.00  0.00     0.048 C 
HETATM    5  C   LIG     1      16.883  36.777  23.713  1.00  0.00     0.007 A 
HETATM    6  C   LIG     1      17.498  38.015  23.918  1.00  0.00     0.003 A 
HETATM    7  C   LIG     1      18.035  38.719  22.838  1.00  0.00     0.029 A 
ENDROOT
BRANCH   1   8
HETATM    8  N   LIG     1      18.543  38.927  20.448  1.00  0.00    -0.328 N 
HETATM    9  C   LIG     1      19.497  38.369  19.530  1.00  0.00     0.218 C 
HETATM   10  C   LIG     1      20.231  39.253  18.574  1.00  0.00     0.117 C 
HETATM   11  O   LIG     1      19.700  37.125  19.491  1.00  0.00    -0.274 OA
HETATM   12  H   LIG     1      18.190  39.892  20.259  1.00  0.00     0.169 HD
ENDBRANCH   1   8
TORSDOF 1
ENDMDL
MODEL 16
REMARK VINA RESULT:      -5.2      9.021     10.374
REMARK  1 active torsions:
REMARK  status: ('A' for Active; 'I' for Inactive)
REMARK       I    between atoms: C_2  and  N_3 
REMARK    1  A    between atoms: N_3  and  C_4 
ROOT
HETATM    1  C   LIG     1      15.514  31.223  14.978  1.00  0.00     0.035 A 
HETATM    2  C   LIG     1      15.576  30.013  14.261  1.00  0.00     0.036 A 
HETATM    3  C   LIG     1      14.466  29.155  14.213  1.00  0.00    -0.060 A 
HETATM    4  C   LIG     1      14.551  27.850  13.476  1.00  0.00     0.048 C 
HETATM    5  C   LIG     1      13.305  29.487  14.925  1.00  0.00     0.007 A 
HETATM    6  C   LIG     1      13.246  30.675  15.657  1.00  0.00     0.003 A 
HETATM    7  C   LIG     1      14.345  31.536  15.688  1.00  0.00     0.029 A 
ENDROOT
BRANCH   1   8
HETATM    8  N   LIG     1      16.643  32.110  15.052  1.00  0.00    -0.328 N 
HETATM    9  C   LIG     1      17.027  33.010  14.000  1.00  0.00     0.218 C 
HETATM   10  C   LIG     1      18.338  33.726  14.061  1.00  0.00     0.117 C 
HETATM   11  O   LIG     1      16.251  33.238  13.034  1.00  0.00    -0.274 OA
HETATM   12  H   LIG     1      17.161  32.167  15.958  1.00  0.00     0.169 HD
ENDBRANCH   1   8
TORSDOF 1
ENDMDL
MODEL 17
REMARK VINA RESULT:      -4.9     17.284     18.362
REMARK  1 active torsions:
REMARK  status: ('A' for Active; 'I' for Inactive)
REMARK       I    between atoms: C_2  and  N_3 
REMARK    1  A    between atoms: N_3  and  C_4 
ROOT
HETATM    1  C   LIG     1       3.767  41.729  34.541  1.00  0.00     0.035 A 
HETATM    2  C   LIG     1       3.492  41.346  33.214  1.00  0.00     0.036 A 
HETATM    3  C   LIG     1       3.565  42.285  32.173  1.00  0.00    -0.060 A 
HETATM    4  C   LIG     1       3.238  41.878  30.766  1.00  0.00     0.048 C 
HETATM    5  C   LIG     1       3.869  43.621  32.467  1.00  0.00     0.007 A 
HETATM    6  C   LIG     1       4.119  44.011  33.785  1.00  0.00     0.003 A 
HETATM    7  C   LIG     1       4.063  43.072  34.817  1.00  0.00     0.029 A 
ENDROOT
BRANCH   1   8
HETATM    8  N   LIG     1       3.685  40.788  35.626  1.00  0.00    -0.328 N 
HETATM    9  C   LIG     1       4.810  40.059  36.143  1.00  0.00     0.218 C 
HETATM   10  C   LIG     1       4.602  38.937  37.109  1.00  0.00     0.117 C 
HETATM   11  O   LIG     1       5.986  40.379  35.822  1.00  0.00    -0.274 OA
HETATM   12  H   LIG     1       2.771  40.696  36.125  1.00  0.00     0.169 HD
ENDBRANCH   1   8
TORSDOF 1
ENDMDL
MODEL 18
REMARK VINA RESULT:      -4.8      2.322      2.540
REMARK  1 active torsions:
REMARK  status: ('A' for Active; 'I' for Inactive)
REMARK       I    between atoms: C_2  and  N_3 
REMARK    1  A    between atoms: N_3  and  C_4 
ROOT
HETATM    1  C   LIG     1      17.473  37.510  22.904  1.00  0.00     0.035 A 
HETATM    2  C   LIG     1      17.409  36.239  23.506  1.00  0.00     0.036 A 
HETATM    3  C   LIG     1      17.309  36.116  24.901  1.00  0.00    -0.060 A 
HETATM    4  C   LIG     1      17.275  34.757  25.539  1.00  0.00     0.048 C 
HETATM    5  C   LIG     1      17.322  37.268  25.699  1.00  0.00     0.007 A 
HETATM    6  C   LIG     1      17.409  38.531  25.108  1.00  0.00     0.003 A 
HETATM    7  C   LIG     1      17.490  38.651  23.719  1.00  0.00     0.029 A 
ENDROOT
BRANCH   1   8
HETATM    8  N   LIG     1      17.589  37.660  21.479  1.00  0.00    -0.328 N 
HETATM    9  C   LIG     1      17.859  36.575  20.576  1.00  0.00     0.218 C 
HETATM   10  C   LIG     1      18.192  36.850  19.145  1.00  0.00     0.117 C 
HETATM   11  O   LIG     1      17.781  35.379  20.967  1.00  0.00    -0.274 OA
HETATM   12  H   LIG     1      17.376  38.597  21.067  1.00  0.00     0.169 HD
ENDBRANCH   1   8
TORSDOF 1
ENDMDL
MODEL 19
REMARK VINA RESULT:      -4.8      6.751     10.558
REMARK  1 active torsions:
REMARK  status: ('A' for Active; 'I' for Inactive)
REMARK       I    between atoms: C_2  and  N_3 
REMARK    1  A    between atoms: N_3  and  C_4 
ROOT
HETATM    1  C   LIG     1      14.514  30.523  14.957  1.00  0.00     0.035 A 
HETATM    2  C   LIG     1      15.390  29.587  14.376  1.00  0.00     0.036 A 
HETATM    3  C   LIG     1      14.890  28.414  13.787  1.00  0.00    -0.060 A 
HETATM    4  C   LIG     1      15.833  27.404  13.200  1.00  0.00     0.048 C 
HETATM    5  C   LIG     1      13.513  28.156  13.822  1.00  0.00     0.007 A 
HETATM    6  C   LIG     1      12.642  29.070  14.418  1.00  0.00     0.003 A 
HETATM    7  C   LIG     1      13.139  30.245  14.988  1.00  0.00     0.029 A 
ENDROOT
BRANCH   1   8
HETATM    8  N   LIG     1      15.003  31.725  15.577  1.00  0.00    -0.328 N 
HETATM    9  C   LIG     1      14.620  32.165  16.890  1.00  0.00     0.218 C 
HETATM   10  C   LIG     1      14.991  33.533  17.366  1.00  0.00     0.117 C 
HETATM   11  O   LIG     1      14.002  31.393  17.672  1.00  0.00    -0.274 OA
HETATM   12  H   LIG     1      15.749  32.263  15.079  1.00  0.00     0.169 HD
ENDBRANCH   1   8
TORSDOF 1
ENDMDL
MODEL 20
REMARK VINA RESULT:      -4.7      4.739      8.756
REMARK  1 active torsions:
REMARK  status: ('A' for Active; 'I' for Inactive)
REMARK       I    between atoms: C_2  and  N_3 
REMARK    1  A    between atoms: N_3  and  C_4 
ROOT
HETATM    1  C   LIG     1      15.382  32.112  16.396  1.00  0.00     0.035 A 
HETATM    2  C   LIG     1      16.304  32.792  15.578  1.00  0.00     0.036 A 
HETATM    3  C   LIG     1      16.410  32.480  14.213  1.00  0.00    -0.060 A 
HETATM    4  C   LIG     1      17.419  33.185  13.354  1.00  0.00     0.048 C 
HETATM    5  C   LIG     1      15.623  31.451  13.676  1.00  0.00     0.007 A 
HETATM    6  C   LIG     1      14.724  30.758  14.489  1.00  0.00     0.003 A 
HETATM    7  C   LIG     1      14.607  31.082  15.843  1.00  0.00     0.029 A 
ENDROOT
BRANCH   1   8
HETATM    8  N   LIG     1      15.265  32.406  17.799  1.00  0.00    -0.328 N 
HETATM    9  C   LIG     1      15.416  33.719  18.360  1.00  0.00     0.218 C 
HETATM   10  C   LIG     1      15.510  33.901  19.841  1.00  0.00     0.117 C 
HETATM   11  O   LIG     1      15.433  34.738  17.617  1.00  0.00    -0.274 OA
HETATM   12  H   LIG     1      14.965  31.633  18.437  1.00  0.00     0.169 HD
ENDBRANCH   1   8
TORSDOF 1
ENDMDL
