REMARK  2 active torsions:
REMARK  status: ('A' for Active; 'I' for Inactive)
REMARK       I    between atoms: C_2  and  N_5 
REMARK       I    between atoms: C_2  and  N_3 
REMARK    1  A    between atoms: N_3  and  N_4 
REMARK    2  A    between atoms: N_5  and  C_6 
ROOT
HETATM    1  O   LIG     1       2.839  -0.502   1.690  1.00  0.00    -0.246 OA
HETATM    2  C   LIG     1       1.951  -0.102   0.891  1.00  0.00     0.335 C 
HETATM    3  N   LIG     1       2.290   0.158  -0.479  1.00  0.00    -0.275 N 
HETATM    4  N   LIG     1       0.625   0.141   1.383  1.00  0.00    -0.308 N 
HETATM    5  H   LIG     1       1.604   0.633  -1.106  1.00  0.00     0.185 HD
HETATM    6  H   LIG     1       0.520   0.367   2.398  1.00  0.00     0.170 HD
ENDROOT
BRANCH   4   7
HETATM    7  C   LIG     1      -0.559   0.100   0.570  1.00  0.00     0.036 A 
HETATM    8  C   LIG     1      -1.653   0.915   0.903  1.00  0.00     0.029 A 
HETATM    9  C   LIG     1      -2.825   0.869   0.142  1.00  0.00     0.002 A 
HETATM   10  C   LIG     1      -2.921  -0.002  -0.946  1.00  0.00     0.000 A 
HETATM   11  C   LIG     1      -1.847  -0.835  -1.270  1.00  0.00     0.002 A 
HETATM   12  C   LIG     1      -0.672  -0.791  -0.513  1.00  0.00     0.029 A 
ENDBRANCH   4   7
BRANCH   3  13
HETATM   13  N   LIG     1       3.554  -0.167  -0.998  1.00  0.00    -0.246 NA
HETATM   14  H   LIG     1       4.273   0.333  -0.427  1.00  0.00     0.143 HD
HETATM   15  H   LIG     1       3.695  -1.195  -0.867  1.00  0.00     0.143 HD
ENDBRANCH   3  13
TORSDOF 2
