REMARK  1 active torsions:
REMARK  status: ('A' for Active; 'I' for Inactive)
REMARK       I    between atoms: C_2  and  N_3 
REMARK    1  A    between atoms: N_3  and  C_4 
ROOT
HETATM    1  C   LIG     1       0.242  -0.652  -0.060  1.00  0.00     0.035 A 
HETATM    2  C   LIG     1      -0.586   0.483  -0.151  1.00  0.00     0.036 A 
HETATM    3  C   LIG     1      -1.983   0.350  -0.117  1.00  0.00    -0.060 A 
HETATM    4  C   LIG     1      -2.860   1.561  -0.249  1.00  0.00     0.048 C 
HETATM    5  C   LIG     1      -2.554  -0.928  -0.039  1.00  0.00     0.007 A 
HETATM    6  C   LIG     1      -1.737  -2.059   0.028  1.00  0.00     0.003 A 
HETATM    7  C   LIG     1      -0.347  -1.923   0.012  1.00  0.00     0.029 A 
ENDROOT
BRANCH   1   8
HETATM    8  N   LIG     1       1.675  -0.541  -0.106  1.00  0.00    -0.328 N 
HETATM    9  C   LIG     1       2.415   0.550   0.465  1.00  0.00     0.218 C 
HETATM   10  C   LIG     1       3.873   0.707   0.174  1.00  0.00     0.117 C 
HETATM   11  O   LIG     1       1.857   1.365   1.248  1.00  0.00    -0.274 OA
HETATM   12  H   LIG     1       2.215  -1.345  -0.500  1.00  0.00     0.169 HD
ENDBRANCH   1   8
TORSDOF 1
