REMARK  2 active torsions:
REMARK  status: ('A' for Active; 'I' for Inactive)
REMARK       I    between atoms: N_1  and  C_2 
REMARK       I    between atoms: C_2  and  N_3 
REMARK    1  A    between atoms: N_3  and  C_4 
REMARK    2  A    between atoms: C_4  and  C_5 
ROOT
HETATM    1  N   LIG     1       2.462  -0.729   0.833  1.00  0.00    -0.352 N 
HETATM    2  C   LIG     1       2.318   0.678   1.040  1.00  0.00     0.314 C 
HETATM    3  N   LIG     1       1.611   1.509   0.107  1.00  0.00    -0.339 N 
HETATM    4  O   LIG     1       2.831   1.203   2.064  1.00  0.00    -0.248 OA
HETATM    5  H   LIG     1       2.959  -1.311   1.544  1.00  0.00     0.160 HD
HETATM    6  H   LIG     1       2.116  -1.199  -0.030  1.00  0.00     0.160 HD
HETATM    7  H   LIG     1       1.625   2.543   0.261  1.00  0.00     0.164 HD
ENDROOT
BRANCH   3   8
HETATM    8  C   LIG     1       0.868   1.000  -1.045  1.00  0.00     0.162 C 
BRANCH   8   9
HETATM    9  C   LIG     1      -0.364   0.257  -0.600  1.00  0.00    -0.040 A 
HETATM   10  C   LIG     1      -0.578  -1.076  -0.993  1.00  0.00     0.009 A 
HETATM   11  C   LIG     1      -1.729  -1.755  -0.583  1.00  0.00     0.001 A 
HETATM   12  C   LIG     1      -2.678  -1.109   0.216  1.00  0.00     0.000 A 
HETATM   13  C   LIG     1      -2.478   0.219   0.602  1.00  0.00     0.001 A 
HETATM   14  C   LIG     1      -1.328   0.902   0.193  1.00  0.00     0.009 A 
ENDBRANCH   8   9
ENDBRANCH   3   8
TORSDOF 2
