REMARK  4 active torsions:
REMARK  status: ('A' for Active; 'I' for Inactive)
REMARK    1  A    between atoms: C_2  and  C_3 
REMARK    2  A    between atoms: C_3  and  C_4 
REMARK    3  A    between atoms: C_4  and  C_5 
REMARK    4  A    between atoms: C_5  and  C_6 
ROOT
HETATM    1  C   LIG     1       1.439  -0.296   0.362  1.00  0.00    -0.058 A 
HETATM    2  C   LIG     1       2.416   0.690   0.586  1.00  0.00     0.007 A 
HETATM    3  C   LIG     1       3.709   0.529   0.080  1.00  0.00     0.001 A 
HETATM    4  C   LIG     1       4.038  -0.616  -0.650  1.00  0.00     0.000 A 
HETATM    5  C   LIG     1       3.075  -1.603  -0.874  1.00  0.00     0.001 A 
HETATM    6  C   LIG     1       1.780  -1.447  -0.369  1.00  0.00     0.007 A 
ENDROOT
BRANCH   1   7
HETATM    7  C   LIG     1       0.046  -0.122   0.913  1.00  0.00     0.038 C 
BRANCH   7   8
HETATM    8  C   LIG     1      -0.723   0.952   0.130  1.00  0.00     0.005 C 
BRANCH   8   9
HETATM    9  C   LIG     1      -2.092   1.283   0.751  1.00  0.00    -0.000 C 
BRANCH   9  10
HETATM   10  C   LIG     1      -3.093   0.114   0.775  1.00  0.00    -0.005 C 
HETATM   11  C   LIG     1      -3.444  -0.403  -0.619  1.00  0.00     0.005 C 
ENDBRANCH   9  10
ENDBRANCH   8   9
ENDBRANCH   7   8
ENDBRANCH   1   7
TORSDOF 4
