REMARK  2 active torsions:
REMARK  status: ('A' for Active; 'I' for Inactive)
REMARK    1  A    between atoms: C_2  and  C_4 
REMARK    2  A    between atoms: C_4  and  C_5 
ROOT
HETATM    1  C   LIG     1       0.734   0.288   0.474  1.00  0.00    -0.058 A 
HETATM    2  C   LIG     1       1.528   1.205  -0.236  1.00  0.00     0.007 A 
HETATM    3  C   LIG     1       2.871   0.918  -0.499  1.00  0.00     0.001 A 
HETATM    4  C   LIG     1       3.432  -0.281  -0.052  1.00  0.00     0.000 A 
HETATM    5  C   LIG     1       2.652  -1.195   0.660  1.00  0.00     0.001 A 
HETATM    6  C   LIG     1       1.308  -0.913   0.926  1.00  0.00     0.007 A 
ENDROOT
BRANCH   1   7
HETATM    7  C   LIG     1      -0.716   0.593   0.762  1.00  0.00     0.042 C 
BRANCH   7   8
HETATM    8  C   LIG     1      -1.675  -0.332  -0.020  1.00  0.00    -0.019 C 
HETATM    9  C   LIG     1      -1.564  -0.103  -1.535  1.00  0.00     0.010 C 
HETATM   10  C   LIG     1      -3.120  -0.106   0.441  1.00  0.00     0.010 C 
ENDBRANCH   7   8
ENDBRANCH   1   7
TORSDOF 2
