MODEL 1
REMARK VINA RESULT:      -7.3      0.000      0.000
REMARK  2 active torsions:
REMARK  status: ('A' for Active; 'I' for Inactive)
REMARK       I    between atoms: N_1  and  C_2 
REMARK       I    between atoms: C_2  and  N_3 
REMARK    1  A    between atoms: N_3  and  C_4 
REMARK    2  A    between atoms: C_4  and  C_5 
ROOT
HETATM    1  N   LIG     1      14.456  35.697  21.270  1.00  0.00    -0.352 N 
HETATM    2  C   LIG     1      15.860  35.561  21.037  1.00  0.00     0.314 C 
HETATM    3  N   LIG     1      16.825  36.318  21.783  1.00  0.00    -0.339 N 
HETATM    4  O   LIG     1      16.260  34.761  20.149  1.00  0.00    -0.248 OA
HETATM    5  H   LIG     1      13.780  35.112  20.730  1.00  0.00     0.160 HD
HETATM    6  H   LIG     1      14.072  36.393  21.944  1.00  0.00     0.160 HD
HETATM    7  H   LIG     1      17.829  36.250  21.499  1.00  0.00     0.164 HD
ENDROOT
BRANCH   3   8
HETATM    8  C   LIG     1      16.492  37.178  22.918  1.00  0.00     0.162 C 
BRANCH   8   9
HETATM    9  C   LIG     1      17.124  36.659  24.183  1.00  0.00    -0.040 A 
HETATM   10  C   LIG     1      17.766  37.536  25.075  1.00  0.00     0.009 A 
HETATM   11  C   LIG     1      18.357  37.044  26.243  1.00  0.00     0.001 A 
HETATM   12  C   LIG     1      18.318  35.675  26.526  1.00  0.00     0.000 A 
HETATM   13  C   LIG     1      17.691  34.796  25.639  1.00  0.00     0.001 A 
HETATM   14  C   LIG     1      17.099  35.284  24.470  1.00  0.00     0.009 A 
ENDBRANCH   8   9
ENDBRANCH   3   8
TORSDOF 2
ENDMDL
MODEL 2
REMARK VINA RESULT:      -7.1      3.425      5.179
REMARK  2 active torsions:
REMARK  status: ('A' for Active; 'I' for Inactive)
REMARK       I    between atoms: N_1  and  C_2 
REMARK       I    between atoms: C_2  and  N_3 
REMARK    1  A    between atoms: N_3  and  C_4 
REMARK    2  A    between atoms: C_4  and  C_5 
ROOT
HETATM    1  N   LIG     1      17.253  38.653  25.384  1.00  0.00    -0.352 N 
HETATM    2  C   LIG     1      17.514  37.283  25.071  1.00  0.00     0.314 C 
HETATM    3  N   LIG     1      17.106  36.704  23.822  1.00  0.00    -0.339 N 
HETATM    4  O   LIG     1      18.110  36.564  25.916  1.00  0.00    -0.248 OA
HETATM    5  H   LIG     1      17.585  39.052  26.290  1.00  0.00     0.160 HD
HETATM    6  H   LIG     1      16.704  39.270  24.749  1.00  0.00     0.160 HD
HETATM    7  H   LIG     1      17.236  35.674  23.693  1.00  0.00     0.164 HD
ENDROOT
BRANCH   3   8
HETATM    8  C   LIG     1      16.524  37.463  22.717  1.00  0.00     0.162 C 
BRANCH   8   9
HETATM    9  C   LIG     1      17.548  37.707  21.639  1.00  0.00    -0.040 A 
HETATM   10  C   LIG     1      17.849  36.707  20.698  1.00  0.00     0.009 A 
HETATM   11  C   LIG     1      18.807  36.939  19.706  1.00  0.00     0.001 A 
HETATM   12  C   LIG     1      19.476  38.165  19.650  1.00  0.00     0.000 A 
HETATM   13  C   LIG     1      19.191  39.160  20.589  1.00  0.00     0.001 A 
HETATM   14  C   LIG     1      18.233  38.932  21.582  1.00  0.00     0.009 A 
ENDBRANCH   8   9
ENDBRANCH   3   8
TORSDOF 2
ENDMDL
MODEL 3
REMARK VINA RESULT:      -7.0      1.963      2.850
REMARK  2 active torsions:
REMARK  status: ('A' for Active; 'I' for Inactive)
REMARK       I    between atoms: N_1  and  C_2 
REMARK       I    between atoms: C_2  and  N_3 
REMARK    1  A    between atoms: N_3  and  C_4 
REMARK    2  A    between atoms: C_4  and  C_5 
ROOT
HETATM    1  N   LIG     1      18.805  39.535  21.805  1.00  0.00    -0.352 N 
HETATM    2  C   LIG     1      18.263  38.338  21.241  1.00  0.00     0.314 C 
HETATM    3  N   LIG     1      17.324  37.524  21.960  1.00  0.00    -0.339 N 
HETATM    4  O   LIG     1      18.623  37.986  20.086  1.00  0.00    -0.248 OA
HETATM    5  H   LIG     1      19.465  40.120  21.245  1.00  0.00     0.160 HD
HETATM    6  H   LIG     1      18.591  39.832  22.780  1.00  0.00     0.160 HD
HETATM    7  H   LIG     1      17.041  36.611  21.537  1.00  0.00     0.164 HD
ENDROOT
BRANCH   3   8
HETATM    8  C   LIG     1      16.736  37.893  23.247  1.00  0.00     0.162 C 
BRANCH   8   9
HETATM    9  C   LIG     1      17.258  37.005  24.346  1.00  0.00    -0.040 A 
HETATM   10  C   LIG     1      17.072  35.612  24.292  1.00  0.00     0.009 A 
HETATM   11  C   LIG     1      17.551  34.797  25.322  1.00  0.00     0.001 A 
HETATM   12  C   LIG     1      18.214  35.364  26.415  1.00  0.00     0.000 A 
HETATM   13  C   LIG     1      18.393  36.748  26.482  1.00  0.00     0.001 A 
HETATM   14  C   LIG     1      17.914  37.567  25.454  1.00  0.00     0.009 A 
ENDBRANCH   8   9
ENDBRANCH   3   8
TORSDOF 2
ENDMDL
MODEL 4
REMARK VINA RESULT:      -6.9      3.219      4.211
REMARK  2 active torsions:
REMARK  status: ('A' for Active; 'I' for Inactive)
REMARK       I    between atoms: N_1  and  C_2 
REMARK       I    between atoms: C_2  and  N_3 
REMARK    1  A    between atoms: N_3  and  C_4 
REMARK    2  A    between atoms: C_4  and  C_5 
ROOT
HETATM    1  N   LIG     1      14.308  34.163  21.475  1.00  0.00    -0.352 N 
HETATM    2  C   LIG     1      15.460  33.993  20.646  1.00  0.00     0.314 C 
HETATM    3  N   LIG     1      16.529  34.951  20.636  1.00  0.00    -0.339 N 
HETATM    4  O   LIG     1      15.535  32.980  19.900  1.00  0.00    -0.248 OA
HETATM    5  H   LIG     1      13.559  33.435  21.480  1.00  0.00     0.160 HD
HETATM    6  H   LIG     1      14.167  35.015  22.058  1.00  0.00     0.160 HD
HETATM    7  H   LIG     1      17.296  34.823  19.937  1.00  0.00     0.164 HD
ENDROOT
BRANCH   3   8
HETATM    8  C   LIG     1      16.616  36.093  21.545  1.00  0.00     0.162 C 
BRANCH   8   9
HETATM    9  C   LIG     1      17.634  37.089  21.055  1.00  0.00    -0.040 A 
HETATM   10  C   LIG     1      17.723  38.366  21.636  1.00  0.00     0.009 A 
HETATM   11  C   LIG     1      18.665  39.288  21.169  1.00  0.00     0.001 A 
HETATM   12  C   LIG     1      19.519  38.946  20.116  1.00  0.00     0.000 A 
HETATM   13  C   LIG     1      19.429  37.682  19.526  1.00  0.00     0.001 A 
HETATM   14  C   LIG     1      18.488  36.758  19.990  1.00  0.00     0.009 A 
ENDBRANCH   8   9
ENDBRANCH   3   8
TORSDOF 2
ENDMDL
MODEL 5
REMARK VINA RESULT:      -6.5      6.739     10.001
REMARK  2 active torsions:
REMARK  status: ('A' for Active; 'I' for Inactive)
REMARK       I    between atoms: N_1  and  C_2 
REMARK       I    between atoms: C_2  and  N_3 
REMARK    1  A    between atoms: N_3  and  C_4 
REMARK    2  A    between atoms: C_4  and  C_5 
ROOT
HETATM    1  N   LIG     1      15.346  33.533  18.804  1.00  0.00    -0.352 N 
HETATM    2  C   LIG     1      14.945  32.196  19.109  1.00  0.00     0.314 C 
HETATM    3  N   LIG     1      13.978  31.498  18.310  1.00  0.00    -0.339 N 
HETATM    4  O   LIG     1      15.447  31.618  20.109  1.00  0.00    -0.248 OA
HETATM    5  H   LIG     1      16.072  34.005  19.389  1.00  0.00     0.160 HD
HETATM    6  H   LIG     1      14.911  34.078  18.030  1.00  0.00     0.160 HD
HETATM    7  H   LIG     1      13.652  30.561  18.640  1.00  0.00     0.164 HD
ENDROOT
BRANCH   3   8
HETATM    8  C   LIG     1      13.423  32.013  17.059  1.00  0.00     0.162 C 
BRANCH   8   9
HETATM    9  C   LIG     1      14.035  31.313  15.874  1.00  0.00    -0.040 A 
HETATM   10  C   LIG     1      13.411  30.189  15.305  1.00  0.00     0.009 A 
HETATM   11  C   LIG     1      13.991  29.540  14.211  1.00  0.00     0.001 A 
HETATM   12  C   LIG     1      15.201  30.001  13.682  1.00  0.00     0.000 A 
HETATM   13  C   LIG     1      15.833  31.111  14.249  1.00  0.00     0.001 A 
HETATM   14  C   LIG     1      15.256  31.762  15.344  1.00  0.00     0.009 A 
ENDBRANCH   8   9
ENDBRANCH   3   8
TORSDOF 2
ENDMDL
MODEL 6
REMARK VINA RESULT:      -6.2      3.731      4.783
REMARK  2 active torsions:
REMARK  status: ('A' for Active; 'I' for Inactive)
REMARK       I    between atoms: N_1  and  C_2 
REMARK       I    between atoms: C_2  and  N_3 
REMARK    1  A    between atoms: N_3  and  C_4 
REMARK    2  A    between atoms: C_4  and  C_5 
ROOT
HETATM    1  N   LIG     1      20.426  39.492  18.851  1.00  0.00    -0.352 N 
HETATM    2  C   LIG     1      19.225  39.104  18.180  1.00  0.00     0.314 C 
HETATM    3  N   LIG     1      18.568  37.860  18.468  1.00  0.00    -0.339 N 
HETATM    4  O   LIG     1      18.735  39.870  17.308  1.00  0.00    -0.248 OA
HETATM    5  H   LIG     1      20.865  40.415  18.638  1.00  0.00     0.160 HD
HETATM    6  H   LIG     1      20.908  38.864  19.529  1.00  0.00     0.160 HD
HETATM    7  H   LIG     1      17.752  37.587  17.875  1.00  0.00     0.164 HD
ENDROOT
BRANCH   3   8
HETATM    8  C   LIG     1      18.967  36.952  19.542  1.00  0.00     0.162 C 
BRANCH   8   9
HETATM    9  C   LIG     1      18.054  37.096  20.730  1.00  0.00    -0.040 A 
HETATM   10  C   LIG     1      17.967  38.317  21.423  1.00  0.00     0.009 A 
HETATM   11  C   LIG     1      17.124  38.439  22.531  1.00  0.00     0.001 A 
HETATM   12  C   LIG     1      16.366  37.345  22.961  1.00  0.00     0.000 A 
HETATM   13  C   LIG     1      16.454  36.126  22.284  1.00  0.00     0.001 A 
HETATM   14  C   LIG     1      17.298  35.999  21.176  1.00  0.00     0.009 A 
ENDBRANCH   8   9
ENDBRANCH   3   8
TORSDOF 2
ENDMDL
MODEL 7
REMARK VINA RESULT:      -6.0      1.614      2.547
REMARK  2 active torsions:
REMARK  status: ('A' for Active; 'I' for Inactive)
REMARK       I    between atoms: N_1  and  C_2 
REMARK       I    between atoms: C_2  and  N_3 
REMARK    1  A    between atoms: N_3  and  C_4 
REMARK    2  A    between atoms: C_4  and  C_5 
ROOT
HETATM    1  N   LIG     1      14.222  35.791  21.137  1.00  0.00    -0.352 N 
HETATM    2  C   LIG     1      14.990  34.604  21.348  1.00  0.00     0.314 C 
HETATM    3  N   LIG     1      16.423  34.609  21.275  1.00  0.00    -0.339 N 
HETATM    4  O   LIG     1      14.392  33.523  21.598  1.00  0.00    -0.248 OA
HETATM    5  H   LIG     1      13.182  35.760  21.224  1.00  0.00     0.160 HD
HETATM    6  H   LIG     1      14.665  36.693  20.861  1.00  0.00     0.160 HD
HETATM    7  H   LIG     1      16.922  33.693  21.339  1.00  0.00     0.164 HD
ENDROOT
BRANCH   3   8
HETATM    8  C   LIG     1      17.232  35.818  21.120  1.00  0.00     0.162 C 
BRANCH   8   9
HETATM    9  C   LIG     1      17.263  36.607  22.402  1.00  0.00    -0.040 A 
HETATM   10  C   LIG     1      17.211  35.956  23.646  1.00  0.00     0.009 A 
HETATM   11  C   LIG     1      17.231  36.697  24.831  1.00  0.00     0.001 A 
HETATM   12  C   LIG     1      17.298  38.093  24.784  1.00  0.00     0.000 A 
HETATM   13  C   LIG     1      17.340  38.749  23.551  1.00  0.00     0.001 A 
HETATM   14  C   LIG     1      17.319  38.011  22.364  1.00  0.00     0.009 A 
ENDBRANCH   8   9
ENDBRANCH   3   8
TORSDOF 2
ENDMDL
MODEL 8
REMARK VINA RESULT:      -5.9      9.595     11.325
REMARK  2 active torsions:
REMARK  status: ('A' for Active; 'I' for Inactive)
REMARK       I    between atoms: N_1  and  C_2 
REMARK       I    between atoms: C_2  and  N_3 
REMARK    1  A    between atoms: N_3  and  C_4 
REMARK    2  A    between atoms: C_4  and  C_5 
ROOT
HETATM    1  N   LIG     1      14.087  26.925  12.662  1.00  0.00    -0.352 N 
HETATM    2  C   LIG     1      13.024  27.502  13.424  1.00  0.00     0.314 C 
HETATM    3  N   LIG     1      13.194  28.732  14.144  1.00  0.00    -0.339 N 
HETATM    4  O   LIG     1      11.911  26.912  13.470  1.00  0.00    -0.248 OA
HETATM    5  H   LIG     1      13.923  26.043  12.126  1.00  0.00     0.160 HD
HETATM    6  H   LIG     1      15.043  27.337  12.647  1.00  0.00     0.160 HD
HETATM    7  H   LIG     1      12.414  29.051  14.763  1.00  0.00     0.164 HD
ENDROOT
BRANCH   3   8
HETATM    8  C   LIG     1      14.390  29.569  14.065  1.00  0.00     0.162 C 
BRANCH   8   9
HETATM    9  C   LIG     1      14.351  30.657  15.107  1.00  0.00    -0.040 A 
HETATM   10  C   LIG     1      13.274  30.748  16.007  1.00  0.00     0.009 A 
HETATM   11  C   LIG     1      13.241  31.766  16.964  1.00  0.00     0.001 A 
HETATM   12  C   LIG     1      14.276  32.704  17.028  1.00  0.00     0.000 A 
HETATM   13  C   LIG     1      15.345  32.626  16.130  1.00  0.00     0.001 A 
HETATM   14  C   LIG     1      15.381  31.610  15.170  1.00  0.00     0.009 A 
ENDBRANCH   8   9
ENDBRANCH   3   8
TORSDOF 2
ENDMDL
MODEL 9
REMARK VINA RESULT:      -5.7      5.455      8.708
REMARK  2 active torsions:
REMARK  status: ('A' for Active; 'I' for Inactive)
REMARK       I    between atoms: N_1  and  C_2 
REMARK       I    between atoms: C_2  and  N_3 
REMARK    1  A    between atoms: N_3  and  C_4 
REMARK    2  A    between atoms: C_4  and  C_5 
ROOT
HETATM    1  N   LIG     1      14.543  33.696  21.211  1.00  0.00    -0.352 N 
HETATM    2  C   LIG     1      15.478  33.961  20.163  1.00  0.00     0.314 C 
HETATM    3  N   LIG     1      15.490  33.190  18.952  1.00  0.00    -0.339 N 
HETATM    4  O   LIG     1      16.317  34.889  20.308  1.00  0.00    -0.248 OA
HETATM    5  H   LIG     1      14.542  34.293  22.069  1.00  0.00     0.160 HD
HETATM    6  H   LIG     1      13.875  32.898  21.169  1.00  0.00     0.160 HD
HETATM    7  H   LIG     1      16.260  33.364  18.266  1.00  0.00     0.164 HD
ENDROOT
BRANCH   3   8
HETATM    8  C   LIG     1      14.491  32.177  18.614  1.00  0.00     0.162 C 
BRANCH   8   9
HETATM    9  C   LIG     1      14.626  31.752  17.176  1.00  0.00    -0.040 A 
HETATM   10  C   LIG     1      15.642  32.285  16.363  1.00  0.00     0.009 A 
HETATM   11  C   LIG     1      15.754  31.893  15.027  1.00  0.00     0.001 A 
HETATM   12  C   LIG     1      14.850  30.971  14.488  1.00  0.00     0.000 A 
HETATM   13  C   LIG     1      13.831  30.444  15.286  1.00  0.00     0.001 A 
HETATM   14  C   LIG     1      13.715  30.835  16.623  1.00  0.00     0.009 A 
ENDBRANCH   8   9
ENDBRANCH   3   8
TORSDOF 2
ENDMDL
MODEL 10
REMARK VINA RESULT:      -5.7      3.013      3.892
REMARK  2 active torsions:
REMARK  status: ('A' for Active; 'I' for Inactive)
REMARK       I    between atoms: N_1  and  C_2 
REMARK       I    between atoms: C_2  and  N_3 
REMARK    1  A    between atoms: N_3  and  C_4 
REMARK    2  A    between atoms: C_4  and  C_5 
ROOT
HETATM    1  N   LIG     1      15.362  34.259  19.422  1.00  0.00    -0.352 N 
HETATM    2  C   LIG     1      15.440  34.474  20.833  1.00  0.00     0.314 C 
HETATM    3  N   LIG     1      16.564  35.133  21.435  1.00  0.00    -0.339 N 
HETATM    4  O   LIG     1      14.500  34.068  21.568  1.00  0.00    -0.248 OA
HETATM    5  H   LIG     1      14.518  33.801  19.012  1.00  0.00     0.160 HD
HETATM    6  H   LIG     1      16.142  34.514  18.781  1.00  0.00     0.160 HD
HETATM    7  H   LIG     1      16.610  35.172  22.479  1.00  0.00     0.164 HD
ENDROOT
BRANCH   3   8
HETATM    8  C   LIG     1      17.649  35.758  20.680  1.00  0.00     0.162 C 
BRANCH   8   9
HETATM    9  C   LIG     1      17.851  37.185  21.117  1.00  0.00    -0.040 A 
HETATM   10  C   LIG     1      18.743  38.026  20.427  1.00  0.00     0.009 A 
HETATM   11  C   LIG     1      18.931  39.346  20.845  1.00  0.00     0.001 A 
HETATM   12  C   LIG     1      18.238  39.836  21.957  1.00  0.00     0.000 A 
HETATM   13  C   LIG     1      17.359  39.003  22.655  1.00  0.00     0.001 A 
HETATM   14  C   LIG     1      17.168  37.681  22.240  1.00  0.00     0.009 A 
ENDBRANCH   8   9
ENDBRANCH   3   8
TORSDOF 2
ENDMDL
MODEL 11
REMARK VINA RESULT:      -5.6      9.324     11.034
REMARK  2 active torsions:
REMARK  status: ('A' for Active; 'I' for Inactive)
REMARK       I    between atoms: N_1  and  C_2 
REMARK       I    between atoms: C_2  and  N_3 
REMARK    1  A    between atoms: N_3  and  C_4 
REMARK    2  A    between atoms: C_4  and  C_5 
ROOT
HETATM    1  N   LIG     1      13.577  26.989  12.943  1.00  0.00    -0.352 N 
HETATM    2  C   LIG     1      14.833  27.629  13.182  1.00  0.00     0.314 C 
HETATM    3  N   LIG     1      14.916  28.911  13.824  1.00  0.00    -0.339 N 
HETATM    4  O   LIG     1      15.893  27.057  12.813  1.00  0.00    -0.248 OA
HETATM    5  H   LIG     1      13.552  26.044  12.498  1.00  0.00     0.160 HD
HETATM    6  H   LIG     1      12.670  27.450  13.167  1.00  0.00     0.160 HD
HETATM    7  H   LIG     1      15.852  29.372  13.881  1.00  0.00     0.164 HD
ENDROOT
BRANCH   3   8
HETATM    8  C   LIG     1      13.773  29.611  14.407  1.00  0.00     0.162 C 
BRANCH   8   9
HETATM    9  C   LIG     1      14.233  30.723  15.313  1.00  0.00    -0.040 A 
HETATM   10  C   LIG     1      15.379  31.474  14.999  1.00  0.00     0.009 A 
HETATM   11  C   LIG     1      15.805  32.498  15.850  1.00  0.00     0.001 A 
HETATM   12  C   LIG     1      15.095  32.777  17.022  1.00  0.00     0.000 A 
HETATM   13  C   LIG     1      13.960  32.028  17.347  1.00  0.00     0.001 A 
HETATM   14  C   LIG     1      13.532  31.002  16.498  1.00  0.00     0.009 A 
ENDBRANCH   8   9
ENDBRANCH   3   8
TORSDOF 2
ENDMDL
MODEL 12
REMARK VINA RESULT:      -5.6      9.124     10.403
REMARK  2 active torsions:
REMARK  status: ('A' for Active; 'I' for Inactive)
REMARK       I    between atoms: N_1  and  C_2 
REMARK       I    between atoms: C_2  and  N_3 
REMARK    1  A    between atoms: N_3  and  C_4 
REMARK    2  A    between atoms: C_4  and  C_5 
ROOT
HETATM    1  N   LIG     1      17.246  35.148  15.646  1.00  0.00    -0.352 N 
HETATM    2  C   LIG     1      17.332  34.334  14.474  1.00  0.00     0.314 C 
HETATM    3  N   LIG     1      17.098  32.919  14.520  1.00  0.00    -0.339 N 
HETATM    4  O   LIG     1      17.627  34.873  13.374  1.00  0.00    -0.248 OA
HETATM    5  H   LIG     1      17.395  36.180  15.575  1.00  0.00     0.160 HD
HETATM    6  H   LIG     1      17.072  34.742  16.590  1.00  0.00     0.160 HD
HETATM    7  H   LIG     1      17.273  32.363  13.652  1.00  0.00     0.164 HD
ENDROOT
BRANCH   3   8
HETATM    8  C   LIG     1      16.626  32.204  15.705  1.00  0.00     0.162 C 
BRANCH   8   9
HETATM    9  C   LIG     1      15.420  31.364  15.377  1.00  0.00    -0.040 A 
HETATM   10  C   LIG     1      14.253  31.449  16.157  1.00  0.00     0.009 A 
HETATM   11  C   LIG     1      13.142  30.659  15.851  1.00  0.00     0.001 A 
HETATM   12  C   LIG     1      13.187  29.773  14.770  1.00  0.00     0.000 A 
HETATM   13  C   LIG     1      14.346  29.674  13.996  1.00  0.00     0.001 A 
HETATM   14  C   LIG     1      15.461  30.463  14.300  1.00  0.00     0.009 A 
ENDBRANCH   8   9
ENDBRANCH   3   8
TORSDOF 2
ENDMDL
MODEL 13
REMARK VINA RESULT:      -5.5      1.724      2.449
REMARK  2 active torsions:
REMARK  status: ('A' for Active; 'I' for Inactive)
REMARK       I    between atoms: N_1  and  C_2 
REMARK       I    between atoms: C_2  and  N_3 
REMARK    1  A    between atoms: N_3  and  C_4 
REMARK    2  A    between atoms: C_4  and  C_5 
ROOT
HETATM    1  N   LIG     1      15.445  34.288  18.473  1.00  0.00    -0.352 N 
HETATM    2  C   LIG     1      15.201  33.621  19.714  1.00  0.00     0.314 C 
HETATM    3  N   LIG     1      15.272  34.313  20.969  1.00  0.00    -0.339 N 
HETATM    4  O   LIG     1      14.924  32.392  19.705  1.00  0.00    -0.248 OA
HETATM    5  H   LIG     1      15.360  33.763  17.575  1.00  0.00     0.160 HD
HETATM    6  H   LIG     1      15.744  35.286  18.432  1.00  0.00     0.160 HD
HETATM    7  H   LIG     1      15.182  33.751  21.846  1.00  0.00     0.164 HD
ENDROOT
BRANCH   3   8
HETATM    8  C   LIG     1      15.458  35.758  21.100  1.00  0.00     0.162 C 
BRANCH   8   9
HETATM    9  C   LIG     1      16.142  36.093  22.399  1.00  0.00    -0.040 A 
HETATM   10  C   LIG     1      16.188  37.419  22.863  1.00  0.00     0.009 A 
HETATM   11  C   LIG     1      16.833  37.723  24.065  1.00  0.00     0.001 A 
HETATM   12  C   LIG     1      17.444  36.708  24.810  1.00  0.00     0.000 A 
HETATM   13  C   LIG     1      17.413  35.389  24.350  1.00  0.00     0.001 A 
HETATM   14  C   LIG     1      16.768  35.082  23.147  1.00  0.00     0.009 A 
ENDBRANCH   8   9
ENDBRANCH   3   8
TORSDOF 2
ENDMDL
MODEL 14
REMARK VINA RESULT:      -5.5      3.070      5.042
REMARK  2 active torsions:
REMARK  status: ('A' for Active; 'I' for Inactive)
REMARK       I    between atoms: N_1  and  C_2 
REMARK       I    between atoms: C_2  and  N_3 
REMARK    1  A    between atoms: N_3  and  C_4 
REMARK    2  A    between atoms: C_4  and  C_5 
ROOT
HETATM    1  N   LIG     1      17.251  38.864  26.081  1.00  0.00    -0.352 N 
HETATM    2  C   LIG     1      17.677  37.540  25.753  1.00  0.00     0.314 C 
HETATM    3  N   LIG     1      17.545  37.013  24.424  1.00  0.00    -0.339 N 
HETATM    4  O   LIG     1      18.174  36.814  26.655  1.00  0.00    -0.248 OA
HETATM    5  H   LIG     1      17.385  39.228  27.051  1.00  0.00     0.160 HD
HETATM    6  H   LIG     1      16.772  39.479  25.389  1.00  0.00     0.160 HD
HETATM    7  H   LIG     1      17.781  36.007  24.269  1.00  0.00     0.164 HD
ENDROOT
BRANCH   3   8
HETATM    8  C   LIG     1      17.104  37.797  23.271  1.00  0.00     0.162 C 
BRANCH   8   9
HETATM    9  C   LIG     1      16.606  36.897  22.172  1.00  0.00    -0.040 A 
HETATM   10  C   LIG     1      17.455  36.516  21.117  1.00  0.00     0.009 A 
HETATM   11  C   LIG     1      16.981  35.687  20.096  1.00  0.00     0.001 A 
HETATM   12  C   LIG     1      15.657  35.237  20.115  1.00  0.00     0.000 A 
HETATM   13  C   LIG     1      14.804  35.620  21.153  1.00  0.00     0.001 A 
HETATM   14  C   LIG     1      15.274  36.449  22.176  1.00  0.00     0.009 A 
ENDBRANCH   8   9
ENDBRANCH   3   8
TORSDOF 2
ENDMDL
MODEL 15
REMARK VINA RESULT:      -5.3     10.354     12.015
REMARK  2 active torsions:
REMARK  status: ('A' for Active; 'I' for Inactive)
REMARK       I    between atoms: N_1  and  C_2 
REMARK       I    between atoms: C_2  and  N_3 
REMARK    1  A    between atoms: N_3  and  C_4 
REMARK    2  A    between atoms: C_4  and  C_5 
ROOT
HETATM    1  N   LIG     1      12.405  26.680  12.626  1.00  0.00    -0.352 N 
HETATM    2  C   LIG     1      11.824  27.911  13.063  1.00  0.00     0.314 C 
HETATM    3  N   LIG     1      12.555  28.845  13.872  1.00  0.00    -0.339 N 
HETATM    4  O   LIG     1      10.637  28.179  12.736  1.00  0.00    -0.248 OA
HETATM    5  H   LIG     1      11.856  26.034  12.016  1.00  0.00     0.160 HD
HETATM    6  H   LIG     1      13.356  26.381  12.926  1.00  0.00     0.160 HD
HETATM    7  H   LIG     1      12.045  29.679  14.243  1.00  0.00     0.164 HD
ENDROOT
BRANCH   3   8
HETATM    8  C   LIG     1      13.971  28.706  14.207  1.00  0.00     0.162 C 
BRANCH   8   9
HETATM    9  C   LIG     1      14.577  30.045  14.532  1.00  0.00    -0.040 A 
HETATM   10  C   LIG     1      15.502  30.645  13.659  1.00  0.00     0.009 A 
HETATM   11  C   LIG     1      16.066  31.884  13.973  1.00  0.00     0.001 A 
HETATM   12  C   LIG     1      15.719  32.532  15.163  1.00  0.00     0.000 A 
HETATM   13  C   LIG     1      14.809  31.938  16.041  1.00  0.00     0.001 A 
HETATM   14  C   LIG     1      14.243  30.698  15.731  1.00  0.00     0.009 A 
ENDBRANCH   8   9
ENDBRANCH   3   8
TORSDOF 2
ENDMDL
MODEL 16
REMARK VINA RESULT:      -5.2      6.376      9.362
REMARK  2 active torsions:
REMARK  status: ('A' for Active; 'I' for Inactive)
REMARK       I    between atoms: N_1  and  C_2 
REMARK       I    between atoms: C_2  and  N_3 
REMARK    1  A    between atoms: N_3  and  C_4 
REMARK    2  A    between atoms: C_4  and  C_5 
ROOT
HETATM    1  N   LIG     1      14.404  31.462  19.543  1.00  0.00    -0.352 N 
HETATM    2  C   LIG     1      15.315  32.531  19.276  1.00  0.00     0.314 C 
HETATM    3  N   LIG     1      15.621  32.943  17.935  1.00  0.00    -0.339 N 
HETATM    4  O   LIG     1      15.868  33.121  20.241  1.00  0.00    -0.248 OA
HETATM    5  H   LIG     1      14.181  31.203  20.531  1.00  0.00     0.160 HD
HETATM    6  H   LIG     1      13.974  30.898  18.780  1.00  0.00     0.160 HD
HETATM    7  H   LIG     1      16.368  33.661  17.800  1.00  0.00     0.164 HD
ENDROOT
BRANCH   3   8
HETATM    8  C   LIG     1      14.950  32.423  16.744  1.00  0.00     0.162 C 
BRANCH   8   9
HETATM    9  C   LIG     1      15.787  32.659  15.514  1.00  0.00    -0.040 A 
HETATM   10  C   LIG     1      15.631  31.849  14.375  1.00  0.00     0.009 A 
HETATM   11  C   LIG     1      16.418  32.070  13.241  1.00  0.00     0.001 A 
HETATM   12  C   LIG     1      17.370  33.094  13.236  1.00  0.00     0.000 A 
HETATM   13  C   LIG     1      17.539  33.896  14.368  1.00  0.00     0.001 A 
HETATM   14  C   LIG     1      16.754  33.678  15.505  1.00  0.00     0.009 A 
ENDBRANCH   8   9
ENDBRANCH   3   8
TORSDOF 2
ENDMDL
MODEL 17
REMARK VINA RESULT:      -5.0      8.366     11.420
REMARK  2 active torsions:
REMARK  status: ('A' for Active; 'I' for Inactive)
REMARK       I    between atoms: N_1  and  C_2 
REMARK       I    between atoms: C_2  and  N_3 
REMARK    1  A    between atoms: N_3  and  C_4 
REMARK    2  A    between atoms: C_4  and  C_5 
ROOT
HETATM    1  N   LIG     1      13.936  31.836  18.427  1.00  0.00    -0.352 N 
HETATM    2  C   LIG     1      14.778  32.217  17.337  1.00  0.00     0.314 C 
HETATM    3  N   LIG     1      14.550  31.734  16.004  1.00  0.00    -0.339 N 
HETATM    4  O   LIG     1      15.748  32.991  17.552  1.00  0.00    -0.248 OA
HETATM    5  H   LIG     1      14.112  32.226  19.380  1.00  0.00     0.160 HD
HETATM    6  H   LIG     1      13.164  31.146  18.315  1.00  0.00     0.160 HD
HETATM    7  H   LIG     1      15.257  31.967  15.269  1.00  0.00     0.164 HD
ENDROOT
BRANCH   3   8
HETATM    8  C   LIG     1      13.390  30.937  15.608  1.00  0.00     0.162 C 
BRANCH   8   9
HETATM    9  C   LIG     1      13.814  29.744  14.794  1.00  0.00    -0.040 A 
HETATM   10  C   LIG     1      12.879  28.762  14.421  1.00  0.00     0.009 A 
HETATM   11  C   LIG     1      13.283  27.652  13.673  1.00  0.00     0.001 A 
HETATM   12  C   LIG     1      14.623  27.510  13.297  1.00  0.00     0.000 A 
HETATM   13  C   LIG     1      15.560  28.476  13.672  1.00  0.00     0.001 A 
HETATM   14  C   LIG     1      15.160  29.587  14.421  1.00  0.00     0.009 A 
ENDBRANCH   8   9
ENDBRANCH   3   8
TORSDOF 2
ENDMDL
MODEL 18
REMARK VINA RESULT:      -4.8      3.610      4.803
REMARK  2 active torsions:
REMARK  status: ('A' for Active; 'I' for Inactive)
REMARK       I    between atoms: N_1  and  C_2 
REMARK       I    between atoms: C_2  and  N_3 
REMARK    1  A    between atoms: N_3  and  C_4 
REMARK    2  A    between atoms: C_4  and  C_5 
ROOT
HETATM    1  N   LIG     1      16.016  32.565  17.095  1.00  0.00    -0.352 N 
HETATM    2  C   LIG     1      14.753  32.779  17.729  1.00  0.00     0.314 C 
HETATM    3  N   LIG     1      14.634  32.886  19.156  1.00  0.00    -0.339 N 
HETATM    4  O   LIG     1      13.717  32.868  17.018  1.00  0.00    -0.248 OA
HETATM    5  H   LIG     1      16.074  32.518  16.053  1.00  0.00     0.160 HD
HETATM    6  H   LIG     1      16.891  32.417  17.641  1.00  0.00     0.160 HD
HETATM    7  H   LIG     1      13.674  32.942  19.566  1.00  0.00     0.164 HD
ENDROOT
BRANCH   3   8
HETATM    8  C   LIG     1      15.773  32.926  20.073  1.00  0.00     0.162 C 
BRANCH   8   9
HETATM    9  C   LIG     1      15.844  34.255  20.778  1.00  0.00    -0.040 A 
HETATM   10  C   LIG     1      17.070  34.745  21.262  1.00  0.00     0.009 A 
HETATM   11  C   LIG     1      17.125  35.975  21.923  1.00  0.00     0.001 A 
HETATM   12  C   LIG     1      15.958  36.723  22.113  1.00  0.00     0.000 A 
HETATM   13  C   LIG     1      14.734  36.239  21.644  1.00  0.00     0.001 A 
HETATM   14  C   LIG     1      14.675  35.008  20.983  1.00  0.00     0.009 A 
ENDBRANCH   8   9
ENDBRANCH   3   8
TORSDOF 2
ENDMDL
MODEL 19
REMARK VINA RESULT:      -4.8      9.668     11.528
REMARK  2 active torsions:
REMARK  status: ('A' for Active; 'I' for Inactive)
REMARK       I    between atoms: N_1  and  C_2 
REMARK       I    between atoms: C_2  and  N_3 
REMARK    1  A    between atoms: N_3  and  C_4 
REMARK    2  A    between atoms: C_4  and  C_5 
ROOT
HETATM    1  N   LIG     1      16.922  33.982  15.709  1.00  0.00    -0.352 N 
HETATM    2  C   LIG     1      17.189  33.145  14.581  1.00  0.00     0.314 C 
HETATM    3  N   LIG     1      16.420  31.962  14.321  1.00  0.00    -0.339 N 
HETATM    4  O   LIG     1      18.129  33.451  13.800  1.00  0.00    -0.248 OA
HETATM    5  H   LIG     1      17.482  34.851  15.857  1.00  0.00     0.160 HD
HETATM    6  H   LIG     1      16.202  33.736  16.421  1.00  0.00     0.160 HD
HETATM    7  H   LIG     1      16.726  31.338  13.539  1.00  0.00     0.164 HD
ENDROOT
BRANCH   3   8
HETATM    8  C   LIG     1      15.230  31.574  15.078  1.00  0.00     0.162 C 
BRANCH   8   9
HETATM    9  C   LIG     1      14.718  30.235  14.618  1.00  0.00    -0.040 A 
HETATM   10  C   LIG     1      15.601  29.265  14.110  1.00  0.00     0.009 A 
HETATM   11  C   LIG     1      15.115  28.029  13.676  1.00  0.00     0.001 A 
HETATM   12  C   LIG     1      13.745  27.751  13.740  1.00  0.00     0.000 A 
HETATM   13  C   LIG     1      12.860  28.712  14.233  1.00  0.00     0.001 A 
HETATM   14  C   LIG     1      13.342  29.952  14.667  1.00  0.00     0.009 A 
ENDBRANCH   8   9
ENDBRANCH   3   8
TORSDOF 2
ENDMDL
MODEL 20
REMARK VINA RESULT:      -4.8      4.292      6.217
REMARK  2 active torsions:
REMARK  status: ('A' for Active; 'I' for Inactive)
REMARK       I    between atoms: N_1  and  C_2 
REMARK       I    between atoms: C_2  and  N_3 
REMARK    1  A    between atoms: N_3  and  C_4 
REMARK    2  A    between atoms: C_4  and  C_5 
ROOT
HETATM    1  N   LIG     1      17.813  37.885  21.455  1.00  0.00    -0.352 N 
HETATM    2  C   LIG     1      18.266  37.102  20.348  1.00  0.00     0.314 C 
HETATM    3  N   LIG     1      17.543  35.949  19.893  1.00  0.00    -0.339 N 
HETATM    4  O   LIG     1      19.332  37.430  19.761  1.00  0.00    -0.248 OA
HETATM    5  H   LIG     1      18.347  38.734  21.745  1.00  0.00     0.160 HD
HETATM    6  H   LIG     1      16.976  37.617  22.015  1.00  0.00     0.160 HD
HETATM    7  H   LIG     1      17.976  35.361  19.145  1.00  0.00     0.164 HD
ENDROOT
BRANCH   3   8
HETATM    8  C   LIG     1      16.235  35.545  20.408  1.00  0.00     0.162 C 
BRANCH   8   9
HETATM    9  C   LIG     1      15.690  34.380  19.625  1.00  0.00    -0.040 A 
HETATM   10  C   LIG     1      15.474  33.137  20.246  1.00  0.00     0.009 A 
HETATM   11  C   LIG     1      14.976  32.059  19.510  1.00  0.00     0.001 A 
HETATM   12  C   LIG     1      14.695  32.209  18.148  1.00  0.00     0.000 A 
HETATM   13  C   LIG     1      14.916  33.438  17.521  1.00  0.00     0.001 A 
HETATM   14  C   LIG     1      15.416  34.519  18.254  1.00  0.00     0.009 A 
ENDBRANCH   8   9
ENDBRANCH   3   8
TORSDOF 2
ENDMDL
