MODEL 1
REMARK VINA RESULT:      -7.1      0.000      0.000
REMARK  2 active torsions:
REMARK  status: ('A' for Active; 'I' for Inactive)
REMARK    1  A    between atoms: C_2  and  C_4 
REMARK    2  A    between atoms: C_4  and  C_5 
ROOT
HETATM    1  C   LIG     1      17.221  36.537  24.206  1.00  0.00    -0.058 A 
HETATM    2  C   LIG     1      17.192  35.181  24.575  1.00  0.00     0.007 A 
HETATM    3  C   LIG     1      17.754  34.769  25.787  1.00  0.00     0.001 A 
HETATM    4  C   LIG     1      18.353  35.703  26.636  1.00  0.00     0.000 A 
HETATM    5  C   LIG     1      18.392  37.052  26.274  1.00  0.00     0.001 A 
HETATM    6  C   LIG     1      17.831  37.470  25.063  1.00  0.00     0.007 A 
ENDROOT
BRANCH   1   7
HETATM    7  C   LIG     1      16.616  36.987  22.899  1.00  0.00     0.042 C 
BRANCH   7   8
HETATM    8  C   LIG     1      16.627  35.869  21.833  1.00  0.00    -0.019 C 
HETATM    9  C   LIG     1      17.586  36.202  20.680  1.00  0.00     0.010 C 
HETATM   10  C   LIG     1      15.211  35.643  21.289  1.00  0.00     0.010 C 
ENDBRANCH   7   8
ENDBRANCH   1   7
TORSDOF 2
ENDMDL
MODEL 2
REMARK VINA RESULT:      -6.9      1.085      2.070
REMARK  2 active torsions:
REMARK  status: ('A' for Active; 'I' for Inactive)
REMARK    1  A    between atoms: C_2  and  C_4 
REMARK    2  A    between atoms: C_4  and  C_5 
ROOT
HETATM    1  C   LIG     1      17.295  36.791  24.279  1.00  0.00    -0.058 A 
HETATM    2  C   LIG     1      17.956  37.517  25.285  1.00  0.00     0.007 A 
HETATM    3  C   LIG     1      18.434  36.865  26.426  1.00  0.00     0.001 A 
HETATM    4  C   LIG     1      18.253  35.488  26.574  1.00  0.00     0.000 A 
HETATM    5  C   LIG     1      17.592  34.759  25.582  1.00  0.00     0.001 A 
HETATM    6  C   LIG     1      17.111  35.407  24.439  1.00  0.00     0.007 A 
ENDROOT
BRANCH   1   7
HETATM    7  C   LIG     1      16.775  37.490  23.046  1.00  0.00     0.042 C 
BRANCH   7   8
HETATM    8  C   LIG     1      17.839  37.573  21.929  1.00  0.00    -0.019 C 
HETATM    9  C   LIG     1      17.909  38.985  21.326  1.00  0.00     0.010 C 
HETATM   10  C   LIG     1      17.533  36.548  20.831  1.00  0.00     0.010 C 
ENDBRANCH   7   8
ENDBRANCH   1   7
TORSDOF 2
ENDMDL
MODEL 3
REMARK VINA RESULT:      -6.8      2.130      4.670
REMARK  2 active torsions:
REMARK  status: ('A' for Active; 'I' for Inactive)
REMARK    1  A    between atoms: C_2  and  C_4 
REMARK    2  A    between atoms: C_4  and  C_5 
ROOT
HETATM    1  C   LIG     1      17.785  37.539  21.202  1.00  0.00    -0.058 A 
HETATM    2  C   LIG     1      18.386  36.757  20.201  1.00  0.00     0.007 A 
HETATM    3  C   LIG     1      19.361  37.310  19.365  1.00  0.00     0.001 A 
HETATM    4  C   LIG     1      19.740  38.646  19.519  1.00  0.00     0.000 A 
HETATM    5  C   LIG     1      19.144  39.432  20.507  1.00  0.00     0.001 A 
HETATM    6  C   LIG     1      18.167  38.884  21.346  1.00  0.00     0.007 A 
ENDROOT
BRANCH   1   7
HETATM    7  C   LIG     1      16.731  36.948  22.106  1.00  0.00     0.042 C 
BRANCH   7   8
HETATM    8  C   LIG     1      16.886  35.419  22.265  1.00  0.00    -0.019 C 
HETATM    9  C   LIG     1      15.685  34.668  21.669  1.00  0.00     0.010 C 
HETATM   10  C   LIG     1      17.051  35.056  23.745  1.00  0.00     0.010 C 
ENDBRANCH   7   8
ENDBRANCH   1   7
TORSDOF 2
ENDMDL
MODEL 4
REMARK VINA RESULT:      -6.6      1.949      5.044
REMARK  2 active torsions:
REMARK  status: ('A' for Active; 'I' for Inactive)
REMARK    1  A    between atoms: C_2  and  C_4 
REMARK    2  A    between atoms: C_4  and  C_5 
ROOT
HETATM    1  C   LIG     1      17.669  37.828  21.725  1.00  0.00    -0.058 A 
HETATM    2  C   LIG     1      18.281  39.077  21.525  1.00  0.00     0.007 A 
HETATM    3  C   LIG     1      19.114  39.284  20.421  1.00  0.00     0.001 A 
HETATM    4  C   LIG     1      19.346  38.247  19.514  1.00  0.00     0.000 A 
HETATM    5  C   LIG     1      18.746  37.001  19.708  1.00  0.00     0.001 A 
HETATM    6  C   LIG     1      17.912  36.788  20.811  1.00  0.00     0.007 A 
ENDROOT
BRANCH   1   7
HETATM    7  C   LIG     1      16.770  37.598  22.916  1.00  0.00     0.042 C 
BRANCH   7   8
HETATM    8  C   LIG     1      17.554  37.122  24.158  1.00  0.00    -0.019 C 
HETATM    9  C   LIG     1      17.222  35.663  24.507  1.00  0.00     0.010 C 
HETATM   10  C   LIG     1      17.250  38.030  25.356  1.00  0.00     0.010 C 
ENDBRANCH   7   8
ENDBRANCH   1   7
TORSDOF 2
ENDMDL
MODEL 5
REMARK VINA RESULT:      -6.6      1.955      4.809
REMARK  2 active torsions:
REMARK  status: ('A' for Active; 'I' for Inactive)
REMARK    1  A    between atoms: C_2  and  C_4 
REMARK    2  A    between atoms: C_4  and  C_5 
ROOT
HETATM    1  C   LIG     1      17.706  37.613  21.502  1.00  0.00    -0.058 A 
HETATM    2  C   LIG     1      18.067  36.678  20.517  1.00  0.00     0.007 A 
HETATM    3  C   LIG     1      18.962  37.032  19.503  1.00  0.00     0.001 A 
HETATM    4  C   LIG     1      19.499  38.321  19.461  1.00  0.00     0.000 A 
HETATM    5  C   LIG     1      19.142  39.259  20.432  1.00  0.00     0.001 A 
HETATM    6  C   LIG     1      18.246  38.910  21.449  1.00  0.00     0.007 A 
ENDROOT
BRANCH   1   7
HETATM    7  C   LIG     1      16.739  37.237  22.598  1.00  0.00     0.042 C 
BRANCH   7   8
HETATM    8  C   LIG     1      17.461  36.856  23.910  1.00  0.00    -0.019 C 
HETATM    9  C   LIG     1      17.143  35.412  24.326  1.00  0.00     0.010 C 
HETATM   10  C   LIG     1      17.066  37.826  25.031  1.00  0.00     0.010 C 
ENDBRANCH   7   8
ENDBRANCH   1   7
TORSDOF 2
ENDMDL
MODEL 6
REMARK VINA RESULT:      -6.5      2.434      4.853
REMARK  2 active torsions:
REMARK  status: ('A' for Active; 'I' for Inactive)
REMARK    1  A    between atoms: C_2  and  C_4 
REMARK    2  A    between atoms: C_4  and  C_5 
ROOT
HETATM    1  C   LIG     1      18.142  37.000  20.461  1.00  0.00    -0.058 A 
HETATM    2  C   LIG     1      17.952  38.155  21.239  1.00  0.00     0.007 A 
HETATM    3  C   LIG     1      18.783  39.267  21.064  1.00  0.00     0.001 A 
HETATM    4  C   LIG     1      19.809  39.232  20.116  1.00  0.00     0.000 A 
HETATM    5  C   LIG     1      20.008  38.086  19.343  1.00  0.00     0.001 A 
HETATM    6  C   LIG     1      19.181  36.972  19.514  1.00  0.00     0.007 A 
ENDROOT
BRANCH   1   7
HETATM    7  C   LIG     1      17.249  35.797  20.646  1.00  0.00     0.042 C 
BRANCH   7   8
HETATM    8  C   LIG     1      16.325  35.938  21.876  1.00  0.00    -0.019 C 
HETATM    9  C   LIG     1      16.845  35.118  23.066  1.00  0.00     0.010 C 
HETATM   10  C   LIG     1      14.900  35.500  21.519  1.00  0.00     0.010 C 
ENDBRANCH   7   8
ENDBRANCH   1   7
TORSDOF 2
ENDMDL
MODEL 7
REMARK VINA RESULT:      -6.4      1.352      4.388
REMARK  2 active torsions:
REMARK  status: ('A' for Active; 'I' for Inactive)
REMARK    1  A    between atoms: C_2  and  C_4 
REMARK    2  A    between atoms: C_4  and  C_5 
ROOT
HETATM    1  C   LIG     1      17.318  37.286  23.410  1.00  0.00    -0.058 A 
HETATM    2  C   LIG     1      17.085  36.278  22.459  1.00  0.00     0.007 A 
HETATM    3  C   LIG     1      17.403  36.491  21.114  1.00  0.00     0.001 A 
HETATM    4  C   LIG     1      17.948  37.712  20.707  1.00  0.00     0.000 A 
HETATM    5  C   LIG     1      18.177  38.722  21.645  1.00  0.00     0.001 A 
HETATM    6  C   LIG     1      17.861  38.514  22.991  1.00  0.00     0.007 A 
ENDROOT
BRANCH   1   7
HETATM    7  C   LIG     1      16.977  37.062  24.863  1.00  0.00     0.042 C 
BRANCH   7   8
HETATM    8  C   LIG     1      17.924  36.044  25.536  1.00  0.00    -0.019 C 
HETATM    9  C   LIG     1      17.178  34.761  25.932  1.00  0.00     0.010 C 
HETATM   10  C   LIG     1      18.582  36.671  26.771  1.00  0.00     0.010 C 
ENDBRANCH   7   8
ENDBRANCH   1   7
TORSDOF 2
ENDMDL
MODEL 8
REMARK VINA RESULT:      -5.6      1.814      4.209
REMARK  2 active torsions:
REMARK  status: ('A' for Active; 'I' for Inactive)
REMARK    1  A    between atoms: C_2  and  C_4 
REMARK    2  A    between atoms: C_4  and  C_5 
ROOT
HETATM    1  C   LIG     1      17.559  37.735  24.478  1.00  0.00    -0.058 A 
HETATM    2  C   LIG     1      18.636  38.324  23.794  1.00  0.00     0.007 A 
HETATM    3  C   LIG     1      18.433  38.934  22.552  1.00  0.00     0.001 A 
HETATM    4  C   LIG     1      17.157  38.957  21.983  1.00  0.00     0.000 A 
HETATM    5  C   LIG     1      16.082  38.369  22.654  1.00  0.00     0.001 A 
HETATM    6  C   LIG     1      16.280  37.757  23.896  1.00  0.00     0.007 A 
ENDROOT
BRANCH   1   7
HETATM    7  C   LIG     1      17.773  37.073  25.818  1.00  0.00     0.042 C 
BRANCH   7   8
HETATM    8  C   LIG     1      17.480  35.557  25.775  1.00  0.00    -0.019 C 
HETATM    9  C   LIG     1      18.583  34.752  26.479  1.00  0.00     0.010 C 
HETATM   10  C   LIG     1      17.335  35.088  24.322  1.00  0.00     0.010 C 
ENDBRANCH   7   8
ENDBRANCH   1   7
TORSDOF 2
ENDMDL
MODEL 9
REMARK VINA RESULT:      -5.6      6.348      9.639
REMARK  2 active torsions:
REMARK  status: ('A' for Active; 'I' for Inactive)
REMARK    1  A    between atoms: C_2  and  C_4 
REMARK    2  A    between atoms: C_4  and  C_5 
ROOT
HETATM    1  C   LIG     1      14.631  31.835  16.590  1.00  0.00    -0.058 A 
HETATM    2  C   LIG     1      13.948  30.773  15.973  1.00  0.00     0.007 A 
HETATM    3  C   LIG     1      14.360  30.301  14.723  1.00  0.00     0.001 A 
HETATM    4  C   LIG     1      15.452  30.888  14.077  1.00  0.00     0.000 A 
HETATM    5  C   LIG     1      16.132  31.949  14.680  1.00  0.00     0.001 A 
HETATM    6  C   LIG     1      15.724  32.424  15.931  1.00  0.00     0.007 A 
ENDROOT
BRANCH   1   7
HETATM    7  C   LIG     1      14.189  32.349  17.938  1.00  0.00     0.042 C 
BRANCH   7   8
HETATM    8  C   LIG     1      15.284  32.179  19.016  1.00  0.00    -0.019 C 
HETATM    9  C   LIG     1      14.914  31.079  20.022  1.00  0.00     0.010 C 
HETATM   10  C   LIG     1      15.513  33.507  19.749  1.00  0.00     0.010 C 
ENDBRANCH   7   8
ENDBRANCH   1   7
TORSDOF 2
ENDMDL
MODEL 10
REMARK VINA RESULT:      -5.6      6.346      9.740
REMARK  2 active torsions:
REMARK  status: ('A' for Active; 'I' for Inactive)
REMARK    1  A    between atoms: C_2  and  C_4 
REMARK    2  A    between atoms: C_4  and  C_5 
ROOT
HETATM    1  C   LIG     1      14.617  31.843  16.589  1.00  0.00    -0.058 A 
HETATM    2  C   LIG     1      15.713  32.430  15.933  1.00  0.00     0.007 A 
HETATM    3  C   LIG     1      16.116  31.963  14.679  1.00  0.00     0.001 A 
HETATM    4  C   LIG     1      15.433  30.905  14.073  1.00  0.00     0.000 A 
HETATM    5  C   LIG     1      14.347  30.311  14.720  1.00  0.00     0.001 A 
HETATM    6  C   LIG     1      13.940  30.775  15.975  1.00  0.00     0.007 A 
ENDROOT
BRANCH   1   7
HETATM    7  C   LIG     1      14.179  32.343  17.944  1.00  0.00     0.042 C 
BRANCH   7   8
HETATM    8  C   LIG     1      15.283  32.183  19.012  1.00  0.00    -0.019 C 
HETATM    9  C   LIG     1      14.941  31.067  20.011  1.00  0.00     0.010 C 
HETATM   10  C   LIG     1      15.495  33.507  19.756  1.00  0.00     0.010 C 
ENDBRANCH   7   8
ENDBRANCH   1   7
TORSDOF 2
ENDMDL
MODEL 11
REMARK VINA RESULT:      -5.4      1.016      4.689
REMARK  2 active torsions:
REMARK  status: ('A' for Active; 'I' for Inactive)
REMARK    1  A    between atoms: C_2  and  C_4 
REMARK    2  A    between atoms: C_4  and  C_5 
ROOT
HETATM    1  C   LIG     1      16.433  36.847  22.366  1.00  0.00    -0.058 A 
HETATM    2  C   LIG     1      17.559  36.889  21.525  1.00  0.00     0.007 A 
HETATM    3  C   LIG     1      17.551  36.211  20.303  1.00  0.00     0.001 A 
HETATM    4  C   LIG     1      16.425  35.482  19.913  1.00  0.00     0.000 A 
HETATM    5  C   LIG     1      15.304  35.428  20.745  1.00  0.00     0.001 A 
HETATM    6  C   LIG     1      15.307  36.105  21.969  1.00  0.00     0.007 A 
ENDROOT
BRANCH   1   7
HETATM    7  C   LIG     1      16.436  37.576  23.687  1.00  0.00     0.042 C 
BRANCH   7   8
HETATM    8  C   LIG     1      17.530  37.051  24.643  1.00  0.00    -0.019 C 
HETATM    9  C   LIG     1      17.345  35.555  24.940  1.00  0.00     0.010 C 
HETATM   10  C   LIG     1      17.518  37.851  25.951  1.00  0.00     0.010 C 
ENDBRANCH   7   8
ENDBRANCH   1   7
TORSDOF 2
ENDMDL
MODEL 12
REMARK VINA RESULT:      -5.3      8.444     11.104
REMARK  2 active torsions:
REMARK  status: ('A' for Active; 'I' for Inactive)
REMARK    1  A    between atoms: C_2  and  C_4 
REMARK    2  A    between atoms: C_4  and  C_5 
ROOT
HETATM    1  C   LIG     1      14.657  30.862  14.942  1.00  0.00    -0.058 A 
HETATM    2  C   LIG     1      15.664  31.827  15.119  1.00  0.00     0.007 A 
HETATM    3  C   LIG     1      15.630  32.687  16.221  1.00  0.00     0.001 A 
HETATM    4  C   LIG     1      14.591  32.595  17.150  1.00  0.00     0.000 A 
HETATM    5  C   LIG     1      13.582  31.644  16.978  1.00  0.00     0.001 A 
HETATM    6  C   LIG     1      13.611  30.781  15.878  1.00  0.00     0.007 A 
ENDROOT
BRANCH   1   7
HETATM    7  C   LIG     1      14.688  29.932  13.754  1.00  0.00     0.042 C 
BRANCH   7   8
HETATM    8  C   LIG     1      14.503  28.454  14.163  1.00  0.00    -0.019 C 
HETATM    9  C   LIG     1      15.562  27.554  13.509  1.00  0.00     0.010 C 
HETATM   10  C   LIG     1      13.098  27.972  13.783  1.00  0.00     0.010 C 
ENDBRANCH   7   8
ENDBRANCH   1   7
TORSDOF 2
ENDMDL
MODEL 13
REMARK VINA RESULT:      -5.2      7.417     10.666
REMARK  2 active torsions:
REMARK  status: ('A' for Active; 'I' for Inactive)
REMARK    1  A    between atoms: C_2  and  C_4 
REMARK    2  A    between atoms: C_4  and  C_5 
ROOT
HETATM    1  C   LIG     1      14.908  31.180  15.435  1.00  0.00    -0.058 A 
HETATM    2  C   LIG     1      15.536  30.398  14.450  1.00  0.00     0.007 A 
HETATM    3  C   LIG     1      14.833  29.375  13.808  1.00  0.00     0.001 A 
HETATM    4  C   LIG     1      13.501  29.120  14.146  1.00  0.00     0.000 A 
HETATM    5  C   LIG     1      12.871  29.888  15.128  1.00  0.00     0.001 A 
HETATM    6  C   LIG     1      13.570  30.913  15.773  1.00  0.00     0.007 A 
ENDROOT
BRANCH   1   7
HETATM    7  C   LIG     1      15.662  32.285  16.132  1.00  0.00     0.042 C 
BRANCH   7   8
HETATM    8  C   LIG     1      14.825  32.953  17.246  1.00  0.00    -0.019 C 
HETATM    9  C   LIG     1      14.971  34.482  17.217  1.00  0.00     0.010 C 
HETATM   10  C   LIG     1      15.244  32.411  18.618  1.00  0.00     0.010 C 
ENDBRANCH   7   8
ENDBRANCH   1   7
TORSDOF 2
ENDMDL
MODEL 14
REMARK VINA RESULT:      -5.1      3.651      7.174
REMARK  2 active torsions:
REMARK  status: ('A' for Active; 'I' for Inactive)
REMARK    1  A    between atoms: C_2  and  C_4 
REMARK    2  A    between atoms: C_4  and  C_5 
ROOT
HETATM    1  C   LIG     1      15.297  33.284  19.199  1.00  0.00    -0.058 A 
HETATM    2  C   LIG     1      15.330  34.109  18.062  1.00  0.00     0.007 A 
HETATM    3  C   LIG     1      14.832  33.645  16.841  1.00  0.00     0.001 A 
HETATM    4  C   LIG     1      14.303  32.355  16.744  1.00  0.00     0.000 A 
HETATM    5  C   LIG     1      14.272  31.526  17.868  1.00  0.00     0.001 A 
HETATM    6  C   LIG     1      14.769  31.985  19.092  1.00  0.00     0.007 A 
ENDROOT
BRANCH   1   7
HETATM    7  C   LIG     1      15.834  33.779  20.520  1.00  0.00     0.042 C 
BRANCH   7   8
HETATM    8  C   LIG     1      15.937  35.320  20.569  1.00  0.00    -0.019 C 
HETATM    9  C   LIG     1      17.275  35.773  21.173  1.00  0.00     0.010 C 
HETATM   10  C   LIG     1      14.772  35.902  21.379  1.00  0.00     0.010 C 
ENDBRANCH   7   8
ENDBRANCH   1   7
TORSDOF 2
ENDMDL
MODEL 15
REMARK VINA RESULT:      -5.1      8.997     10.278
REMARK  2 active torsions:
REMARK  status: ('A' for Active; 'I' for Inactive)
REMARK    1  A    between atoms: C_2  and  C_4 
REMARK    2  A    between atoms: C_4  and  C_5 
ROOT
HETATM    1  C   LIG     1      15.625  31.712  15.442  1.00  0.00    -0.058 A 
HETATM    2  C   LIG     1      15.068  30.687  14.658  1.00  0.00     0.007 A 
HETATM    3  C   LIG     1      13.784  30.207  14.935  1.00  0.00     0.001 A 
HETATM    4  C   LIG     1      13.050  30.741  15.997  1.00  0.00     0.000 A 
HETATM    5  C   LIG     1      13.599  31.756  16.786  1.00  0.00     0.001 A 
HETATM    6  C   LIG     1      14.883  32.239  16.513  1.00  0.00     0.007 A 
ENDROOT
BRANCH   1   7
HETATM    7  C   LIG     1      17.011  32.233  15.148  1.00  0.00     0.042 C 
BRANCH   7   8
HETATM    8  C   LIG     1      16.989  33.449  14.195  1.00  0.00    -0.019 C 
HETATM    9  C   LIG     1      17.951  33.253  13.014  1.00  0.00     0.010 C 
HETATM   10  C   LIG     1      17.351  34.727  14.961  1.00  0.00     0.010 C 
ENDBRANCH   7   8
ENDBRANCH   1   7
TORSDOF 2
ENDMDL
MODEL 16
REMARK VINA RESULT:      -5.0      5.225      7.739
REMARK  2 active torsions:
REMARK  status: ('A' for Active; 'I' for Inactive)
REMARK    1  A    between atoms: C_2  and  C_4 
REMARK    2  A    between atoms: C_4  and  C_5 
ROOT
HETATM    1  C   LIG     1      15.016  33.076  17.715  1.00  0.00    -0.058 A 
HETATM    2  C   LIG     1      15.304  34.410  18.053  1.00  0.00     0.007 A 
HETATM    3  C   LIG     1      15.616  34.750  19.373  1.00  0.00     0.001 A 
HETATM    4  C   LIG     1      15.639  33.766  20.364  1.00  0.00     0.000 A 
HETATM    5  C   LIG     1      15.348  32.439  20.038  1.00  0.00     0.001 A 
HETATM    6  C   LIG     1      15.035  32.093  18.720  1.00  0.00     0.007 A 
ENDROOT
BRANCH   1   7
HETATM    7  C   LIG     1      14.677  32.703  16.292  1.00  0.00     0.042 C 
BRANCH   7   8
HETATM    8  C   LIG     1      14.389  31.193  16.136  1.00  0.00    -0.019 C 
HETATM    9  C   LIG     1      14.954  30.647  14.816  1.00  0.00     0.010 C 
HETATM   10  C   LIG     1      12.879  30.933  16.209  1.00  0.00     0.010 C 
ENDBRANCH   7   8
ENDBRANCH   1   7
TORSDOF 2
ENDMDL
MODEL 17
REMARK VINA RESULT:      -4.9      6.362      8.828
REMARK  2 active torsions:
REMARK  status: ('A' for Active; 'I' for Inactive)
REMARK    1  A    between atoms: C_2  and  C_4 
REMARK    2  A    between atoms: C_4  and  C_5 
ROOT
HETATM    1  C   LIG     1      14.123  31.929  17.160  1.00  0.00    -0.058 A 
HETATM    2  C   LIG     1      14.192  31.178  18.346  1.00  0.00     0.007 A 
HETATM    3  C   LIG     1      14.831  31.702  19.474  1.00  0.00     0.001 A 
HETATM    4  C   LIG     1      15.409  32.973  19.426  1.00  0.00     0.000 A 
HETATM    5  C   LIG     1      15.351  33.723  18.249  1.00  0.00     0.001 A 
HETATM    6  C   LIG     1      14.713  33.204  17.118  1.00  0.00     0.007 A 
ENDROOT
BRANCH   1   7
HETATM    7  C   LIG     1      13.436  31.369  15.938  1.00  0.00     0.042 C 
BRANCH   7   8
HETATM    8  C   LIG     1      14.313  30.336  15.196  1.00  0.00    -0.019 C 
HETATM    9  C   LIG     1      15.326  31.023  14.268  1.00  0.00     0.010 C 
HETATM   10  C   LIG     1      13.429  29.376  14.390  1.00  0.00     0.010 C 
ENDBRANCH   7   8
ENDBRANCH   1   7
TORSDOF 2
ENDMDL
MODEL 18
REMARK VINA RESULT:      -4.7      9.248     11.170
REMARK  2 active torsions:
REMARK  status: ('A' for Active; 'I' for Inactive)
REMARK    1  A    between atoms: C_2  and  C_4 
REMARK    2  A    between atoms: C_4  and  C_5 
ROOT
HETATM    1  C   LIG     1      15.750  31.820  14.753  1.00  0.00    -0.058 A 
HETATM    2  C   LIG     1      16.092  31.936  13.395  1.00  0.00     0.007 A 
HETATM    3  C   LIG     1      17.024  32.894  12.983  1.00  0.00     0.001 A 
HETATM    4  C   LIG     1      17.616  33.745  13.921  1.00  0.00     0.000 A 
HETATM    5  C   LIG     1      17.277  33.640  15.271  1.00  0.00     0.001 A 
HETATM    6  C   LIG     1      16.345  32.684  15.689  1.00  0.00     0.007 A 
ENDROOT
BRANCH   1   7
HETATM    7  C   LIG     1      14.744  30.788  15.204  1.00  0.00     0.042 C 
BRANCH   7   8
HETATM    8  C   LIG     1      14.358  29.813  14.069  1.00  0.00    -0.019 C 
HETATM    9  C   LIG     1      12.947  29.242  14.276  1.00  0.00     0.010 C 
HETATM   10  C   LIG     1      15.379  28.672  13.982  1.00  0.00     0.010 C 
ENDBRANCH   7   8
ENDBRANCH   1   7
TORSDOF 2
ENDMDL
MODEL 19
REMARK VINA RESULT:      -4.5      8.044     10.189
REMARK  2 active torsions:
REMARK  status: ('A' for Active; 'I' for Inactive)
REMARK    1  A    between atoms: C_2  and  C_4 
REMARK    2  A    between atoms: C_4  and  C_5 
ROOT
HETATM    1  C   LIG     1      15.786  32.149  15.011  1.00  0.00    -0.058 A 
HETATM    2  C   LIG     1      16.014  31.911  13.645  1.00  0.00     0.007 A 
HETATM    3  C   LIG     1      16.940  32.685  12.940  1.00  0.00     0.001 A 
HETATM    4  C   LIG     1      17.640  33.705  13.589  1.00  0.00     0.000 A 
HETATM    5  C   LIG     1      17.415  33.954  14.945  1.00  0.00     0.001 A 
HETATM    6  C   LIG     1      16.489  33.182  15.656  1.00  0.00     0.007 A 
ENDROOT
BRANCH   1   7
HETATM    7  C   LIG     1      14.787  31.317  15.778  1.00  0.00     0.042 C 
BRANCH   7   8
HETATM    8  C   LIG     1      14.049  32.137  16.859  1.00  0.00    -0.019 C 
HETATM    9  C   LIG     1      14.497  31.734  18.272  1.00  0.00     0.010 C 
HETATM   10  C   LIG     1      12.533  31.956  16.717  1.00  0.00     0.010 C 
ENDBRANCH   7   8
ENDBRANCH   1   7
TORSDOF 2
ENDMDL
MODEL 20
REMARK VINA RESULT:      -4.4      7.605      9.981
REMARK  2 active torsions:
REMARK  status: ('A' for Active; 'I' for Inactive)
REMARK    1  A    between atoms: C_2  and  C_4 
REMARK    2  A    between atoms: C_4  and  C_5 
ROOT
HETATM    1  C   LIG     1      15.963  33.163  15.635  1.00  0.00    -0.058 A 
HETATM    2  C   LIG     1      17.014  34.053  15.355  1.00  0.00     0.007 A 
HETATM    3  C   LIG     1      17.728  33.946  14.158  1.00  0.00     0.001 A 
HETATM    4  C   LIG     1      17.404  32.949  13.235  1.00  0.00     0.000 A 
HETATM    5  C   LIG     1      16.365  32.056  13.507  1.00  0.00     0.001 A 
HETATM    6  C   LIG     1      15.647  32.158  14.703  1.00  0.00     0.007 A 
ENDROOT
BRANCH   1   7
HETATM    7  C   LIG     1      15.189  33.273  16.926  1.00  0.00     0.042 C 
BRANCH   7   8
HETATM    8  C   LIG     1      14.511  31.941  17.317  1.00  0.00    -0.019 C 
HETATM    9  C   LIG     1      13.030  31.924  16.908  1.00  0.00     0.010 C 
HETATM   10  C   LIG     1      14.642  31.704  18.826  1.00  0.00     0.010 C 
ENDBRANCH   7   8
ENDBRANCH   1   7
TORSDOF 2
ENDMDL
