REMARK  10 active torsions:
REMARK  status: ('A' for Active; 'I' for Inactive)
REMARK    1  A    between atoms: N_1  and  C_2 
REMARK    2  A    between atoms: C_5  and  C_6 
REMARK    3  A    between atoms: C_6  and  C_7 
REMARK    4  A    between atoms: C_9  and  O_10 
REMARK    5  A    between atoms: C_12  and  O_13 
REMARK    6  A    between atoms: O_13  and  C_14 
REMARK    7  A    between atoms: C_14  and  C_15 
REMARK    8  A    between atoms: C_15  and  O_16 
REMARK    9  A    between atoms: C_18  and  O_19 
REMARK   10  A    between atoms: C_22  and  N_23 
ROOT
HETATM    1  C   LIG     1       1.591  -1.272   0.473  1.00  0.00    -0.048 A 
HETATM    2  C   LIG     1       0.959  -2.030  -0.522  1.00  0.00     0.047 A 
HETATM    3  C   LIG     1      -0.396  -1.845  -0.824  1.00  0.00     0.104 A 
HETATM    4  C   LIG     1      -1.141  -0.878  -0.102  1.00  0.00     0.135 A 
HETATM    5  C   LIG     1      -0.525  -0.181   0.962  1.00  0.00     0.104 A 
HETATM    6  C   LIG     1       0.836  -0.359   1.218  1.00  0.00     0.047 A 
ENDROOT
BRANCH   1   7
HETATM    7  C   LIG     1       3.055  -1.475   0.777  1.00  0.00     0.082 C 
BRANCH   7   8
HETATM    8  C   LIG     1       3.840  -0.199   0.571  1.00  0.00     0.010 A 
HETATM    9  C   LIG     1       4.209   0.570   1.685  1.00  0.00     0.147 A 
HETATM   10  N   LIG     1       4.888   1.733   1.523  1.00  0.00    -0.075 NA
HETATM   11  C   LIG     1       5.223   2.180   0.287  1.00  0.00     0.721 A 
HETATM   12  N   LIG     1       4.874   1.461  -0.810  1.00  0.00    -0.045 NA
HETATM   13  C   LIG     1       4.193   0.288  -0.708  1.00  0.00     0.148 A 
BRANCH  11  14
HETATM   14  N   LIG     1       5.938   3.405   0.140  1.00  0.00    -0.231 N 
HETATM   15  H   LIG     1       6.196   3.756  -0.809  1.00  0.00     0.174 HD
HETATM   16  H   LIG     1       6.209   3.962   0.980  1.00  0.00     0.174 HD
ENDBRANCH  11  14
BRANCH  13  17
HETATM   17  N   LIG     1       3.857  -0.414  -1.909  1.00  0.00    -0.383 N 
HETATM   18  H   LIG     1       3.358  -1.328  -1.907  1.00  0.00     0.157 HD
HETATM   19  H   LIG     1       4.124  -0.012  -2.835  1.00  0.00     0.157 HD
ENDBRANCH  13  17
ENDBRANCH   7   8
ENDBRANCH   1   7
BRANCH   5  20
HETATM   20  O   LIG     1      -1.243   0.688   1.790  1.00  0.00    -0.353 OA
HETATM   21  C   LIG     1      -2.354   0.257   2.570  1.00  0.00     0.210 C 
ENDBRANCH   5  20
BRANCH   3  22
HETATM   22  O   LIG     1      -0.928  -2.644  -1.852  1.00  0.00    -0.353 OA
HETATM   23  C   LIG     1      -2.277  -2.646  -2.308  1.00  0.00     0.210 C 
ENDBRANCH   3  22
BRANCH   4  24
HETATM   24  O   LIG     1      -2.467  -0.607  -0.449  1.00  0.00    -0.344 OA
BRANCH  24  25
HETATM   25  C   LIG     1      -2.897   0.680  -0.888  1.00  0.00     0.202 C 
BRANCH  25  26
HETATM   26  C   LIG     1      -4.387   0.640  -1.220  1.00  0.00     0.193 C 
BRANCH  26  27
HETATM   27  O   LIG     1      -5.135   0.201  -0.101  1.00  0.00    -0.394 OA
HETATM   28  C   LIG     1      -5.616   1.304   0.634  1.00  0.00     0.201 C 
ENDBRANCH  26  27
ENDBRANCH  25  26
ENDBRANCH  24  25
ENDBRANCH   4  24
TORSDOF 10
