MODEL 1
REMARK VINA RESULT:      -6.2      0.000      0.000
REMARK  10 active torsions:
REMARK  status: ('A' for Active; 'I' for Inactive)
REMARK    1  A    between atoms: N_1  and  C_2 
REMARK    2  A    between atoms: C_5  and  C_6 
REMARK    3  A    between atoms: C_6  and  C_7 
REMARK    4  A    between atoms: C_9  and  O_10 
REMARK    5  A    between atoms: C_12  and  O_13 
REMARK    6  A    between atoms: O_13  and  C_14 
REMARK    7  A    between atoms: C_14  and  C_15 
REMARK    8  A    between atoms: C_15  and  O_16 
REMARK    9  A    between atoms: C_18  and  O_19 
REMARK   10  A    between atoms: C_22  and  N_23 
ROOT
HETATM    1  C   LIG     1      13.766  30.882  15.762  1.00  0.00    -0.048 A 
HETATM    2  C   LIG     1      13.651  30.857  17.159  1.00  0.00     0.047 A 
HETATM    3  C   LIG     1      14.363  31.756  17.962  1.00  0.00     0.104 A 
HETATM    4  C   LIG     1      15.222  32.703  17.348  1.00  0.00     0.135 A 
HETATM    5  C   LIG     1      15.407  32.665  15.947  1.00  0.00     0.104 A 
HETATM    6  C   LIG     1      14.657  31.782  15.167  1.00  0.00     0.047 A 
ENDROOT
BRANCH   1   7
HETATM    7  C   LIG     1      12.981  29.914  14.911  1.00  0.00     0.082 C 
BRANCH   7   8
HETATM    8  C   LIG     1      13.898  28.969  14.168  1.00  0.00     0.010 A 
HETATM    9  C   LIG     1      15.274  29.241  14.118  1.00  0.00     0.147 A 
HETATM   10  N   LIG     1      16.112  28.424  13.433  1.00  0.00    -0.075 NA
HETATM   11  C   LIG     1      15.643  27.330  12.782  1.00  0.00     0.721 A 
HETATM   12  N   LIG     1      14.317  27.044  12.808  1.00  0.00    -0.045 NA
HETATM   13  C   LIG     1      13.430  27.828  13.478  1.00  0.00     0.148 A 
BRANCH  11  14
HETATM   14  N   LIG     1      16.543  26.483  12.069  1.00  0.00    -0.231 N 
HETATM   15  H   LIG     1      16.829  26.719  11.093  1.00  0.00     0.174 HD
HETATM   16  H   LIG     1      16.923  25.621  12.518  1.00  0.00     0.174 HD
ENDBRANCH  11  14
BRANCH  13  17
HETATM   17  N   LIG     1      12.046  27.465  13.459  1.00  0.00    -0.383 N 
HETATM   18  H   LIG     1      11.454  27.547  12.606  1.00  0.00     0.157 HD
HETATM   19  H   LIG     1      11.592  27.110  14.329  1.00  0.00     0.157 HD
ENDBRANCH  13  17
ENDBRANCH   7   8
ENDBRANCH   1   7
BRANCH   5  20
HETATM   20  O   LIG     1      16.337  33.487  15.302  1.00  0.00    -0.353 OA
HETATM   21  C   LIG     1      17.551  32.984  14.754  1.00  0.00     0.210 C 
ENDBRANCH   5  20
BRANCH   3  22
HETATM   22  O   LIG     1      14.162  31.658  19.350  1.00  0.00    -0.353 OA
HETATM   23  C   LIG     1      14.992  30.967  20.278  1.00  0.00     0.210 C 
ENDBRANCH   3  22
BRANCH   4  24
HETATM   24  O   LIG     1      15.869  33.672  18.119  1.00  0.00    -0.344 OA
BRANCH  24  25
HETATM   25  C   LIG     1      15.165  34.724  18.776  1.00  0.00     0.202 C 
BRANCH  25  26
HETATM   26  C   LIG     1      15.757  34.952  20.164  1.00  0.00     0.193 C 
BRANCH  26  27
HETATM   27  O   LIG     1      16.982  35.656  20.074  1.00  0.00    -0.394 OA
HETATM   28  C   LIG     1      17.212  36.400  21.249  1.00  0.00     0.201 C 
ENDBRANCH  26  27
ENDBRANCH  25  26
ENDBRANCH  24  25
ENDBRANCH   4  24
TORSDOF 10
ENDMDL
MODEL 2
REMARK VINA RESULT:      -6.0      0.651      2.631
REMARK  10 active torsions:
REMARK  status: ('A' for Active; 'I' for Inactive)
REMARK    1  A    between atoms: N_1  and  C_2 
REMARK    2  A    between atoms: C_5  and  C_6 
REMARK    3  A    between atoms: C_6  and  C_7 
REMARK    4  A    between atoms: C_9  and  O_10 
REMARK    5  A    between atoms: C_12  and  O_13 
REMARK    6  A    between atoms: O_13  and  C_14 
REMARK    7  A    between atoms: C_14  and  C_15 
REMARK    8  A    between atoms: C_15  and  O_16 
REMARK    9  A    between atoms: C_18  and  O_19 
REMARK   10  A    between atoms: C_22  and  N_23 
ROOT
HETATM    1  C   LIG     1      13.734  31.204  16.070  1.00  0.00    -0.048 A 
HETATM    2  C   LIG     1      14.532  32.257  15.603  1.00  0.00     0.047 A 
HETATM    3  C   LIG     1      15.270  33.055  16.487  1.00  0.00     0.104 A 
HETATM    4  C   LIG     1      15.200  32.794  17.879  1.00  0.00     0.135 A 
HETATM    5  C   LIG     1      14.324  31.792  18.353  1.00  0.00     0.104 A 
HETATM    6  C   LIG     1      13.627  30.988  17.449  1.00  0.00     0.047 A 
ENDROOT
BRANCH   1   7
HETATM    7  C   LIG     1      12.955  30.346  15.104  1.00  0.00     0.082 C 
BRANCH   7   8
HETATM    8  C   LIG     1      13.854  29.345  14.411  1.00  0.00     0.010 A 
HETATM    9  C   LIG     1      15.245  29.528  14.449  1.00  0.00     0.147 A 
HETATM   10  N   LIG     1      16.069  28.660  13.811  1.00  0.00    -0.075 NA
HETATM   11  C   LIG     1      15.572  27.602  13.122  1.00  0.00     0.721 A 
HETATM   12  N   LIG     1      14.231  27.404  13.062  1.00  0.00    -0.045 NA
HETATM   13  C   LIG     1      13.357  28.241  13.683  1.00  0.00     0.148 A 
BRANCH  11  14
HETATM   14  N   LIG     1      16.457  26.702  12.460  1.00  0.00    -0.231 N 
HETATM   15  H   LIG     1      17.145  27.056  11.758  1.00  0.00     0.174 HD
HETATM   16  H   LIG     1      16.427  25.680  12.671  1.00  0.00     0.174 HD
ENDBRANCH  11  14
BRANCH  13  17
HETATM   17  N   LIG     1      11.956  27.970  13.574  1.00  0.00    -0.383 N 
HETATM   18  H   LIG     1      11.440  27.383  14.261  1.00  0.00     0.157 HD
HETATM   19  H   LIG     1      11.414  28.362  12.771  1.00  0.00     0.157 HD
ENDBRANCH  13  17
ENDBRANCH   7   8
ENDBRANCH   1   7
BRANCH   5  20
HETATM   20  O   LIG     1      14.116  31.578  19.720  1.00  0.00    -0.353 OA
HETATM   21  C   LIG     1      14.983  30.766  20.507  1.00  0.00     0.210 C 
ENDBRANCH   5  20
BRANCH   3  22
HETATM   22  O   LIG     1      16.052  34.073  15.913  1.00  0.00    -0.353 OA
HETATM   23  C   LIG     1      17.155  33.896  15.030  1.00  0.00     0.210 C 
ENDBRANCH   3  22
BRANCH   4  24
HETATM   24  O   LIG     1      15.999  33.512  18.771  1.00  0.00    -0.344 OA
BRANCH  24  25
HETATM   25  C   LIG     1      15.565  34.723  19.387  1.00  0.00     0.202 C 
BRANCH  25  26
HETATM   26  C   LIG     1      15.552  34.555  20.905  1.00  0.00     0.193 C 
BRANCH  26  27
HETATM   27  O   LIG     1      16.813  34.891  21.453  1.00  0.00    -0.394 OA
HETATM   28  C   LIG     1      17.303  36.079  20.873  1.00  0.00     0.201 C 
ENDBRANCH  26  27
ENDBRANCH  25  26
ENDBRANCH  24  25
ENDBRANCH   4  24
TORSDOF 10
ENDMDL
MODEL 3
REMARK VINA RESULT:      -5.8      4.193      7.242
REMARK  10 active torsions:
REMARK  status: ('A' for Active; 'I' for Inactive)
REMARK    1  A    between atoms: N_1  and  C_2 
REMARK    2  A    between atoms: C_5  and  C_6 
REMARK    3  A    between atoms: C_6  and  C_7 
REMARK    4  A    between atoms: C_9  and  O_10 
REMARK    5  A    between atoms: C_12  and  O_13 
REMARK    6  A    between atoms: O_13  and  C_14 
REMARK    7  A    between atoms: C_14  and  C_15 
REMARK    8  A    between atoms: C_15  and  O_16 
REMARK    9  A    between atoms: C_18  and  O_19 
REMARK   10  A    between atoms: C_22  and  N_23 
ROOT
HETATM    1  C   LIG     1      15.972  35.190  21.167  1.00  0.00    -0.048 A 
HETATM    2  C   LIG     1      17.005  35.434  20.251  1.00  0.00     0.047 A 
HETATM    3  C   LIG     1      17.877  36.517  20.413  1.00  0.00     0.104 A 
HETATM    4  C   LIG     1      17.705  37.386  21.521  1.00  0.00     0.135 A 
HETATM    5  C   LIG     1      16.608  37.191  22.391  1.00  0.00     0.104 A 
HETATM    6  C   LIG     1      15.775  36.082  22.227  1.00  0.00     0.047 A 
ENDROOT
BRANCH   1   7
HETATM    7  C   LIG     1      15.049  34.010  20.984  1.00  0.00     0.082 C 
BRANCH   7   8
HETATM    8  C   LIG     1      15.094  33.494  19.564  1.00  0.00     0.010 A 
HETATM    9  C   LIG     1      15.354  34.387  18.514  1.00  0.00     0.147 A 
HETATM   10  N   LIG     1      15.370  33.953  17.229  1.00  0.00    -0.075 NA
HETATM   11  C   LIG     1      15.134  32.651  16.929  1.00  0.00     0.721 A 
HETATM   12  N   LIG     1      14.873  31.764  17.923  1.00  0.00    -0.045 NA
HETATM   13  C   LIG     1      14.844  32.144  19.229  1.00  0.00     0.148 A 
BRANCH  11  14
HETATM   14  N   LIG     1      15.157  32.215  15.571  1.00  0.00    -0.231 N 
HETATM   15  H   LIG     1      14.913  32.876  14.800  1.00  0.00     0.174 HD
HETATM   16  H   LIG     1      15.419  31.233  15.337  1.00  0.00     0.174 HD
ENDBRANCH  11  14
BRANCH  13  17
HETATM   17  N   LIG     1      14.559  31.153  20.222  1.00  0.00    -0.383 N 
HETATM   18  H   LIG     1      13.593  30.824  20.429  1.00  0.00     0.157 HD
HETATM   19  H   LIG     1      15.340  30.739  20.778  1.00  0.00     0.157 HD
ENDBRANCH  13  17
ENDBRANCH   7   8
ENDBRANCH   1   7
BRANCH   5  20
HETATM   20  O   LIG     1      16.314  38.088  23.422  1.00  0.00    -0.353 OA
HETATM   21  C   LIG     1      16.915  37.996  24.711  1.00  0.00     0.210 C 
ENDBRANCH   5  20
BRANCH   3  22
HETATM   22  O   LIG     1      18.890  36.662  19.448  1.00  0.00    -0.353 OA
HETATM   23  C   LIG     1      20.255  36.283  19.592  1.00  0.00     0.210 C 
ENDBRANCH   3  22
BRANCH   4  24
HETATM   24  O   LIG     1      18.620  38.415  21.759  1.00  0.00    -0.344 OA
BRANCH  24  25
HETATM   25  C   LIG     1      18.540  39.678  21.101  1.00  0.00     0.202 C 
BRANCH  25  26
HETATM   26  C   LIG     1      19.318  39.624  19.787  1.00  0.00     0.193 C 
BRANCH  26  27
HETATM   27  O   LIG     1      18.484  39.979  18.700  1.00  0.00    -0.394 OA
HETATM   28  C   LIG     1      18.932  39.363  17.513  1.00  0.00     0.201 C 
ENDBRANCH  26  27
ENDBRANCH  25  26
ENDBRANCH  24  25
ENDBRANCH   4  24
TORSDOF 10
ENDMDL
MODEL 4
REMARK VINA RESULT:      -5.7      4.236      6.939
REMARK  10 active torsions:
REMARK  status: ('A' for Active; 'I' for Inactive)
REMARK    1  A    between atoms: N_1  and  C_2 
REMARK    2  A    between atoms: C_5  and  C_6 
REMARK    3  A    between atoms: C_6  and  C_7 
REMARK    4  A    between atoms: C_9  and  O_10 
REMARK    5  A    between atoms: C_12  and  O_13 
REMARK    6  A    between atoms: O_13  and  C_14 
REMARK    7  A    between atoms: C_14  and  C_15 
REMARK    8  A    between atoms: C_15  and  O_16 
REMARK    9  A    between atoms: C_18  and  O_19 
REMARK   10  A    between atoms: C_22  and  N_23 
ROOT
HETATM    1  C   LIG     1      16.077  35.286  21.144  1.00  0.00    -0.048 A 
HETATM    2  C   LIG     1      16.028  36.103  22.281  1.00  0.00     0.047 A 
HETATM    3  C   LIG     1      16.916  37.174  22.443  1.00  0.00     0.104 A 
HETATM    4  C   LIG     1      17.886  37.427  21.440  1.00  0.00     0.135 A 
HETATM    5  C   LIG     1      17.993  36.546  20.341  1.00  0.00     0.104 A 
HETATM    6  C   LIG     1      17.072  35.508  20.186  1.00  0.00     0.047 A 
ENDROOT
BRANCH   1   7
HETATM    7  C   LIG     1      15.104  34.144  20.980  1.00  0.00     0.082 C 
BRANCH   7   8
HETATM    8  C   LIG     1      15.132  33.599  19.569  1.00  0.00     0.010 A 
HETATM    9  C   LIG     1      15.393  34.469  18.500  1.00  0.00     0.147 A 
HETATM   10  N   LIG     1      15.394  34.010  17.224  1.00  0.00    -0.075 NA
HETATM   11  C   LIG     1      15.141  32.705  16.951  1.00  0.00     0.721 A 
HETATM   12  N   LIG     1      14.878  31.841  17.964  1.00  0.00    -0.045 NA
HETATM   13  C   LIG     1      14.864  32.246  19.263  1.00  0.00     0.148 A 
BRANCH  11  14
HETATM   14  N   LIG     1      15.148  32.243  15.602  1.00  0.00    -0.231 N 
HETATM   15  H   LIG     1      14.256  31.975  15.131  1.00  0.00     0.174 HD
HETATM   16  H   LIG     1      16.045  32.170  15.074  1.00  0.00     0.174 HD
ENDBRANCH  11  14
BRANCH  13  17
HETATM   17  N   LIG     1      14.577  31.278  20.277  1.00  0.00    -0.383 N 
HETATM   18  H   LIG     1      15.204  31.111  21.091  1.00  0.00     0.157 HD
HETATM   19  H   LIG     1      13.710  30.700  20.210  1.00  0.00     0.157 HD
ENDBRANCH  13  17
ENDBRANCH   7   8
ENDBRANCH   1   7
BRANCH   5  20
HETATM   20  O   LIG     1      19.011  36.671  19.390  1.00  0.00    -0.353 OA
HETATM   21  C   LIG     1      20.343  36.227  19.633  1.00  0.00     0.210 C 
ENDBRANCH   5  20
BRANCH   3  22
HETATM   22  O   LIG     1      16.770  37.944  23.612  1.00  0.00    -0.353 OA
HETATM   23  C   LIG     1      17.424  37.721  24.857  1.00  0.00     0.210 C 
ENDBRANCH   3  22
BRANCH   4  24
HETATM   24  O   LIG     1      18.719  38.546  21.532  1.00  0.00    -0.344 OA
BRANCH  24  25
HETATM   25  C   LIG     1      18.508  39.725  20.757  1.00  0.00     0.202 C 
BRANCH  25  26
HETATM   26  C   LIG     1      19.274  39.621  19.441  1.00  0.00     0.193 C 
BRANCH  26  27
HETATM   27  O   LIG     1      18.446  39.984  18.352  1.00  0.00    -0.394 OA
HETATM   28  C   LIG     1      18.908  39.388  17.160  1.00  0.00     0.201 C 
ENDBRANCH  26  27
ENDBRANCH  25  26
ENDBRANCH  24  25
ENDBRANCH   4  24
TORSDOF 10
ENDMDL
MODEL 5
REMARK VINA RESULT:      -5.4      3.978      6.991
REMARK  10 active torsions:
REMARK  status: ('A' for Active; 'I' for Inactive)
REMARK    1  A    between atoms: N_1  and  C_2 
REMARK    2  A    between atoms: C_5  and  C_6 
REMARK    3  A    between atoms: C_6  and  C_7 
REMARK    4  A    between atoms: C_9  and  O_10 
REMARK    5  A    between atoms: C_12  and  O_13 
REMARK    6  A    between atoms: O_13  and  C_14 
REMARK    7  A    between atoms: C_14  and  C_15 
REMARK    8  A    between atoms: C_15  and  O_16 
REMARK    9  A    between atoms: C_18  and  O_19 
REMARK   10  A    between atoms: C_22  and  N_23 
ROOT
HETATM    1  C   LIG     1      16.657  33.277  14.672  1.00  0.00    -0.048 A 
HETATM    2  C   LIG     1      16.550  32.212  13.768  1.00  0.00     0.047 A 
HETATM    3  C   LIG     1      15.705  31.125  14.024  1.00  0.00     0.104 A 
HETATM    4  C   LIG     1      14.953  31.101  15.226  1.00  0.00     0.135 A 
HETATM    5  C   LIG     1      15.133  32.130  16.178  1.00  0.00     0.104 A 
HETATM    6  C   LIG     1      15.954  33.220  15.880  1.00  0.00     0.047 A 
ENDROOT
BRANCH   1   7
HETATM    7  C   LIG     1      17.563  34.447  14.374  1.00  0.00     0.082 C 
BRANCH   7   8
HETATM    8  C   LIG     1      18.457  34.160  13.188  1.00  0.00     0.010 A 
HETATM    9  C   LIG     1      19.686  33.516  13.393  1.00  0.00     0.147 A 
HETATM   10  N   LIG     1      20.518  33.274  12.350  1.00  0.00    -0.075 NA
HETATM   11  C   LIG     1      20.185  33.649  11.089  1.00  0.00     0.721 A 
HETATM   12  N   LIG     1      19.005  34.280  10.861  1.00  0.00    -0.045 NA
HETATM   13  C   LIG     1      18.132  34.548  11.869  1.00  0.00     0.148 A 
BRANCH  11  14
HETATM   14  N   LIG     1      21.074  33.384  10.007  1.00  0.00    -0.231 N 
HETATM   15  H   LIG     1      20.893  32.588   9.356  1.00  0.00     0.174 HD
HETATM   16  H   LIG     1      21.914  33.985   9.854  1.00  0.00     0.174 HD
ENDBRANCH  11  14
BRANCH  13  17
HETATM   17  N   LIG     1      16.908  35.219  11.553  1.00  0.00    -0.383 N 
HETATM   18  H   LIG     1      16.478  35.191  10.605  1.00  0.00     0.157 HD
HETATM   19  H   LIG     1      16.417  35.773  12.289  1.00  0.00     0.157 HD
ENDBRANCH  13  17
ENDBRANCH   7   8
ENDBRANCH   1   7
BRANCH   5  20
HETATM   20  O   LIG     1      14.517  32.093  17.433  1.00  0.00    -0.353 OA
HETATM   21  C   LIG     1      15.227  32.349  18.641  1.00  0.00     0.210 C 
ENDBRANCH   5  20
BRANCH   3  22
HETATM   22  O   LIG     1      15.656  30.118  13.043  1.00  0.00    -0.353 OA
HETATM   23  C   LIG     1      15.801  28.718  13.262  1.00  0.00     0.210 C 
ENDBRANCH   3  22
BRANCH   4  24
HETATM   24  O   LIG     1      14.032  30.076  15.461  1.00  0.00    -0.344 OA
BRANCH  24  25
HETATM   25  C   LIG     1      12.649  30.198  15.132  1.00  0.00     0.202 C 
BRANCH  25  26
HETATM   26  C   LIG     1      12.312  29.266  13.971  1.00  0.00     0.193 C 
BRANCH  26  27
HETATM   27  O   LIG     1      12.792  27.959  14.225  1.00  0.00    -0.394 OA
HETATM   28  C   LIG     1      12.298  27.056  13.262  1.00  0.00     0.201 C 
ENDBRANCH  26  27
ENDBRANCH  25  26
ENDBRANCH  24  25
ENDBRANCH   4  24
TORSDOF 10
ENDMDL
MODEL 6
REMARK VINA RESULT:      -5.3      4.336      7.253
REMARK  10 active torsions:
REMARK  status: ('A' for Active; 'I' for Inactive)
REMARK    1  A    between atoms: N_1  and  C_2 
REMARK    2  A    between atoms: C_5  and  C_6 
REMARK    3  A    between atoms: C_6  and  C_7 
REMARK    4  A    between atoms: C_9  and  O_10 
REMARK    5  A    between atoms: C_12  and  O_13 
REMARK    6  A    between atoms: O_13  and  C_14 
REMARK    7  A    between atoms: C_14  and  C_15 
REMARK    8  A    between atoms: C_15  and  O_16 
REMARK    9  A    between atoms: C_18  and  O_19 
REMARK   10  A    between atoms: C_22  and  N_23 
ROOT
HETATM    1  C   LIG     1      15.097  32.096  16.113  1.00  0.00    -0.048 A 
HETATM    2  C   LIG     1      15.014  31.091  15.139  1.00  0.00     0.047 A 
HETATM    3  C   LIG     1      15.795  31.140  13.978  1.00  0.00     0.104 A 
HETATM    4  C   LIG     1      16.679  32.232  13.784  1.00  0.00     0.135 A 
HETATM    5  C   LIG     1      16.693  33.289  14.722  1.00  0.00     0.104 A 
HETATM    6  C   LIG     1      15.930  33.197  15.888  1.00  0.00     0.047 A 
ENDROOT
BRANCH   1   7
HETATM    7  C   LIG     1      14.257  32.021  17.365  1.00  0.00     0.082 C 
BRANCH   7   8
HETATM    8  C   LIG     1      14.841  32.873  18.469  1.00  0.00     0.010 A 
HETATM    9  C   LIG     1      15.216  34.197  18.192  1.00  0.00     0.147 A 
HETATM   10  N   LIG     1      15.769  34.971  19.159  1.00  0.00    -0.075 NA
HETATM   11  C   LIG     1      15.974  34.487  20.409  1.00  0.00     0.721 A 
HETATM   12  N   LIG     1      15.627  33.209  20.705  1.00  0.00    -0.045 NA
HETATM   13  C   LIG     1      15.069  32.387  19.776  1.00  0.00     0.148 A 
BRANCH  11  14
HETATM   14  N   LIG     1      16.555  35.319  21.411  1.00  0.00    -0.231 N 
HETATM   15  H   LIG     1      17.438  35.033  21.888  1.00  0.00     0.174 HD
HETATM   16  H   LIG     1      16.104  36.223  21.674  1.00  0.00     0.174 HD
ENDBRANCH  11  14
BRANCH  13  17
HETATM   17  N   LIG     1      14.732  31.050  20.160  1.00  0.00    -0.383 N 
HETATM   18  H   LIG     1      13.771  30.773  20.452  1.00  0.00     0.157 HD
HETATM   19  H   LIG     1      15.469  30.311  20.163  1.00  0.00     0.157 HD
ENDBRANCH  13  17
ENDBRANCH   7   8
ENDBRANCH   1   7
BRANCH   5  20
HETATM   20  O   LIG     1      17.448  34.449  14.518  1.00  0.00    -0.353 OA
HETATM   21  C   LIG     1      17.315  35.602  15.343  1.00  0.00     0.210 C 
ENDBRANCH   5  20
BRANCH   3  22
HETATM   22  O   LIG     1      15.649  30.073  13.074  1.00  0.00    -0.353 OA
HETATM   23  C   LIG     1      15.360  28.718  13.406  1.00  0.00     0.210 C 
ENDBRANCH   3  22
BRANCH   4  24
HETATM   24  O   LIG     1      17.539  32.255  12.682  1.00  0.00    -0.344 OA
BRANCH  24  25
HETATM   25  C   LIG     1      18.164  33.452  12.223  1.00  0.00     0.202 C 
BRANCH  25  26
HETATM   26  C   LIG     1      19.503  33.116  11.571  1.00  0.00     0.193 C 
BRANCH  26  27
HETATM   27  O   LIG     1      19.450  31.846  10.949  1.00  0.00    -0.394 OA
HETATM   28  C   LIG     1      20.706  31.512  10.401  1.00  0.00     0.201 C 
ENDBRANCH  26  27
ENDBRANCH  25  26
ENDBRANCH  24  25
ENDBRANCH   4  24
TORSDOF 10
ENDMDL
MODEL 7
REMARK VINA RESULT:      -5.2      5.189      8.157
REMARK  10 active torsions:
REMARK  status: ('A' for Active; 'I' for Inactive)
REMARK    1  A    between atoms: N_1  and  C_2 
REMARK    2  A    between atoms: C_5  and  C_6 
REMARK    3  A    between atoms: C_6  and  C_7 
REMARK    4  A    between atoms: C_9  and  O_10 
REMARK    5  A    between atoms: C_12  and  O_13 
REMARK    6  A    between atoms: O_13  and  C_14 
REMARK    7  A    between atoms: C_14  and  C_15 
REMARK    8  A    between atoms: C_15  and  O_16 
REMARK    9  A    between atoms: C_18  and  O_19 
REMARK   10  A    between atoms: C_22  and  N_23 
ROOT
HETATM    1  C   LIG     1      15.242  33.125  19.311  1.00  0.00    -0.048 A 
HETATM    2  C   LIG     1      14.561  32.001  18.824  1.00  0.00     0.047 A 
HETATM    3  C   LIG     1      14.433  31.770  17.448  1.00  0.00     0.104 A 
HETATM    4  C   LIG     1      14.996  32.697  16.535  1.00  0.00     0.135 A 
HETATM    5  C   LIG     1      15.601  33.876  17.027  1.00  0.00     0.104 A 
HETATM    6  C   LIG     1      15.747  34.063  18.403  1.00  0.00     0.047 A 
ENDROOT
BRANCH   1   7
HETATM    7  C   LIG     1      15.382  33.352  20.796  1.00  0.00     0.082 C 
BRANCH   7   8
HETATM    8  C   LIG     1      16.003  34.699  21.089  1.00  0.00     0.010 A 
HETATM    9  C   LIG     1      17.400  34.815  21.150  1.00  0.00     0.147 A 
HETATM   10  N   LIG     1      17.980  36.007  21.440  1.00  0.00    -0.075 NA
HETATM   11  C   LIG     1      17.227  37.109  21.678  1.00  0.00     0.721 A 
HETATM   12  N   LIG     1      15.873  37.027  21.632  1.00  0.00    -0.045 NA
HETATM   13  C   LIG     1      15.238  35.859  21.347  1.00  0.00     0.148 A 
BRANCH  11  14
HETATM   14  N   LIG     1      17.857  38.353  21.980  1.00  0.00    -0.231 N 
HETATM   15  H   LIG     1      18.409  38.856  21.250  1.00  0.00     0.174 HD
HETATM   16  H   LIG     1      17.771  38.770  22.932  1.00  0.00     0.174 HD
ENDBRANCH  11  14
BRANCH  13  17
HETATM   17  N   LIG     1      13.807  35.848  21.318  1.00  0.00    -0.383 N 
HETATM   18  H   LIG     1      13.262  35.461  20.520  1.00  0.00     0.157 HD
HETATM   19  H   LIG     1      13.271  36.249  22.120  1.00  0.00     0.157 HD
ENDBRANCH  13  17
ENDBRANCH   7   8
ENDBRANCH   1   7
BRANCH   5  20
HETATM   20  O   LIG     1      16.057  34.885  16.173  1.00  0.00    -0.353 OA
HETATM   21  C   LIG     1      17.204  34.724  15.344  1.00  0.00     0.210 C 
ENDBRANCH   5  20
BRANCH   3  22
HETATM   22  O   LIG     1      13.748  30.603  17.066  1.00  0.00    -0.353 OA
HETATM   23  C   LIG     1      12.605  30.533  16.219  1.00  0.00     0.210 C 
ENDBRANCH   3  22
BRANCH   4  24
HETATM   24  O   LIG     1      14.966  32.440  15.162  1.00  0.00    -0.344 OA
BRANCH  24  25
HETATM   25  C   LIG     1      15.959  31.654  14.506  1.00  0.00     0.202 C 
BRANCH  25  26
HETATM   26  C   LIG     1      15.291  30.520  13.733  1.00  0.00     0.193 C 
BRANCH  26  27
HETATM   27  O   LIG     1      15.822  29.268  14.126  1.00  0.00    -0.394 OA
HETATM   28  C   LIG     1      14.940  28.226  13.775  1.00  0.00     0.201 C 
ENDBRANCH  26  27
ENDBRANCH  25  26
ENDBRANCH  24  25
ENDBRANCH   4  24
TORSDOF 10
ENDMDL
MODEL 8
REMARK VINA RESULT:      -5.1      4.316      7.272
REMARK  10 active torsions:
REMARK  status: ('A' for Active; 'I' for Inactive)
REMARK    1  A    between atoms: N_1  and  C_2 
REMARK    2  A    between atoms: C_5  and  C_6 
REMARK    3  A    between atoms: C_6  and  C_7 
REMARK    4  A    between atoms: C_9  and  O_10 
REMARK    5  A    between atoms: C_12  and  O_13 
REMARK    6  A    between atoms: O_13  and  C_14 
REMARK    7  A    between atoms: C_14  and  C_15 
REMARK    8  A    between atoms: C_15  and  O_16 
REMARK    9  A    between atoms: C_18  and  O_19 
REMARK   10  A    between atoms: C_22  and  N_23 
ROOT
HETATM    1  C   LIG     1      15.001  32.097  16.080  1.00  0.00    -0.048 A 
HETATM    2  C   LIG     1      15.921  33.132  15.865  1.00  0.00     0.047 A 
HETATM    3  C   LIG     1      16.736  33.153  14.726  1.00  0.00     0.104 A 
HETATM    4  C   LIG     1      16.633  32.100  13.781  1.00  0.00     0.135 A 
HETATM    5  C   LIG     1      15.772  31.012  14.047  1.00  0.00     0.104 A 
HETATM    6  C   LIG     1      14.944  31.034  15.171  1.00  0.00     0.047 A 
ENDROOT
BRANCH   1   7
HETATM    7  C   LIG     1      14.121  32.097  17.306  1.00  0.00     0.082 C 
BRANCH   7   8
HETATM    8  C   LIG     1      14.742  32.899  18.427  1.00  0.00     0.010 A 
HETATM    9  C   LIG     1      15.156  34.217  18.183  1.00  0.00     0.147 A 
HETATM   10  N   LIG     1      15.742  34.947  19.165  1.00  0.00    -0.075 NA
HETATM   11  C   LIG     1      15.942  34.423  20.400  1.00  0.00     0.721 A 
HETATM   12  N   LIG     1      15.558  33.148  20.664  1.00  0.00    -0.045 NA
HETATM   13  C   LIG     1      14.966  32.370  19.718  1.00  0.00     0.148 A 
BRANCH  11  14
HETATM   14  N   LIG     1      16.559  35.208  21.417  1.00  0.00    -0.231 N 
HETATM   15  H   LIG     1      17.590  35.156  21.573  1.00  0.00     0.174 HD
HETATM   16  H   LIG     1      15.985  35.842  22.015  1.00  0.00     0.174 HD
ENDBRANCH  11  14
BRANCH  13  17
HETATM   17  N   LIG     1      14.589  31.035  20.069  1.00  0.00    -0.383 N 
HETATM   18  H   LIG     1      14.060  30.411  19.426  1.00  0.00     0.157 HD
HETATM   19  H   LIG     1      14.839  30.657  21.010  1.00  0.00     0.157 HD
ENDBRANCH  13  17
ENDBRANCH   7   8
ENDBRANCH   1   7
BRANCH   5  20
HETATM   20  O   LIG     1      15.724  29.887  13.216  1.00  0.00    -0.353 OA
HETATM   21  C   LIG     1      15.304  28.609  13.684  1.00  0.00     0.210 C 
ENDBRANCH   5  20
BRANCH   3  22
HETATM   22  O   LIG     1      17.611  34.246  14.597  1.00  0.00    -0.353 OA
HETATM   23  C   LIG     1      17.441  35.537  15.172  1.00  0.00     0.210 C 
ENDBRANCH   3  22
BRANCH   4  24
HETATM   24  O   LIG     1      17.365  32.147  12.592  1.00  0.00    -0.344 OA
BRANCH  24  25
HETATM   25  C   LIG     1      18.196  33.253  12.246  1.00  0.00     0.202 C 
BRANCH  25  26
HETATM   26  C   LIG     1      19.338  32.779  11.350  1.00  0.00     0.193 C 
BRANCH  26  27
HETATM   27  O   LIG     1      19.372  33.528  10.149  1.00  0.00    -0.394 OA
HETATM   28  C   LIG     1      19.110  34.889  10.408  1.00  0.00     0.201 C 
ENDBRANCH  26  27
ENDBRANCH  25  26
ENDBRANCH  24  25
ENDBRANCH   4  24
TORSDOF 10
ENDMDL
MODEL 9
REMARK VINA RESULT:      -4.9      4.211      7.620
REMARK  10 active torsions:
REMARK  status: ('A' for Active; 'I' for Inactive)
REMARK    1  A    between atoms: N_1  and  C_2 
REMARK    2  A    between atoms: C_5  and  C_6 
REMARK    3  A    between atoms: C_6  and  C_7 
REMARK    4  A    between atoms: C_9  and  O_10 
REMARK    5  A    between atoms: C_12  and  O_13 
REMARK    6  A    between atoms: O_13  and  C_14 
REMARK    7  A    between atoms: C_14  and  C_15 
REMARK    8  A    between atoms: C_15  and  O_16 
REMARK    9  A    between atoms: C_18  and  O_19 
REMARK   10  A    between atoms: C_22  and  N_23 
ROOT
HETATM    1  C   LIG     1      13.727  31.006  15.924  1.00  0.00    -0.048 A 
HETATM    2  C   LIG     1      13.017  29.986  15.277  1.00  0.00     0.047 A 
HETATM    3  C   LIG     1      13.564  29.300  14.186  1.00  0.00     0.104 A 
HETATM    4  C   LIG     1      14.858  29.652  13.724  1.00  0.00     0.135 A 
HETATM    5  C   LIG     1      15.533  30.742  14.319  1.00  0.00     0.104 A 
HETATM    6  C   LIG     1      14.980  31.385  15.428  1.00  0.00     0.047 A 
ENDROOT
BRANCH   1   7
HETATM    7  C   LIG     1      13.127  31.727  17.106  1.00  0.00     0.082 C 
BRANCH   7   8
HETATM    8  C   LIG     1      14.098  32.730  17.687  1.00  0.00     0.010 A 
HETATM    9  C   LIG     1      14.416  33.884  16.955  1.00  0.00     0.147 A 
HETATM   10  N   LIG     1      15.306  34.784  17.442  1.00  0.00    -0.075 NA
HETATM   11  C   LIG     1      15.910  34.590  18.641  1.00  0.00     0.721 A 
HETATM   12  N   LIG     1      15.627  33.480  19.370  1.00  0.00    -0.045 NA
HETATM   13  C   LIG     1      14.743  32.544  18.931  1.00  0.00     0.148 A 
BRANCH  11  14
HETATM   14  N   LIG     1      16.842  35.550  19.135  1.00  0.00    -0.231 N 
HETATM   15  H   LIG     1      16.518  36.499  19.428  1.00  0.00     0.174 HD
HETATM   16  H   LIG     1      17.855  35.312  19.209  1.00  0.00     0.174 HD
ENDBRANCH  11  14
BRANCH  13  17
HETATM   17  N   LIG     1      14.497  31.398  19.752  1.00  0.00    -0.383 N 
HETATM   18  H   LIG     1      13.874  31.425  20.585  1.00  0.00     0.157 HD
HETATM   19  H   LIG     1      14.962  30.491  19.525  1.00  0.00     0.157 HD
ENDBRANCH  13  17
ENDBRANCH   7   8
ENDBRANCH   1   7
BRANCH   5  20
HETATM   20  O   LIG     1      16.752  31.216  13.823  1.00  0.00    -0.353 OA
HETATM   21  C   LIG     1      16.966  32.588  13.506  1.00  0.00     0.210 C 
ENDBRANCH   5  20
BRANCH   3  22
HETATM   22  O   LIG     1      12.776  28.281  13.621  1.00  0.00    -0.353 OA
HETATM   23  C   LIG     1      12.937  26.880  13.820  1.00  0.00     0.210 C 
ENDBRANCH   3  22
BRANCH   4  24
HETATM   24  O   LIG     1      15.465  28.920  12.701  1.00  0.00    -0.344 OA
BRANCH  24  25
HETATM   25  C   LIG     1      15.783  27.536  12.833  1.00  0.00     0.202 C 
BRANCH  25  26
HETATM   26  C   LIG     1      16.571  27.069  11.611  1.00  0.00     0.193 C 
BRANCH  26  27
HETATM   27  O   LIG     1      15.723  26.963  10.482  1.00  0.00    -0.394 OA
HETATM   28  C   LIG     1      14.993  25.758  10.526  1.00  0.00     0.201 C 
ENDBRANCH  26  27
ENDBRANCH  25  26
ENDBRANCH  24  25
ENDBRANCH   4  24
TORSDOF 10
ENDMDL
MODEL 10
REMARK VINA RESULT:      -4.7      3.904      6.878
REMARK  10 active torsions:
REMARK  status: ('A' for Active; 'I' for Inactive)
REMARK    1  A    between atoms: N_1  and  C_2 
REMARK    2  A    between atoms: C_5  and  C_6 
REMARK    3  A    between atoms: C_6  and  C_7 
REMARK    4  A    between atoms: C_9  and  O_10 
REMARK    5  A    between atoms: C_12  and  O_13 
REMARK    6  A    between atoms: O_13  and  C_14 
REMARK    7  A    between atoms: C_14  and  C_15 
REMARK    8  A    between atoms: C_15  and  O_16 
REMARK    9  A    between atoms: C_18  and  O_19 
REMARK   10  A    between atoms: C_22  and  N_23 
ROOT
HETATM    1  C   LIG     1      17.242  33.390  14.770  1.00  0.00    -0.048 A 
HETATM    2  C   LIG     1      16.676  34.361  13.934  1.00  0.00     0.047 A 
HETATM    3  C   LIG     1      17.381  34.877  12.839  1.00  0.00     0.104 A 
HETATM    4  C   LIG     1      18.696  34.411  12.581  1.00  0.00     0.135 A 
HETATM    5  C   LIG     1      19.298  33.501  13.479  1.00  0.00     0.104 A 
HETATM    6  C   LIG     1      18.559  32.976  14.541  1.00  0.00     0.047 A 
ENDROOT
BRANCH   1   7
HETATM    7  C   LIG     1      16.463  32.836  15.938  1.00  0.00     0.082 C 
BRANCH   7   8
HETATM    8  C   LIG     1      15.468  31.791  15.486  1.00  0.00     0.010 A 
HETATM    9  C   LIG     1      15.732  31.042  14.330  1.00  0.00     0.147 A 
HETATM   10  N   LIG     1      14.841  30.119  13.889  1.00  0.00    -0.075 NA
HETATM   11  C   LIG     1      13.677  29.901  14.551  1.00  0.00     0.721 A 
HETATM   12  N   LIG     1      13.390  30.614  15.669  1.00  0.00    -0.045 NA
HETATM   13  C   LIG     1      14.246  31.552  16.157  1.00  0.00     0.148 A 
BRANCH  11  14
HETATM   14  N   LIG     1      12.755  28.925  14.071  1.00  0.00    -0.231 N 
HETATM   15  H   LIG     1      12.706  27.981  14.514  1.00  0.00     0.174 HD
HETATM   16  H   LIG     1      12.120  29.146  13.272  1.00  0.00     0.174 HD
ENDBRANCH  11  14
BRANCH  13  17
HETATM   17  N   LIG     1      13.875  32.267  17.340  1.00  0.00    -0.383 N 
HETATM   18  H   LIG     1      13.665  31.793  18.243  1.00  0.00     0.157 HD
HETATM   19  H   LIG     1      13.798  33.308  17.312  1.00  0.00     0.157 HD
ENDBRANCH  13  17
ENDBRANCH   7   8
ENDBRANCH   1   7
BRANCH   5  20
HETATM   20  O   LIG     1      20.633  33.106  13.347  1.00  0.00    -0.353 OA
HETATM   21  C   LIG     1      21.709  34.039  13.351  1.00  0.00     0.210 C 
ENDBRANCH   5  20
BRANCH   3  22
HETATM   22  O   LIG     1      16.715  35.834  12.053  1.00  0.00    -0.353 OA
HETATM   23  C   LIG     1      16.109  35.610  10.784  1.00  0.00     0.210 C 
ENDBRANCH   3  22
BRANCH   4  24
HETATM   24  O   LIG     1      19.383  34.837  11.442  1.00  0.00    -0.344 OA
BRANCH  24  25
HETATM   25  C   LIG     1      19.528  34.019  10.283  1.00  0.00     0.202 C 
BRANCH  25  26
HETATM   26  C   LIG     1      21.010  33.777  10.006  1.00  0.00     0.193 C 
BRANCH  26  27
HETATM   27  O   LIG     1      21.331  32.408  10.174  1.00  0.00    -0.394 OA
HETATM   28  C   LIG     1      20.163  31.620  10.140  1.00  0.00     0.201 C 
ENDBRANCH  26  27
ENDBRANCH  25  26
ENDBRANCH  24  25
ENDBRANCH   4  24
TORSDOF 10
ENDMDL
MODEL 11
REMARK VINA RESULT:      -4.6      1.918      3.184
REMARK  10 active torsions:
REMARK  status: ('A' for Active; 'I' for Inactive)
REMARK    1  A    between atoms: N_1  and  C_2 
REMARK    2  A    between atoms: C_5  and  C_6 
REMARK    3  A    between atoms: C_6  and  C_7 
REMARK    4  A    between atoms: C_9  and  O_10 
REMARK    5  A    between atoms: C_12  and  O_13 
REMARK    6  A    between atoms: O_13  and  C_14 
REMARK    7  A    between atoms: C_14  and  C_15 
REMARK    8  A    between atoms: C_15  and  O_16 
REMARK    9  A    between atoms: C_18  and  O_19 
REMARK   10  A    between atoms: C_22  and  N_23 
ROOT
HETATM    1  C   LIG     1      15.378  29.568  13.900  1.00  0.00    -0.048 A 
HETATM    2  C   LIG     1      14.561  29.606  15.037  1.00  0.00     0.047 A 
HETATM    3  C   LIG     1      14.319  30.806  15.717  1.00  0.00     0.104 A 
HETATM    4  C   LIG     1      14.921  32.002  15.248  1.00  0.00     0.135 A 
HETATM    5  C   LIG     1      15.817  31.945  14.157  1.00  0.00     0.104 A 
HETATM    6  C   LIG     1      16.012  30.742  13.475  1.00  0.00     0.047 A 
ENDROOT
BRANCH   1   7
HETATM    7  C   LIG     1      15.618  28.269  13.171  1.00  0.00     0.082 C 
BRANCH   7   8
HETATM    8  C   LIG     1      14.322  27.525  12.936  1.00  0.00     0.010 A 
HETATM    9  C   LIG     1      13.257  27.696  13.833  1.00  0.00     0.147 A 
HETATM   10  N   LIG     1      12.096  27.017  13.659  1.00  0.00    -0.075 NA
HETATM   11  C   LIG     1      11.937  26.159  12.620  1.00  0.00     0.721 A 
HETATM   12  N   LIG     1      12.952  25.968  11.740  1.00  0.00    -0.045 NA
HETATM   13  C   LIG     1      14.139  26.621  11.865  1.00  0.00     0.148 A 
BRANCH  11  14
HETATM   14  N   LIG     1      10.707  25.457  12.456  1.00  0.00    -0.231 N 
HETATM   15  H   LIG     1      10.134  25.590  11.593  1.00  0.00     0.174 HD
HETATM   16  H   LIG     1      10.370  24.802  13.196  1.00  0.00     0.174 HD
ENDBRANCH  11  14
BRANCH  13  17
HETATM   17  N   LIG     1      15.164  26.367  10.899  1.00  0.00    -0.383 N 
HETATM   18  H   LIG     1      15.615  25.435  10.788  1.00  0.00     0.157 HD
HETATM   19  H   LIG     1      15.493  27.139  10.278  1.00  0.00     0.157 HD
ENDBRANCH  13  17
ENDBRANCH   7   8
ENDBRANCH   1   7
BRANCH   5  20
HETATM   20  O   LIG     1      16.538  33.066  13.733  1.00  0.00    -0.353 OA
HETATM   21  C   LIG     1      17.893  33.291  14.109  1.00  0.00     0.210 C 
ENDBRANCH   5  20
BRANCH   3  22
HETATM   22  O   LIG     1      13.470  30.738  16.836  1.00  0.00    -0.353 OA
HETATM   23  C   LIG     1      12.199  31.366  16.972  1.00  0.00     0.210 C 
ENDBRANCH   3  22
BRANCH   4  24
HETATM   24  O   LIG     1      14.619  33.226  15.850  1.00  0.00    -0.344 OA
BRANCH  24  25
HETATM   25  C   LIG     1      15.477  33.840  16.810  1.00  0.00     0.202 C 
BRANCH  25  26
HETATM   26  C   LIG     1      15.004  33.494  18.220  1.00  0.00     0.193 C 
BRANCH  26  27
HETATM   27  O   LIG     1      15.722  32.385  18.728  1.00  0.00    -0.394 OA
HETATM   28  C   LIG     1      15.020  31.790  19.796  1.00  0.00     0.201 C 
ENDBRANCH  26  27
ENDBRANCH  25  26
ENDBRANCH  24  25
ENDBRANCH   4  24
TORSDOF 10
ENDMDL
MODEL 12
REMARK VINA RESULT:      -4.5      4.389      7.675
REMARK  10 active torsions:
REMARK  status: ('A' for Active; 'I' for Inactive)
REMARK    1  A    between atoms: N_1  and  C_2 
REMARK    2  A    between atoms: C_5  and  C_6 
REMARK    3  A    between atoms: C_6  and  C_7 
REMARK    4  A    between atoms: C_9  and  O_10 
REMARK    5  A    between atoms: C_12  and  O_13 
REMARK    6  A    between atoms: O_13  and  C_14 
REMARK    7  A    between atoms: C_14  and  C_15 
REMARK    8  A    between atoms: C_15  and  O_16 
REMARK    9  A    between atoms: C_18  and  O_19 
REMARK   10  A    between atoms: C_22  and  N_23 
ROOT
HETATM    1  C   LIG     1      15.886  31.249  15.115  1.00  0.00    -0.048 A 
HETATM    2  C   LIG     1      16.004  30.210  14.182  1.00  0.00     0.047 A 
HETATM    3  C   LIG     1      14.914  29.388  13.869  1.00  0.00     0.104 A 
HETATM    4  C   LIG     1      13.672  29.609  14.517  1.00  0.00     0.135 A 
HETATM    5  C   LIG     1      13.581  30.597  15.524  1.00  0.00     0.104 A 
HETATM    6  C   LIG     1      14.673  31.425  15.790  1.00  0.00     0.047 A 
ENDROOT
BRANCH   1   7
HETATM    7  C   LIG     1      17.068  32.133  15.432  1.00  0.00     0.082 C 
BRANCH   7   8
HETATM    8  C   LIG     1      17.432  33.005  14.251  1.00  0.00     0.010 A 
HETATM    9  C   LIG     1      17.782  32.403  13.033  1.00  0.00     0.147 A 
HETATM   10  N   LIG     1      18.140  33.164  11.968  1.00  0.00    -0.075 NA
HETATM   11  C   LIG     1      18.170  34.517  12.056  1.00  0.00     0.721 A 
HETATM   12  N   LIG     1      17.843  35.127  13.223  1.00  0.00    -0.045 NA
HETATM   13  C   LIG     1      17.476  34.415  14.322  1.00  0.00     0.148 A 
BRANCH  11  14
HETATM   14  N   LIG     1      18.549  35.298  10.924  1.00  0.00    -0.231 N 
HETATM   15  H   LIG     1      18.581  36.340  10.987  1.00  0.00     0.174 HD
HETATM   16  H   LIG     1      18.798  34.834  10.023  1.00  0.00     0.174 HD
ENDBRANCH  11  14
BRANCH  13  17
HETATM   17  N   LIG     1      17.146  35.128  15.519  1.00  0.00    -0.383 N 
HETATM   18  H   LIG     1      16.462  35.912  15.538  1.00  0.00     0.157 HD
HETATM   19  H   LIG     1      17.609  34.869  16.419  1.00  0.00     0.157 HD
ENDBRANCH  13  17
ENDBRANCH   7   8
ENDBRANCH   1   7
BRANCH   5  20
HETATM   20  O   LIG     1      12.420  30.772  16.284  1.00  0.00    -0.353 OA
HETATM   21  C   LIG     1      12.058  32.029  16.848  1.00  0.00     0.210 C 
ENDBRANCH   5  20
BRANCH   3  22
HETATM   22  O   LIG     1      15.134  28.387  12.906  1.00  0.00    -0.353 OA
HETATM   23  C   LIG     1      16.038  27.292  13.018  1.00  0.00     0.210 C 
ENDBRANCH   3  22
BRANCH   4  24
HETATM   24  O   LIG     1      12.546  28.867  14.153  1.00  0.00    -0.344 OA
BRANCH  24  25
HETATM   25  C   LIG     1      12.628  27.509  13.724  1.00  0.00     0.202 C 
BRANCH  25  26
HETATM   26  C   LIG     1      11.419  27.170  12.854  1.00  0.00     0.193 C 
BRANCH  26  27
HETATM   27  O   LIG     1      11.203  25.771  12.826  1.00  0.00    -0.394 OA
HETATM   28  C   LIG     1      11.758  25.209  11.658  1.00  0.00     0.201 C 
ENDBRANCH  26  27
ENDBRANCH  25  26
ENDBRANCH  24  25
ENDBRANCH   4  24
TORSDOF 10
ENDMDL
MODEL 13
REMARK VINA RESULT:      -4.4     13.595     15.130
REMARK  10 active torsions:
REMARK  status: ('A' for Active; 'I' for Inactive)
REMARK    1  A    between atoms: N_1  and  C_2 
REMARK    2  A    between atoms: C_5  and  C_6 
REMARK    3  A    between atoms: C_6  and  C_7 
REMARK    4  A    between atoms: C_9  and  O_10 
REMARK    5  A    between atoms: C_12  and  O_13 
REMARK    6  A    between atoms: O_13  and  C_14 
REMARK    7  A    between atoms: C_14  and  C_15 
REMARK    8  A    between atoms: C_15  and  O_16 
REMARK    9  A    between atoms: C_18  and  O_19 
REMARK   10  A    between atoms: C_22  and  N_23 
ROOT
HETATM    1  C   LIG     1      23.200  21.990  21.823  1.00  0.00    -0.048 A 
HETATM    2  C   LIG     1      22.708  20.860  22.491  1.00  0.00     0.047 A 
HETATM    3  C   LIG     1      23.151  20.528  23.777  1.00  0.00     0.104 A 
HETATM    4  C   LIG     1      24.121  21.347  24.409  1.00  0.00     0.135 A 
HETATM    5  C   LIG     1      24.683  22.432  23.697  1.00  0.00     0.104 A 
HETATM    6  C   LIG     1      24.197  22.761  22.430  1.00  0.00     0.047 A 
ENDROOT
BRANCH   1   7
HETATM    7  C   LIG     1      22.702  22.341  20.442  1.00  0.00     0.082 C 
BRANCH   7   8
HETATM    8  C   LIG     1      23.435  21.554  19.379  1.00  0.00     0.010 A 
HETATM    9  C   LIG     1      22.940  20.301  18.985  1.00  0.00     0.147 A 
HETATM   10  N   LIG     1      23.596  19.565  18.054  1.00  0.00    -0.075 NA
HETATM   11  C   LIG     1      24.742  20.017  17.486  1.00  0.00     0.721 A 
HETATM   12  N   LIG     1      25.248  21.222  17.851  1.00  0.00    -0.045 NA
HETATM   13  C   LIG     1      24.633  22.004  18.779  1.00  0.00     0.148 A 
BRANCH  11  14
HETATM   14  N   LIG     1      25.415  19.227  16.508  1.00  0.00    -0.231 N 
HETATM   15  H   LIG     1      25.261  19.400  15.490  1.00  0.00     0.174 HD
HETATM   16  H   LIG     1      26.068  18.468  16.802  1.00  0.00     0.174 HD
ENDBRANCH  11  14
BRANCH  13  17
HETATM   17  N   LIG     1      25.227  23.261  19.116  1.00  0.00    -0.383 N 
HETATM   18  H   LIG     1      25.560  23.938  18.397  1.00  0.00     0.157 HD
HETATM   19  H   LIG     1      25.348  23.524  20.119  1.00  0.00     0.157 HD
ENDBRANCH  13  17
ENDBRANCH   7   8
ENDBRANCH   1   7
BRANCH   5  20
HETATM   20  O   LIG     1      25.733  23.194  24.219  1.00  0.00    -0.353 OA
HETATM   21  C   LIG     1      26.999  23.293  23.575  1.00  0.00     0.210 C 
ENDBRANCH   5  20
BRANCH   3  22
HETATM   22  O   LIG     1      22.580  19.385  24.366  1.00  0.00    -0.353 OA
HETATM   23  C   LIG     1      22.186  18.195  23.691  1.00  0.00     0.210 C 
ENDBRANCH   3  22
BRANCH   4  24
HETATM   24  O   LIG     1      24.508  21.093  25.727  1.00  0.00    -0.344 OA
BRANCH  24  25
HETATM   25  C   LIG     1      23.889  21.728  26.844  1.00  0.00     0.202 C 
BRANCH  25  26
HETATM   26  C   LIG     1      23.005  20.726  27.583  1.00  0.00     0.193 C 
BRANCH  26  27
HETATM   27  O   LIG     1      21.636  21.005  27.353  1.00  0.00    -0.394 OA
HETATM   28  C   LIG     1      20.864  19.834  27.492  1.00  0.00     0.201 C 
ENDBRANCH  26  27
ENDBRANCH  25  26
ENDBRANCH  24  25
ENDBRANCH   4  24
TORSDOF 10
ENDMDL
MODEL 14
REMARK VINA RESULT:      -4.4      1.229      2.236
REMARK  10 active torsions:
REMARK  status: ('A' for Active; 'I' for Inactive)
REMARK    1  A    between atoms: N_1  and  C_2 
REMARK    2  A    between atoms: C_5  and  C_6 
REMARK    3  A    between atoms: C_6  and  C_7 
REMARK    4  A    between atoms: C_9  and  O_10 
REMARK    5  A    between atoms: C_12  and  O_13 
REMARK    6  A    between atoms: O_13  and  C_14 
REMARK    7  A    between atoms: C_14  and  C_15 
REMARK    8  A    between atoms: C_15  and  O_16 
REMARK    9  A    between atoms: C_18  and  O_19 
REMARK   10  A    between atoms: C_22  and  N_23 
ROOT
HETATM    1  C   LIG     1      15.691  31.285  15.252  1.00  0.00    -0.048 A 
HETATM    2  C   LIG     1      15.020  31.006  16.450  1.00  0.00     0.047 A 
HETATM    3  C   LIG     1      14.777  32.010  17.396  1.00  0.00     0.104 A 
HETATM    4  C   LIG     1      15.227  33.330  17.137  1.00  0.00     0.135 A 
HETATM    5  C   LIG     1      15.983  33.588  15.972  1.00  0.00     0.104 A 
HETATM    6  C   LIG     1      16.180  32.577  15.029  1.00  0.00     0.047 A 
ENDROOT
BRANCH   1   7
HETATM    7  C   LIG     1      15.934  30.195  14.238  1.00  0.00     0.082 C 
BRANCH   7   8
HETATM    8  C   LIG     1      14.677  29.394  13.982  1.00  0.00     0.010 A 
HETATM    9  C   LIG     1      13.425  30.009  14.136  1.00  0.00     0.147 A 
HETATM   10  N   LIG     1      12.284  29.304  13.940  1.00  0.00    -0.075 NA
HETATM   11  C   LIG     1      12.323  27.993  13.595  1.00  0.00     0.721 A 
HETATM   12  N   LIG     1      13.519  27.369  13.445  1.00  0.00    -0.045 NA
HETATM   13  C   LIG     1      14.696  28.026  13.628  1.00  0.00     0.148 A 
BRANCH  11  14
HETATM   14  N   LIG     1      11.111  27.270  13.393  1.00  0.00    -0.231 N 
HETATM   15  H   LIG     1      10.408  27.190  14.161  1.00  0.00     0.174 HD
HETATM   16  H   LIG     1      10.914  26.816  12.474  1.00  0.00     0.174 HD
ENDBRANCH  11  14
BRANCH  13  17
HETATM   17  N   LIG     1      15.918  27.302  13.455  1.00  0.00    -0.383 N 
HETATM   18  H   LIG     1      16.590  27.505  12.685  1.00  0.00     0.157 HD
HETATM   19  H   LIG     1      16.158  26.527  14.112  1.00  0.00     0.157 HD
ENDBRANCH  13  17
ENDBRANCH   7   8
ENDBRANCH   1   7
BRANCH   5  20
HETATM   20  O   LIG     1      16.561  34.838  15.728  1.00  0.00    -0.353 OA
HETATM   21  C   LIG     1      17.464  35.066  14.650  1.00  0.00     0.210 C 
ENDBRANCH   5  20
BRANCH   3  22
HETATM   22  O   LIG     1      14.079  31.628  18.556  1.00  0.00    -0.353 OA
HETATM   23  C   LIG     1      14.647  31.361  19.834  1.00  0.00     0.210 C 
ENDBRANCH   3  22
BRANCH   4  24
HETATM   24  O   LIG     1      14.912  34.367  18.019  1.00  0.00    -0.344 OA
BRANCH  24  25
HETATM   25  C   LIG     1      15.834  34.850  18.994  1.00  0.00     0.202 C 
BRANCH  25  26
HETATM   26  C   LIG     1      15.106  35.099  20.313  1.00  0.00     0.193 C 
BRANCH  26  27
HETATM   27  O   LIG     1      15.745  34.410  21.372  1.00  0.00    -0.394 OA
HETATM   28  C   LIG     1      16.839  35.156  21.856  1.00  0.00     0.201 C 
ENDBRANCH  26  27
ENDBRANCH  25  26
ENDBRANCH  24  25
ENDBRANCH   4  24
TORSDOF 10
ENDMDL
MODEL 15
REMARK VINA RESULT:      -4.3     13.600     15.264
REMARK  10 active torsions:
REMARK  status: ('A' for Active; 'I' for Inactive)
REMARK    1  A    between atoms: N_1  and  C_2 
REMARK    2  A    between atoms: C_5  and  C_6 
REMARK    3  A    between atoms: C_6  and  C_7 
REMARK    4  A    between atoms: C_9  and  O_10 
REMARK    5  A    between atoms: C_12  and  O_13 
REMARK    6  A    between atoms: O_13  and  C_14 
REMARK    7  A    between atoms: C_14  and  C_15 
REMARK    8  A    between atoms: C_15  and  O_16 
REMARK    9  A    between atoms: C_18  and  O_19 
REMARK   10  A    between atoms: C_22  and  N_23 
ROOT
HETATM    1  C   LIG     1      23.218  21.945  21.818  1.00  0.00    -0.048 A 
HETATM    2  C   LIG     1      24.175  22.732  22.471  1.00  0.00     0.047 A 
HETATM    3  C   LIG     1      24.651  22.389  23.743  1.00  0.00     0.104 A 
HETATM    4  C   LIG     1      24.147  21.228  24.382  1.00  0.00     0.135 A 
HETATM    5  C   LIG     1      23.115  20.488  23.761  1.00  0.00     0.104 A 
HETATM    6  C   LIG     1      22.685  20.832  22.478  1.00  0.00     0.047 A 
ENDROOT
BRANCH   1   7
HETATM    7  C   LIG     1      22.725  22.321  20.443  1.00  0.00     0.082 C 
BRANCH   7   8
HETATM    8  C   LIG     1      23.469  21.563  19.367  1.00  0.00     0.010 A 
HETATM    9  C   LIG     1      22.974  20.324  18.930  1.00  0.00     0.147 A 
HETATM   10  N   LIG     1      23.640  19.612  17.987  1.00  0.00    -0.075 NA
HETATM   11  C   LIG     1      24.795  20.076  17.448  1.00  0.00     0.721 A 
HETATM   12  N   LIG     1      25.301  21.267  17.855  1.00  0.00    -0.045 NA
HETATM   13  C   LIG     1      24.677  22.024  18.797  1.00  0.00     0.148 A 
BRANCH  11  14
HETATM   14  N   LIG     1      25.478  19.311  16.457  1.00  0.00    -0.231 N 
HETATM   15  H   LIG     1      24.941  18.762  15.749  1.00  0.00     0.174 HD
HETATM   16  H   LIG     1      26.521  19.293  16.430  1.00  0.00     0.174 HD
ENDBRANCH  11  14
BRANCH  13  17
HETATM   17  N   LIG     1      25.272  23.269  19.178  1.00  0.00    -0.383 N 
HETATM   18  H   LIG     1      26.292  23.458  19.087  1.00  0.00     0.157 HD
HETATM   19  H   LIG     1      24.674  24.028  19.575  1.00  0.00     0.157 HD
ENDBRANCH  13  17
ENDBRANCH   7   8
ENDBRANCH   1   7
BRANCH   5  20
HETATM   20  O   LIG     1      22.491  19.412  24.399  1.00  0.00    -0.353 OA
HETATM   21  C   LIG     1      22.080  18.241  23.699  1.00  0.00     0.210 C 
ENDBRANCH   5  20
BRANCH   3  22
HETATM   22  O   LIG     1      25.625  23.237  24.302  1.00  0.00    -0.353 OA
HETATM   23  C   LIG     1      27.021  23.221  24.020  1.00  0.00     0.210 C 
ENDBRANCH   3  22
BRANCH   4  24
HETATM   24  O   LIG     1      24.675  20.812  25.607  1.00  0.00    -0.344 OA
BRANCH  24  25
HETATM   25  C   LIG     1      24.501  21.558  26.810  1.00  0.00     0.202 C 
BRANCH  25  26
HETATM   26  C   LIG     1      23.013  21.684  27.128  1.00  0.00     0.193 C 
BRANCH  26  27
HETATM   27  O   LIG     1      22.491  20.444  27.569  1.00  0.00    -0.394 OA
HETATM   28  C   LIG     1      21.103  20.545  27.794  1.00  0.00     0.201 C 
ENDBRANCH  26  27
ENDBRANCH  25  26
ENDBRANCH  24  25
ENDBRANCH   4  24
TORSDOF 10
ENDMDL
MODEL 16
REMARK VINA RESULT:      -4.3      4.060      6.483
REMARK  10 active torsions:
REMARK  status: ('A' for Active; 'I' for Inactive)
REMARK    1  A    between atoms: N_1  and  C_2 
REMARK    2  A    between atoms: C_5  and  C_6 
REMARK    3  A    between atoms: C_6  and  C_7 
REMARK    4  A    between atoms: C_9  and  O_10 
REMARK    5  A    between atoms: C_12  and  O_13 
REMARK    6  A    between atoms: O_13  and  C_14 
REMARK    7  A    between atoms: C_14  and  C_15 
REMARK    8  A    between atoms: C_15  and  O_16 
REMARK    9  A    between atoms: C_18  and  O_19 
REMARK   10  A    between atoms: C_22  and  N_23 
ROOT
HETATM    1  C   LIG     1      15.810  34.572  21.074  1.00  0.00    -0.048 A 
HETATM    2  C   LIG     1      16.106  34.766  22.430  1.00  0.00     0.047 A 
HETATM    3  C   LIG     1      16.969  35.788  22.845  1.00  0.00     0.104 A 
HETATM    4  C   LIG     1      17.558  36.635  21.872  1.00  0.00     0.135 A 
HETATM    5  C   LIG     1      17.330  36.379  20.501  1.00  0.00     0.104 A 
HETATM    6  C   LIG     1      16.437  35.376  20.117  1.00  0.00     0.047 A 
ENDROOT
BRANCH   1   7
HETATM    7  C   LIG     1      14.868  33.473  20.646  1.00  0.00     0.082 C 
BRANCH   7   8
HETATM    8  C   LIG     1      15.044  33.140  19.181  1.00  0.00     0.010 A 
HETATM    9  C   LIG     1      15.356  34.165  18.275  1.00  0.00     0.147 A 
HETATM   10  N   LIG     1      15.491  33.895  16.952  1.00  0.00    -0.075 NA
HETATM   11  C   LIG     1      15.325  32.636  16.476  1.00  0.00     0.721 A 
HETATM   12  N   LIG     1      15.016  31.625  17.328  1.00  0.00    -0.045 NA
HETATM   13  C   LIG     1      14.870  31.837  18.663  1.00  0.00     0.148 A 
BRANCH  11  14
HETATM   14  N   LIG     1      15.472  32.375  15.082  1.00  0.00    -0.231 N 
HETATM   15  H   LIG     1      15.431  33.156  14.390  1.00  0.00     0.174 HD
HETATM   16  H   LIG     1      15.624  31.400  14.740  1.00  0.00     0.174 HD
ENDBRANCH  11  14
BRANCH  13  17
HETATM   17  N   LIG     1      14.541  30.723  19.500  1.00  0.00    -0.383 N 
HETATM   18  H   LIG     1      14.964  29.780  19.375  1.00  0.00     0.157 HD
HETATM   19  H   LIG     1      13.842  30.841  20.267  1.00  0.00     0.157 HD
ENDBRANCH  13  17
ENDBRANCH   7   8
ENDBRANCH   1   7
BRANCH   5  20
HETATM   20  O   LIG     1      17.984  37.099  19.496  1.00  0.00    -0.353 OA
HETATM   21  C   LIG     1      19.403  37.111  19.365  1.00  0.00     0.210 C 
ENDBRANCH   5  20
BRANCH   3  22
HETATM   22  O   LIG     1      17.185  35.908  24.230  1.00  0.00    -0.353 OA
HETATM   23  C   LIG     1      17.404  34.841  25.146  1.00  0.00     0.210 C 
ENDBRANCH   3  22
BRANCH   4  24
HETATM   24  O   LIG     1      18.344  37.721  22.266  1.00  0.00    -0.344 OA
BRANCH  24  25
HETATM   25  C   LIG     1      17.825  39.045  22.373  1.00  0.00     0.202 C 
BRANCH  25  26
HETATM   26  C   LIG     1      17.820  39.479  23.837  1.00  0.00     0.193 C 
BRANCH  26  27
HETATM   27  O   LIG     1      16.803  38.803  24.553  1.00  0.00    -0.394 OA
HETATM   28  C   LIG     1      17.276  38.401  25.819  1.00  0.00     0.201 C 
ENDBRANCH  26  27
ENDBRANCH  25  26
ENDBRANCH  24  25
ENDBRANCH   4  24
TORSDOF 10
ENDMDL
MODEL 17
REMARK VINA RESULT:      -4.0     14.319     16.398
REMARK  10 active torsions:
REMARK  status: ('A' for Active; 'I' for Inactive)
REMARK    1  A    between atoms: N_1  and  C_2 
REMARK    2  A    between atoms: C_5  and  C_6 
REMARK    3  A    between atoms: C_6  and  C_7 
REMARK    4  A    between atoms: C_9  and  O_10 
REMARK    5  A    between atoms: C_12  and  O_13 
REMARK    6  A    between atoms: O_13  and  C_14 
REMARK    7  A    between atoms: C_14  and  C_15 
REMARK    8  A    between atoms: C_15  and  O_16 
REMARK    9  A    between atoms: C_18  and  O_19 
REMARK   10  A    between atoms: C_22  and  N_23 
ROOT
HETATM    1  C   LIG     1      26.274  22.143  22.285  1.00  0.00    -0.048 A 
HETATM    2  C   LIG     1      25.062  21.477  22.515  1.00  0.00     0.047 A 
HETATM    3  C   LIG     1      24.016  21.533  21.586  1.00  0.00     0.104 A 
HETATM    4  C   LIG     1      24.185  22.285  20.396  1.00  0.00     0.135 A 
HETATM    5  C   LIG     1      25.372  23.029  20.210  1.00  0.00     0.104 A 
HETATM    6  C   LIG     1      26.413  22.927  21.134  1.00  0.00     0.047 A 
ENDROOT
BRANCH   1   7
HETATM    7  C   LIG     1      27.396  22.061  23.290  1.00  0.00     0.082 C 
BRANCH   7   8
HETATM    8  C   LIG     1      27.110  22.919  24.502  1.00  0.00     0.010 A 
HETATM    9  C   LIG     1      26.427  22.362  25.594  1.00  0.00     0.147 A 
HETATM   10  N   LIG     1      26.133  23.120  26.680  1.00  0.00    -0.075 NA
HETATM   11  C   LIG     1      26.488  24.428  26.736  1.00  0.00     0.721 A 
HETATM   12  N   LIG     1      27.145  24.996  25.693  1.00  0.00    -0.045 NA
HETATM   13  C   LIG     1      27.465  24.285  24.578  1.00  0.00     0.148 A 
BRANCH  11  14
HETATM   14  N   LIG     1      26.171  25.206  27.888  1.00  0.00    -0.231 N 
HETATM   15  H   LIG     1      26.876  25.341  28.646  1.00  0.00     0.174 HD
HETATM   16  H   LIG     1      25.230  25.648  27.984  1.00  0.00     0.174 HD
ENDBRANCH  11  14
BRANCH  13  17
HETATM   17  N   LIG     1      28.155  24.952  23.517  1.00  0.00    -0.383 N 
HETATM   18  H   LIG     1      27.664  25.506  22.785  1.00  0.00     0.157 HD
HETATM   19  H   LIG     1      29.195  24.883  23.453  1.00  0.00     0.157 HD
ENDBRANCH  13  17
ENDBRANCH   7   8
ENDBRANCH   1   7
BRANCH   5  20
HETATM   20  O   LIG     1      25.541  23.889  19.119  1.00  0.00    -0.353 OA
HETATM   21  C   LIG     1      26.162  25.165  19.241  1.00  0.00     0.210 C 
ENDBRANCH   5  20
BRANCH   3  22
HETATM   22  O   LIG     1      22.850  20.814  21.906  1.00  0.00    -0.353 OA
HETATM   23  C   LIG     1      22.781  19.607  22.658  1.00  0.00     0.210 C 
ENDBRANCH   3  22
BRANCH   4  24
HETATM   24  O   LIG     1      23.195  22.278  19.411  1.00  0.00    -0.344 OA
BRANCH  24  25
HETATM   25  C   LIG     1      23.332  21.552  18.191  1.00  0.00     0.202 C 
BRANCH  25  26
HETATM   26  C   LIG     1      22.805  20.131  18.374  1.00  0.00     0.193 C 
BRANCH  26  27
HETATM   27  O   LIG     1      22.076  19.719  17.233  1.00  0.00    -0.394 OA
HETATM   28  C   LIG     1      22.743  18.665  16.575  1.00  0.00     0.201 C 
ENDBRANCH  26  27
ENDBRANCH  25  26
ENDBRANCH  24  25
ENDBRANCH   4  24
TORSDOF 10
ENDMDL
MODEL 18
REMARK VINA RESULT:      -3.6     14.706     16.570
REMARK  10 active torsions:
REMARK  status: ('A' for Active; 'I' for Inactive)
REMARK    1  A    between atoms: N_1  and  C_2 
REMARK    2  A    between atoms: C_5  and  C_6 
REMARK    3  A    between atoms: C_6  and  C_7 
REMARK    4  A    between atoms: C_9  and  O_10 
REMARK    5  A    between atoms: C_12  and  O_13 
REMARK    6  A    between atoms: O_13  and  C_14 
REMARK    7  A    between atoms: C_14  and  C_15 
REMARK    8  A    between atoms: C_15  and  O_16 
REMARK    9  A    between atoms: C_18  and  O_19 
REMARK   10  A    between atoms: C_22  and  N_23 
ROOT
HETATM    1  C   LIG     1      26.999  22.301  22.120  1.00  0.00    -0.048 A 
HETATM    2  C   LIG     1      25.639  22.625  22.213  1.00  0.00     0.047 A 
HETATM    3  C   LIG     1      24.876  22.888  21.069  1.00  0.00     0.104 A 
HETATM    4  C   LIG     1      25.496  22.833  19.794  1.00  0.00     0.135 A 
HETATM    5  C   LIG     1      26.887  22.596  19.710  1.00  0.00     0.104 A 
HETATM    6  C   LIG     1      27.616  22.302  20.864  1.00  0.00     0.047 A 
ENDROOT
BRANCH   1   7
HETATM    7  C   LIG     1      27.803  22.008  23.362  1.00  0.00     0.082 C 
BRANCH   7   8
HETATM    8  C   LIG     1      27.327  22.838  24.533  1.00  0.00     0.010 A 
HETATM    9  C   LIG     1      27.689  24.191  24.611  1.00  0.00     0.147 A 
HETATM   10  N   LIG     1      27.297  24.948  25.666  1.00  0.00    -0.075 NA
HETATM   11  C   LIG     1      26.552  24.417  26.668  1.00  0.00     0.721 A 
HETATM   12  N   LIG     1      26.192  23.109  26.624  1.00  0.00    -0.045 NA
HETATM   13  C   LIG     1      26.556  22.303  25.591  1.00  0.00     0.148 A 
BRANCH  11  14
HETATM   14  N   LIG     1      26.151  25.232  27.768  1.00  0.00    -0.231 N 
HETATM   15  H   LIG     1      26.083  24.827  28.728  1.00  0.00     0.174 HD
HETATM   16  H   LIG     1      25.921  26.239  27.622  1.00  0.00     0.174 HD
ENDBRANCH  11  14
BRANCH  13  17
HETATM   17  N   LIG     1      26.141  20.934  25.614  1.00  0.00    -0.383 N 
HETATM   18  H   LIG     1      25.929  20.424  26.496  1.00  0.00     0.157 HD
HETATM   19  H   LIG     1      26.052  20.405  24.717  1.00  0.00     0.157 HD
ENDBRANCH  13  17
ENDBRANCH   7   8
ENDBRANCH   1   7
BRANCH   5  20
HETATM   20  O   LIG     1      27.575  22.658  18.494  1.00  0.00    -0.353 OA
HETATM   21  C   LIG     1      27.974  23.891  17.903  1.00  0.00     0.210 C 
ENDBRANCH   5  20
BRANCH   3  22
HETATM   22  O   LIG     1      23.516  23.185  21.271  1.00  0.00    -0.353 OA
HETATM   23  C   LIG     1      22.491  22.259  21.615  1.00  0.00     0.210 C 
ENDBRANCH   3  22
BRANCH   4  24
HETATM   24  O   LIG     1      24.736  22.996  18.633  1.00  0.00    -0.344 OA
BRANCH  24  25
HETATM   25  C   LIG     1      23.796  22.020  18.189  1.00  0.00     0.202 C 
BRANCH  25  26
HETATM   26  C   LIG     1      24.448  20.640  18.184  1.00  0.00     0.193 C 
BRANCH  26  27
HETATM   27  O   LIG     1      23.795  19.777  19.096  1.00  0.00    -0.394 OA
HETATM   28  C   LIG     1      24.712  19.269  20.039  1.00  0.00     0.201 C 
ENDBRANCH  26  27
ENDBRANCH  25  26
ENDBRANCH  24  25
ENDBRANCH   4  24
TORSDOF 10
ENDMDL
MODEL 19
REMARK VINA RESULT:      -3.6     13.776     15.530
REMARK  10 active torsions:
REMARK  status: ('A' for Active; 'I' for Inactive)
REMARK    1  A    between atoms: N_1  and  C_2 
REMARK    2  A    between atoms: C_5  and  C_6 
REMARK    3  A    between atoms: C_6  and  C_7 
REMARK    4  A    between atoms: C_9  and  O_10 
REMARK    5  A    between atoms: C_12  and  O_13 
REMARK    6  A    between atoms: O_13  and  C_14 
REMARK    7  A    between atoms: C_14  and  C_15 
REMARK    8  A    between atoms: C_15  and  O_16 
REMARK    9  A    between atoms: C_18  and  O_19 
REMARK   10  A    between atoms: C_22  and  N_23 
ROOT
HETATM    1  C   LIG     1      25.074  22.055  23.077  1.00  0.00    -0.048 A 
HETATM    2  C   LIG     1      24.450  20.817  23.282  1.00  0.00     0.047 A 
HETATM    3  C   LIG     1      23.977  20.444  24.547  1.00  0.00     0.104 A 
HETATM    4  C   LIG     1      24.142  21.334  25.639  1.00  0.00     0.135 A 
HETATM    5  C   LIG     1      24.853  22.540  25.449  1.00  0.00     0.104 A 
HETATM    6  C   LIG     1      25.282  22.904  24.171  1.00  0.00     0.047 A 
ENDROOT
BRANCH   1   7
HETATM    7  C   LIG     1      25.566  22.448  21.706  1.00  0.00     0.082 C 
BRANCH   7   8
HETATM    8  C   LIG     1      24.698  21.851  20.620  1.00  0.00     0.010 A 
HETATM    9  C   LIG     1      25.248  20.905  19.742  1.00  0.00     0.147 A 
HETATM   10  N   LIG     1      24.498  20.377  18.743  1.00  0.00    -0.075 NA
HETATM   11  C   LIG     1      23.206  20.751  18.567  1.00  0.00     0.721 A 
HETATM   12  N   LIG     1      22.648  21.669  19.398  1.00  0.00    -0.045 NA
HETATM   13  C   LIG     1      23.352  22.231  20.416  1.00  0.00     0.148 A 
BRANCH  11  14
HETATM   14  N   LIG     1      22.435  20.182  17.511  1.00  0.00    -0.231 N 
HETATM   15  H   LIG     1      21.394  20.130  17.585  1.00  0.00     0.174 HD
HETATM   16  H   LIG     1      22.904  19.815  16.654  1.00  0.00     0.174 HD
ENDBRANCH  11  14
BRANCH  13  17
HETATM   17  N   LIG     1      22.699  23.193  21.250  1.00  0.00    -0.383 N 
HETATM   18  H   LIG     1      23.104  24.131  21.452  1.00  0.00     0.157 HD
HETATM   19  H   LIG     1      21.781  22.959  21.689  1.00  0.00     0.157 HD
ENDBRANCH  13  17
ENDBRANCH   7   8
ENDBRANCH   1   7
BRANCH   5  20
HETATM   20  O   LIG     1      25.158  23.394  26.514  1.00  0.00    -0.353 OA
HETATM   21  C   LIG     1      26.185  24.377  26.435  1.00  0.00     0.210 C 
ENDBRANCH   5  20
BRANCH   3  22
HETATM   22  O   LIG     1      23.350  19.188  24.640  1.00  0.00    -0.353 OA
HETATM   23  C   LIG     1      22.059  18.850  24.143  1.00  0.00     0.210 C 
ENDBRANCH   3  22
BRANCH   4  24
HETATM   24  O   LIG     1      23.594  21.026  26.887  1.00  0.00    -0.344 OA
BRANCH  24  25
HETATM   25  C   LIG     1      22.321  21.513  27.306  1.00  0.00     0.202 C 
BRANCH  25  26
HETATM   26  C   LIG     1      21.399  20.338  27.625  1.00  0.00     0.193 C 
BRANCH  26  27
HETATM   27  O   LIG     1      20.126  20.801  28.037  1.00  0.00    -0.394 OA
HETATM   28  C   LIG     1      19.333  19.726  28.488  1.00  0.00     0.201 C 
ENDBRANCH  26  27
ENDBRANCH  25  26
ENDBRANCH  24  25
ENDBRANCH   4  24
TORSDOF 10
ENDMDL
MODEL 20
REMARK VINA RESULT:      -3.6     14.496     16.357
REMARK  10 active torsions:
REMARK  status: ('A' for Active; 'I' for Inactive)
REMARK    1  A    between atoms: N_1  and  C_2 
REMARK    2  A    between atoms: C_5  and  C_6 
REMARK    3  A    between atoms: C_6  and  C_7 
REMARK    4  A    between atoms: C_9  and  O_10 
REMARK    5  A    between atoms: C_12  and  O_13 
REMARK    6  A    between atoms: O_13  and  C_14 
REMARK    7  A    between atoms: C_14  and  C_15 
REMARK    8  A    between atoms: C_15  and  O_16 
REMARK    9  A    between atoms: C_18  and  O_19 
REMARK   10  A    between atoms: C_22  and  N_23 
ROOT
HETATM    1  C   LIG     1      26.894  22.565  21.554  1.00  0.00    -0.048 A 
HETATM    2  C   LIG     1      25.530  22.772  21.799  1.00  0.00     0.047 A 
HETATM    3  C   LIG     1      24.601  22.798  20.752  1.00  0.00     0.104 A 
HETATM    4  C   LIG     1      25.052  22.618  19.420  1.00  0.00     0.135 A 
HETATM    5  C   LIG     1      26.438  22.501  19.167  1.00  0.00     0.104 A 
HETATM    6  C   LIG     1      27.339  22.443  20.232  1.00  0.00     0.047 A 
ENDROOT
BRANCH   1   7
HETATM    7  C   LIG     1      27.881  22.527  22.695  1.00  0.00     0.082 C 
BRANCH   7   8
HETATM    8  C   LIG     1      28.273  23.923  23.126  1.00  0.00     0.010 A 
HETATM    9  C   LIG     1      29.262  24.613  22.410  1.00  0.00     0.147 A 
HETATM   10  N   LIG     1      29.651  25.854  22.796  1.00  0.00    -0.075 NA
HETATM   11  C   LIG     1      29.098  26.453  23.879  1.00  0.00     0.721 A 
HETATM   12  N   LIG     1      28.144  25.808  24.597  1.00  0.00    -0.045 NA
HETATM   13  C   LIG     1      27.715  24.562  24.256  1.00  0.00     0.148 A 
BRANCH  11  14
HETATM   14  N   LIG     1      29.521  27.759  24.267  1.00  0.00    -0.231 N 
HETATM   15  H   LIG     1      29.567  28.022  25.276  1.00  0.00     0.174 HD
HETATM   16  H   LIG     1      29.789  28.463  23.544  1.00  0.00     0.174 HD
ENDBRANCH  11  14
BRANCH  13  17
HETATM   17  N   LIG     1      26.707  23.943  25.062  1.00  0.00    -0.383 N 
HETATM   18  H   LIG     1      25.697  24.182  24.984  1.00  0.00     0.157 HD
HETATM   19  H   LIG     1      26.980  23.224  25.769  1.00  0.00     0.157 HD
ENDBRANCH  13  17
ENDBRANCH   7   8
ENDBRANCH   1   7
BRANCH   5  20
HETATM   20  O   LIG     1      26.950  22.451  17.867  1.00  0.00    -0.353 OA
HETATM   21  C   LIG     1      28.348  22.484  17.595  1.00  0.00     0.210 C 
ENDBRANCH   5  20
BRANCH   3  22
HETATM   22  O   LIG     1      23.254  22.995  21.109  1.00  0.00    -0.353 OA
HETATM   23  C   LIG     1      22.434  22.092  21.844  1.00  0.00     0.210 C 
ENDBRANCH   3  22
BRANCH   4  24
HETATM   24  O   LIG     1      24.135  22.543  18.369  1.00  0.00    -0.344 OA
BRANCH  24  25
HETATM   25  C   LIG     1      23.185  21.485  18.255  1.00  0.00     0.202 C 
BRANCH  25  26
HETATM   26  C   LIG     1      23.890  20.140  18.406  1.00  0.00     0.193 C 
BRANCH  26  27
HETATM   27  O   LIG     1      23.455  19.478  19.580  1.00  0.00    -0.394 OA
HETATM   28  C   LIG     1      24.560  19.088  20.365  1.00  0.00     0.201 C 
ENDBRANCH  26  27
ENDBRANCH  25  26
ENDBRANCH  24  25
ENDBRANCH   4  24
TORSDOF 10
ENDMDL
