MODEL 1
REMARK VINA RESULT:      -6.2      0.000      0.000
REMARK  1 active torsions:
REMARK  status: ('A' for Active; 'I' for Inactive)
REMARK       I    between atoms: C_2  and  N_3 
REMARK    1  A    between atoms: N_3  and  C_4 
ROOT
HETATM    1  C   LIG     1      16.837  35.476  22.284  1.00  0.00     0.034 A 
HETATM    2  C   LIG     1      17.135  35.031  23.586  1.00  0.00     0.031 A 
HETATM    3  C   LIG     1      17.270  35.950  24.631  1.00  0.00     0.026 A 
HETATM    4  C   LIG     1      17.096  37.317  24.393  1.00  0.00     0.034 A 
HETATM    5 CL   LIG     1      17.265  38.466  25.707  1.00  0.00    -0.084 Cl
HETATM    6  C   LIG     1      16.777  37.764  23.107  1.00  0.00     0.026 A 
HETATM    7  C   LIG     1      16.640  36.848  22.060  1.00  0.00     0.031 A 
ENDROOT
BRANCH   1   8
HETATM    8  N   LIG     1      16.667  34.553  21.195  1.00  0.00    -0.328 N 
HETATM    9  C   LIG     1      15.421  33.929  20.853  1.00  0.00     0.218 C 
HETATM   10  C   LIG     1      15.307  33.146  19.585  1.00  0.00     0.117 C 
HETATM   11  O   LIG     1      14.429  34.001  21.628  1.00  0.00    -0.274 OA
HETATM   12  H   LIG     1      17.520  34.250  20.671  1.00  0.00     0.169 HD
ENDBRANCH   1   8
TORSDOF 1
ENDMDL
MODEL 2
REMARK VINA RESULT:      -6.0      5.605      8.338
REMARK  1 active torsions:
REMARK  status: ('A' for Active; 'I' for Inactive)
REMARK       I    between atoms: C_2  and  N_3 
REMARK    1  A    between atoms: N_3  and  C_4 
ROOT
HETATM    1  C   LIG     1      14.891  32.571  17.257  1.00  0.00     0.034 A 
HETATM    2  C   LIG     1      15.805  32.599  16.187  1.00  0.00     0.031 A 
HETATM    3  C   LIG     1      15.661  31.715  15.113  1.00  0.00     0.026 A 
HETATM    4  C   LIG     1      14.600  30.805  15.089  1.00  0.00     0.034 A 
HETATM    5 CL   LIG     1      14.422  29.698  13.740  1.00  0.00    -0.084 Cl
HETATM    6  C   LIG     1      13.675  30.787  16.137  1.00  0.00     0.026 A 
HETATM    7  C   LIG     1      13.815  31.671  17.211  1.00  0.00     0.031 A 
ENDROOT
BRANCH   1   8
HETATM    8  N   LIG     1      15.000  33.485  18.362  1.00  0.00    -0.328 N 
HETATM    9  C   LIG     1      15.496  33.127  19.659  1.00  0.00     0.218 C 
HETATM   10  C   LIG     1      15.757  34.193  20.674  1.00  0.00     0.117 C 
HETATM   11  O   LIG     1      15.680  31.919  19.970  1.00  0.00    -0.274 OA
HETATM   12  H   LIG     1      14.614  34.449  18.240  1.00  0.00     0.169 HD
ENDBRANCH   1   8
TORSDOF 1
ENDMDL
MODEL 3
REMARK VINA RESULT:      -5.7      2.141      2.600
REMARK  1 active torsions:
REMARK  status: ('A' for Active; 'I' for Inactive)
REMARK       I    between atoms: C_2  and  N_3 
REMARK    1  A    between atoms: N_3  and  C_4 
ROOT
HETATM    1  C   LIG     1      16.677  35.753  21.263  1.00  0.00     0.034 A 
HETATM    2  C   LIG     1      17.758  36.110  20.435  1.00  0.00     0.031 A 
HETATM    3  C   LIG     1      18.355  37.369  20.557  1.00  0.00     0.026 A 
HETATM    4  C   LIG     1      17.890  38.277  21.512  1.00  0.00     0.034 A 
HETATM    5 CL   LIG     1      18.642  39.855  21.663  1.00  0.00    -0.084 Cl
HETATM    6  C   LIG     1      16.831  37.922  22.354  1.00  0.00     0.026 A 
HETATM    7  C   LIG     1      16.234  36.664  22.236  1.00  0.00     0.031 A 
ENDROOT
BRANCH   1   8
HETATM    8  N   LIG     1      16.060  34.457  21.178  1.00  0.00    -0.328 N 
HETATM    9  C   LIG     1      15.632  33.847  19.952  1.00  0.00     0.218 C 
HETATM   10  C   LIG     1      15.190  32.419  19.949  1.00  0.00     0.117 C 
HETATM   11  O   LIG     1      15.587  34.511  18.881  1.00  0.00    -0.274 OA
HETATM   12  H   LIG     1      15.831  33.963  22.070  1.00  0.00     0.169 HD
ENDBRANCH   1   8
TORSDOF 1
ENDMDL
MODEL 4
REMARK VINA RESULT:      -5.7      3.202      4.129
REMARK  1 active torsions:
REMARK  status: ('A' for Active; 'I' for Inactive)
REMARK       I    between atoms: C_2  and  N_3 
REMARK    1  A    between atoms: N_3  and  C_4 
ROOT
HETATM    1  C   LIG     1      17.390  37.323  22.620  1.00  0.00     0.034 A 
HETATM    2  C   LIG     1      17.167  35.937  22.510  1.00  0.00     0.031 A 
HETATM    3  C   LIG     1      17.115  35.138  23.656  1.00  0.00     0.026 A 
HETATM    4  C   LIG     1      17.269  35.713  24.921  1.00  0.00     0.034 A 
HETATM    5 CL   LIG     1      17.201  34.708  26.357  1.00  0.00    -0.084 Cl
HETATM    6  C   LIG     1      17.468  37.092  25.040  1.00  0.00     0.026 A 
HETATM    7  C   LIG     1      17.519  37.894  23.896  1.00  0.00     0.031 A 
ENDROOT
BRANCH   1   8
HETATM    8  N   LIG     1      17.424  38.173  21.460  1.00  0.00    -0.328 N 
HETATM    9  C   LIG     1      18.577  38.913  21.036  1.00  0.00     0.218 C 
HETATM   10  C   LIG     1      18.569  39.603  19.710  1.00  0.00     0.117 C 
HETATM   11  O   LIG     1      19.587  39.019  21.783  1.00  0.00    -0.274 OA
HETATM   12  H   LIG     1      16.530  38.331  20.941  1.00  0.00     0.169 HD
ENDBRANCH   1   8
TORSDOF 1
ENDMDL
MODEL 5
REMARK VINA RESULT:      -5.7      1.813      1.929
REMARK  1 active torsions:
REMARK  status: ('A' for Active; 'I' for Inactive)
REMARK       I    between atoms: C_2  and  N_3 
REMARK    1  A    between atoms: N_3  and  C_4 
ROOT
HETATM    1  C   LIG     1      16.542  35.917  22.991  1.00  0.00     0.034 A 
HETATM    2  C   LIG     1      16.967  34.866  23.825  1.00  0.00     0.031 A 
HETATM    3  C   LIG     1      17.621  35.142  25.030  1.00  0.00     0.026 A 
HETATM    4  C   LIG     1      17.845  36.465  25.421  1.00  0.00     0.034 A 
HETATM    5 CL   LIG     1      18.664  36.809  26.933  1.00  0.00    -0.084 Cl
HETATM    6  C   LIG     1      17.406  37.515  24.608  1.00  0.00     0.026 A 
HETATM    7  C   LIG     1      16.750  37.243  23.404  1.00  0.00     0.031 A 
ENDROOT
BRANCH   1   8
HETATM    8  N   LIG     1      15.845  35.664  21.759  1.00  0.00    -0.328 N 
HETATM    9  C   LIG     1      16.485  35.542  20.480  1.00  0.00     0.218 C 
HETATM   10  C   LIG     1      15.698  35.079  19.298  1.00  0.00     0.117 C 
HETATM   11  O   LIG     1      17.697  35.857  20.332  1.00  0.00    -0.274 OA
HETATM   12  H   LIG     1      14.800  35.651  21.780  1.00  0.00     0.169 HD
ENDBRANCH   1   8
TORSDOF 1
ENDMDL
MODEL 6
REMARK VINA RESULT:      -5.5      1.983      2.545
REMARK  1 active torsions:
REMARK  status: ('A' for Active; 'I' for Inactive)
REMARK       I    between atoms: C_2  and  N_3 
REMARK    1  A    between atoms: N_3  and  C_4 
ROOT
HETATM    1  C   LIG     1      15.761  35.309  20.098  1.00  0.00     0.034 A 
HETATM    2  C   LIG     1      17.084  35.785  20.186  1.00  0.00     0.031 A 
HETATM    3  C   LIG     1      17.464  36.618  21.243  1.00  0.00     0.026 A 
HETATM    4  C   LIG     1      16.537  36.975  22.226  1.00  0.00     0.034 A 
HETATM    5 CL   LIG     1      17.017  38.020  23.550  1.00  0.00    -0.084 Cl
HETATM    6  C   LIG     1      15.227  36.488  22.157  1.00  0.00     0.026 A 
HETATM    7  C   LIG     1      14.844  35.653  21.104  1.00  0.00     0.031 A 
ENDROOT
BRANCH   1   8
HETATM    8  N   LIG     1      15.348  34.430  19.037  1.00  0.00    -0.328 N 
HETATM    9  C   LIG     1      15.313  33.000  19.143  1.00  0.00     0.218 C 
HETATM   10  C   LIG     1      14.679  32.191  18.058  1.00  0.00     0.117 C 
HETATM   11  O   LIG     1      15.845  32.412  20.124  1.00  0.00    -0.274 OA
HETATM   12  H   LIG     1      15.142  34.851  18.103  1.00  0.00     0.169 HD
ENDBRANCH   1   8
TORSDOF 1
ENDMDL
MODEL 7
REMARK VINA RESULT:      -5.4      4.211      5.474
REMARK  1 active torsions:
REMARK  status: ('A' for Active; 'I' for Inactive)
REMARK       I    between atoms: C_2  and  N_3 
REMARK    1  A    between atoms: N_3  and  C_4 
ROOT
HETATM    1  C   LIG     1      17.888  37.843  21.543  1.00  0.00     0.034 A 
HETATM    2  C   LIG     1      18.180  36.902  20.538  1.00  0.00     0.031 A 
HETATM    3  C   LIG     1      18.737  37.317  19.324  1.00  0.00     0.026 A 
HETATM    4  C   LIG     1      19.021  38.668  19.106  1.00  0.00     0.034 A 
HETATM    5 CL   LIG     1      19.721  39.184  17.583  1.00  0.00    -0.084 Cl
HETATM    6  C   LIG     1      18.755  39.606  20.109  1.00  0.00     0.026 A 
HETATM    7  C   LIG     1      18.200  39.194  21.324  1.00  0.00     0.031 A 
ENDROOT
BRANCH   1   8
HETATM    8  N   LIG     1      17.339  37.443  22.811  1.00  0.00    -0.328 N 
HETATM    9  C   LIG     1      17.870  37.843  24.082  1.00  0.00     0.218 C 
HETATM   10  C   LIG     1      17.110  37.540  25.332  1.00  0.00     0.117 C 
HETATM   11  O   LIG     1      18.991  38.415  24.163  1.00  0.00    -0.274 OA
HETATM   12  H   LIG     1      16.557  36.750  22.810  1.00  0.00     0.169 HD
ENDBRANCH   1   8
TORSDOF 1
ENDMDL
MODEL 8
REMARK VINA RESULT:      -5.4      8.821     10.282
REMARK  1 active torsions:
REMARK  status: ('A' for Active; 'I' for Inactive)
REMARK       I    between atoms: C_2  and  N_3 
REMARK    1  A    between atoms: N_3  and  C_4 
ROOT
HETATM    1  C   LIG     1      13.273  29.835  14.602  1.00  0.00     0.034 A 
HETATM    2  C   LIG     1      14.526  30.267  14.127  1.00  0.00     0.031 A 
HETATM    3  C   LIG     1      15.268  31.208  14.849  1.00  0.00     0.026 A 
HETATM    4  C   LIG     1      14.775  31.717  16.054  1.00  0.00     0.034 A 
HETATM    5 CL   LIG     1      15.708  32.895  16.957  1.00  0.00    -0.084 Cl
HETATM    6  C   LIG     1      13.542  31.276  16.543  1.00  0.00     0.026 A 
HETATM    7  C   LIG     1      12.799  30.334  15.826  1.00  0.00     0.031 A 
ENDROOT
BRANCH   1   8
HETATM    8  N   LIG     1      12.500  28.850  13.895  1.00  0.00    -0.328 N 
HETATM    9  C   LIG     1      12.982  27.544  13.548  1.00  0.00     0.218 C 
HETATM   10  C   LIG     1      12.037  26.527  12.995  1.00  0.00     0.117 C 
HETATM   11  O   LIG     1      14.203  27.253  13.669  1.00  0.00    -0.274 OA
HETATM   12  H   LIG     1      11.559  29.130  13.535  1.00  0.00     0.169 HD
ENDBRANCH   1   8
TORSDOF 1
ENDMDL
MODEL 9
REMARK VINA RESULT:      -5.3      8.416      9.830
REMARK  1 active torsions:
REMARK  status: ('A' for Active; 'I' for Inactive)
REMARK       I    between atoms: C_2  and  N_3 
REMARK    1  A    between atoms: N_3  and  C_4 
ROOT
HETATM    1  C   LIG     1      16.742  32.491  13.681  1.00  0.00     0.034 A 
HETATM    2  C   LIG     1      16.791  33.054  14.971  1.00  0.00     0.031 A 
HETATM    3  C   LIG     1      15.902  32.624  15.962  1.00  0.00     0.026 A 
HETATM    4  C   LIG     1      14.968  31.622  15.682  1.00  0.00     0.034 A 
HETATM    5 CL   LIG     1      13.856  31.085  16.927  1.00  0.00    -0.084 Cl
HETATM    6  C   LIG     1      14.929  31.042  14.410  1.00  0.00     0.026 A 
HETATM    7  C   LIG     1      15.817  31.468  13.418  1.00  0.00     0.031 A 
ENDROOT
BRANCH   1   8
HETATM    8  N   LIG     1      17.660  32.895  12.650  1.00  0.00    -0.328 N 
HETATM    9  C   LIG     1      17.902  34.258  12.274  1.00  0.00     0.218 C 
HETATM   10  C   LIG     1      19.019  34.582  11.336  1.00  0.00     0.117 C 
HETATM   11  O   LIG     1      17.159  35.186  12.697  1.00  0.00    -0.274 OA
HETATM   12  H   LIG     1      18.117  32.147  12.080  1.00  0.00     0.169 HD
ENDBRANCH   1   8
TORSDOF 1
ENDMDL
MODEL 10
REMARK VINA RESULT:      -5.3      4.234      6.762
REMARK  1 active torsions:
REMARK  status: ('A' for Active; 'I' for Inactive)
REMARK       I    between atoms: C_2  and  N_3 
REMARK    1  A    between atoms: N_3  and  C_4 
ROOT
HETATM    1  C   LIG     1      15.438  33.540  19.034  1.00  0.00     0.034 A 
HETATM    2  C   LIG     1      15.110  34.020  17.752  1.00  0.00     0.031 A 
HETATM    3  C   LIG     1      14.432  33.200  16.844  1.00  0.00     0.026 A 
HETATM    4  C   LIG     1      14.064  31.902  17.209  1.00  0.00     0.034 A 
HETATM    5 CL   LIG     1      13.212  30.876  16.070  1.00  0.00    -0.084 Cl
HETATM    6  C   LIG     1      14.366  31.426  18.490  1.00  0.00     0.026 A 
HETATM    7  C   LIG     1      15.041  32.244  19.400  1.00  0.00     0.031 A 
ENDROOT
BRANCH   1   8
HETATM    8  N   LIG     1      16.112  34.370  19.997  1.00  0.00    -0.328 N 
HETATM    9  C   LIG     1      15.652  34.584  21.339  1.00  0.00     0.218 C 
HETATM   10  C   LIG     1      16.527  35.297  22.318  1.00  0.00     0.117 C 
HETATM   11  O   LIG     1      14.501  34.212  21.694  1.00  0.00    -0.274 OA
HETATM   12  H   LIG     1      16.941  34.919  19.676  1.00  0.00     0.169 HD
ENDBRANCH   1   8
TORSDOF 1
ENDMDL
MODEL 11
REMARK VINA RESULT:      -5.2      3.315      4.823
REMARK  1 active torsions:
REMARK  status: ('A' for Active; 'I' for Inactive)
REMARK       I    between atoms: C_2  and  N_3 
REMARK    1  A    between atoms: N_3  and  C_4 
ROOT
HETATM    1  C   LIG     1      16.620  36.520  22.560  1.00  0.00     0.034 A 
HETATM    2  C   LIG     1      15.301  36.084  22.330  1.00  0.00     0.031 A 
HETATM    3  C   LIG     1      14.942  35.542  21.092  1.00  0.00     0.026 A 
HETATM    4  C   LIG     1      15.895  35.417  20.077  1.00  0.00     0.034 A 
HETATM    5 CL   LIG     1      15.443  34.736  18.526  1.00  0.00    -0.084 Cl
HETATM    6  C   LIG     1      17.213  35.826  20.305  1.00  0.00     0.026 A 
HETATM    7  C   LIG     1      17.575  36.366  21.542  1.00  0.00     0.031 A 
ENDROOT
BRANCH   1   8
HETATM    8  N   LIG     1      17.024  37.057  23.831  1.00  0.00    -0.328 N 
HETATM    9  C   LIG     1      17.472  36.261  24.937  1.00  0.00     0.218 C 
HETATM   10  C   LIG     1      18.059  36.926  26.140  1.00  0.00     0.117 C 
HETATM   11  O   LIG     1      17.343  35.007  24.924  1.00  0.00    -0.274 OA
HETATM   12  H   LIG     1      16.903  38.083  23.990  1.00  0.00     0.169 HD
ENDBRANCH   1   8
TORSDOF 1
ENDMDL
MODEL 12
REMARK VINA RESULT:      -5.2      8.359      9.778
REMARK  1 active torsions:
REMARK  status: ('A' for Active; 'I' for Inactive)
REMARK       I    between atoms: C_2  and  N_3 
REMARK    1  A    between atoms: N_3  and  C_4 
ROOT
HETATM    1  C   LIG     1      16.772  32.479  13.679  1.00  0.00     0.034 A 
HETATM    2  C   LIG     1      15.799  31.487  13.460  1.00  0.00     0.031 A 
HETATM    3  C   LIG     1      14.925  31.117  14.488  1.00  0.00     0.026 A 
HETATM    4  C   LIG     1      15.005  31.740  15.737  1.00  0.00     0.034 A 
HETATM    5 CL   LIG     1      13.907  31.274  17.023  1.00  0.00    -0.084 Cl
HETATM    6  C   LIG     1      15.954  32.743  15.955  1.00  0.00     0.026 A 
HETATM    7  C   LIG     1      16.827  33.117  14.929  1.00  0.00     0.031 A 
ENDROOT
BRANCH   1   8
HETATM    8  N   LIG     1      17.667  32.898  12.634  1.00  0.00    -0.328 N 
HETATM    9  C   LIG     1      17.895  34.267  12.269  1.00  0.00     0.218 C 
HETATM   10  C   LIG     1      18.991  34.606  11.311  1.00  0.00     0.117 C 
HETATM   11  O   LIG     1      17.158  35.187  12.717  1.00  0.00    -0.274 OA
HETATM   12  H   LIG     1      18.115  32.159  12.046  1.00  0.00     0.169 HD
ENDBRANCH   1   8
TORSDOF 1
ENDMDL
MODEL 13
REMARK VINA RESULT:      -5.1      4.513      5.699
REMARK  1 active torsions:
REMARK  status: ('A' for Active; 'I' for Inactive)
REMARK       I    between atoms: C_2  and  N_3 
REMARK    1  A    between atoms: N_3  and  C_4 
ROOT
HETATM    1  C   LIG     1      15.142  32.952  17.671  1.00  0.00     0.034 A 
HETATM    2  C   LIG     1      15.141  32.120  18.807  1.00  0.00     0.031 A 
HETATM    3  C   LIG     1      15.364  32.661  20.077  1.00  0.00     0.026 A 
HETATM    4  C   LIG     1      15.577  34.034  20.229  1.00  0.00     0.034 A 
HETATM    5 CL   LIG     1      15.855  34.709  21.823  1.00  0.00    -0.084 Cl
HETATM    6  C   LIG     1      15.557  34.870  19.108  1.00  0.00     0.026 A 
HETATM    7  C   LIG     1      15.332  34.333  17.837  1.00  0.00     0.031 A 
ENDROOT
BRANCH   1   8
HETATM    8  N   LIG     1      14.890  32.428  16.356  1.00  0.00    -0.328 N 
HETATM    9  C   LIG     1      15.916  32.099  15.408  1.00  0.00     0.218 C 
HETATM   10  C   LIG     1      15.559  31.374  14.151  1.00  0.00     0.117 C 
HETATM   11  O   LIG     1      17.112  32.447  15.605  1.00  0.00    -0.274 OA
HETATM   12  H   LIG     1      13.897  32.362  16.036  1.00  0.00     0.169 HD
ENDBRANCH   1   8
TORSDOF 1
ENDMDL
MODEL 14
REMARK VINA RESULT:      -5.1      3.732      4.689
REMARK  1 active torsions:
REMARK  status: ('A' for Active; 'I' for Inactive)
REMARK       I    between atoms: C_2  and  N_3 
REMARK    1  A    between atoms: N_3  and  C_4 
ROOT
HETATM    1  C   LIG     1      17.984  37.542  21.345  1.00  0.00     0.034 A 
HETATM    2  C   LIG     1      18.236  36.725  20.226  1.00  0.00     0.031 A 
HETATM    3  C   LIG     1      18.694  37.288  19.031  1.00  0.00     0.026 A 
HETATM    4  C   LIG     1      18.917  38.665  18.942  1.00  0.00     0.034 A 
HETATM    5 CL   LIG     1      19.491  39.367  17.441  1.00  0.00    -0.084 Cl
HETATM    6  C   LIG     1      18.690  39.480  20.056  1.00  0.00     0.026 A 
HETATM    7  C   LIG     1      18.235  38.920  21.253  1.00  0.00     0.031 A 
ENDROOT
BRANCH   1   8
HETATM    8  N   LIG     1      17.538  36.988  22.595  1.00  0.00    -0.328 N 
HETATM    9  C   LIG     1      17.138  35.622  22.774  1.00  0.00     0.218 C 
HETATM   10  C   LIG     1      16.886  35.098  24.151  1.00  0.00     0.117 C 
HETATM   11  O   LIG     1      16.959  34.865  21.782  1.00  0.00    -0.274 OA
HETATM   12  H   LIG     1      17.416  37.638  23.404  1.00  0.00     0.169 HD
ENDBRANCH   1   8
TORSDOF 1
ENDMDL
MODEL 15
REMARK VINA RESULT:      -5.0      3.145      3.772
REMARK  1 active torsions:
REMARK  status: ('A' for Active; 'I' for Inactive)
REMARK       I    between atoms: C_2  and  N_3 
REMARK    1  A    between atoms: N_3  and  C_4 
ROOT
HETATM    1  C   LIG     1      17.328  36.653  21.058  1.00  0.00     0.034 A 
HETATM    2  C   LIG     1      17.566  37.937  21.585  1.00  0.00     0.031 A 
HETATM    3  C   LIG     1      18.578  38.742  21.052  1.00  0.00     0.026 A 
HETATM    4  C   LIG     1      19.352  38.282  19.983  1.00  0.00     0.034 A 
HETATM    5 CL   LIG     1      20.619  39.295  19.317  1.00  0.00    -0.084 Cl
HETATM    6  C   LIG     1      19.106  37.018  19.439  1.00  0.00     0.026 A 
HETATM    7  C   LIG     1      18.094  36.212  19.967  1.00  0.00     0.031 A 
ENDROOT
BRANCH   1   8
HETATM    8  N   LIG     1      16.278  35.814  21.568  1.00  0.00    -0.328 N 
HETATM    9  C   LIG     1      15.588  34.823  20.792  1.00  0.00     0.218 C 
HETATM   10  C   LIG     1      14.658  33.868  21.467  1.00  0.00     0.117 C 
HETATM   11  O   LIG     1      15.729  34.770  19.540  1.00  0.00    -0.274 OA
HETATM   12  H   LIG     1      15.935  35.993  22.539  1.00  0.00     0.169 HD
ENDBRANCH   1   8
TORSDOF 1
ENDMDL
MODEL 16
REMARK VINA RESULT:      -4.9      3.338      4.364
REMARK  1 active torsions:
REMARK  status: ('A' for Active; 'I' for Inactive)
REMARK       I    between atoms: C_2  and  N_3 
REMARK    1  A    between atoms: N_3  and  C_4 
ROOT
HETATM    1  C   LIG     1      17.632  37.427  23.661  1.00  0.00     0.034 A 
HETATM    2  C   LIG     1      18.424  38.591  23.621  1.00  0.00     0.031 A 
HETATM    3  C   LIG     1      18.734  39.191  22.396  1.00  0.00     0.026 A 
HETATM    4  C   LIG     1      18.248  38.646  21.204  1.00  0.00     0.034 A 
HETATM    5 CL   LIG     1      18.637  39.402  19.670  1.00  0.00    -0.084 Cl
HETATM    6  C   LIG     1      17.442  37.504  21.238  1.00  0.00     0.026 A 
HETATM    7  C   LIG     1      17.129  36.903  22.460  1.00  0.00     0.031 A 
ENDROOT
BRANCH   1   8
HETATM    8  N   LIG     1      17.276  36.804  24.907  1.00  0.00    -0.328 N 
HETATM    9  C   LIG     1      17.329  35.390  25.145  1.00  0.00     0.218 C 
HETATM   10  C   LIG     1      17.134  34.863  26.530  1.00  0.00     0.117 C 
HETATM   11  O   LIG     1      17.502  34.581  24.194  1.00  0.00    -0.274 OA
HETATM   12  H   LIG     1      16.873  37.407  25.660  1.00  0.00     0.169 HD
ENDBRANCH   1   8
TORSDOF 1
ENDMDL
MODEL 17
REMARK VINA RESULT:      -4.8      3.760      4.947
REMARK  1 active torsions:
REMARK  status: ('A' for Active; 'I' for Inactive)
REMARK       I    between atoms: C_2  and  N_3 
REMARK    1  A    between atoms: N_3  and  C_4 
ROOT
HETATM    1  C   LIG     1      17.350  36.456  20.822  1.00  0.00     0.034 A 
HETATM    2  C   LIG     1      16.670  35.892  19.726  1.00  0.00     0.031 A 
HETATM    3  C   LIG     1      15.756  34.852  19.922  1.00  0.00     0.026 A 
HETATM    4  C   LIG     1      15.502  34.373  21.211  1.00  0.00     0.034 A 
HETATM    5 CL   LIG     1      14.355  33.069  21.454  1.00  0.00    -0.084 Cl
HETATM    6  C   LIG     1      16.157  34.944  22.307  1.00  0.00     0.026 A 
HETATM    7  C   LIG     1      17.070  35.985  22.114  1.00  0.00     0.031 A 
ENDROOT
BRANCH   1   8
HETATM    8  N   LIG     1      18.276  37.543  20.653  1.00  0.00    -0.328 N 
HETATM    9  C   LIG     1      19.438  37.491  19.813  1.00  0.00     0.218 C 
HETATM   10  C   LIG     1      20.220  38.737  19.549  1.00  0.00     0.117 C 
HETATM   11  O   LIG     1      19.832  36.397  19.323  1.00  0.00    -0.274 OA
HETATM   12  H   LIG     1      18.143  38.397  21.242  1.00  0.00     0.169 HD
ENDBRANCH   1   8
TORSDOF 1
ENDMDL
MODEL 18
REMARK VINA RESULT:      -4.5      7.194      9.938
REMARK  1 active torsions:
REMARK  status: ('A' for Active; 'I' for Inactive)
REMARK       I    between atoms: C_2  and  N_3 
REMARK    1  A    between atoms: N_3  and  C_4 
ROOT
HETATM    1  C   LIG     1      14.658  31.468  15.438  1.00  0.00     0.034 A 
HETATM    2  C   LIG     1      15.666  30.859  14.665  1.00  0.00     0.031 A 
HETATM    3  C   LIG     1      15.438  29.619  14.061  1.00  0.00     0.026 A 
HETATM    4  C   LIG     1      14.204  28.980  14.210  1.00  0.00     0.034 A 
HETATM    5 CL   LIG     1      13.921  27.425  13.450  1.00  0.00    -0.084 Cl
HETATM    6  C   LIG     1      13.190  29.589  14.957  1.00  0.00     0.026 A 
HETATM    7  C   LIG     1      13.414  30.830  15.561  1.00  0.00     0.031 A 
ENDROOT
BRANCH   1   8
HETATM    8  N   LIG     1      14.855  32.754  16.049  1.00  0.00    -0.328 N 
HETATM    9  C   LIG     1      14.968  32.967  17.464  1.00  0.00     0.218 C 
HETATM   10  C   LIG     1      15.372  34.309  17.983  1.00  0.00     0.117 C 
HETATM   11  O   LIG     1      14.695  32.044  18.279  1.00  0.00    -0.274 OA
HETATM   12  H   LIG     1      14.829  33.599  15.434  1.00  0.00     0.169 HD
ENDBRANCH   1   8
TORSDOF 1
ENDMDL
MODEL 19
REMARK VINA RESULT:      -4.5      3.344      4.629
REMARK  1 active torsions:
REMARK  status: ('A' for Active; 'I' for Inactive)
REMARK       I    between atoms: C_2  and  N_3 
REMARK    1  A    between atoms: N_3  and  C_4 
ROOT
HETATM    1  C   LIG     1      17.380  37.007  23.186  1.00  0.00     0.034 A 
HETATM    2  C   LIG     1      17.098  35.901  22.362  1.00  0.00     0.031 A 
HETATM    3  C   LIG     1      17.386  35.949  20.994  1.00  0.00     0.026 A 
HETATM    4  C   LIG     1      17.969  37.091  20.438  1.00  0.00     0.034 A 
HETATM    5 CL   LIG     1      18.330  37.148  18.723  1.00  0.00    -0.084 Cl
HETATM    6  C   LIG     1      18.273  38.185  21.255  1.00  0.00     0.026 A 
HETATM    7  C   LIG     1      17.988  38.140  22.622  1.00  0.00     0.031 A 
ENDROOT
BRANCH   1   8
HETATM    8  N   LIG     1      17.118  36.976  24.600  1.00  0.00    -0.328 N 
HETATM    9  C   LIG     1      17.521  35.911  25.472  1.00  0.00     0.218 C 
HETATM   10  C   LIG     1      17.380  36.069  26.951  1.00  0.00     0.117 C 
HETATM   11  O   LIG     1      17.959  34.824  25.004  1.00  0.00    -0.274 OA
HETATM   12  H   LIG     1      16.524  37.735  25.005  1.00  0.00     0.169 HD
ENDBRANCH   1   8
TORSDOF 1
ENDMDL
MODEL 20
REMARK VINA RESULT:      -4.0     16.934     17.525
REMARK  1 active torsions:
REMARK  status: ('A' for Active; 'I' for Inactive)
REMARK       I    between atoms: C_2  and  N_3 
REMARK    1  A    between atoms: N_3  and  C_4 
ROOT
HETATM    1  C   LIG     1      27.197  29.798  34.632  1.00  0.00     0.034 A 
HETATM    2  C   LIG     1      26.026  30.308  35.223  1.00  0.00     0.031 A 
HETATM    3  C   LIG     1      26.108  31.200  36.298  1.00  0.00     0.026 A 
HETATM    4  C   LIG     1      27.356  31.602  36.783  1.00  0.00     0.034 A 
HETATM    5 CL   LIG     1      27.456  32.721  38.129  1.00  0.00    -0.084 Cl
HETATM    6  C   LIG     1      28.524  31.118  36.185  1.00  0.00     0.026 A 
HETATM    7  C   LIG     1      28.445  30.228  35.110  1.00  0.00     0.031 A 
ENDROOT
BRANCH   1   8
HETATM    8  N   LIG     1      27.143  28.900  33.510  1.00  0.00    -0.328 N 
HETATM    9  C   LIG     1      26.740  27.526  33.595  1.00  0.00     0.218 C 
HETATM   10  C   LIG     1      26.524  26.737  32.345  1.00  0.00     0.117 C 
HETATM   11  O   LIG     1      26.602  26.962  34.715  1.00  0.00    -0.274 OA
HETATM   12  H   LIG     1      27.500  29.244  32.589  1.00  0.00     0.169 HD
ENDBRANCH   1   8
TORSDOF 1
ENDMDL
