REMARK  5 active torsions:
REMARK  status: ('A' for Active; 'I' for Inactive)
REMARK    1  A    between atoms: C_2  and  C_3 
REMARK    2  A    between atoms: C_3  and  C_4 
REMARK    3  A    between atoms: C_4  and  C_5 
REMARK    4  A    between atoms: C_5  and  O_6 
REMARK    5  A    between atoms: O_6  and  C_7 
ROOT
HETATM    1  C   LIG     1      -0.947  -0.326  -0.660  1.00  0.00     0.258 C 
HETATM    2  O   LIG     1      -1.446  -0.380  -1.817  1.00  0.00    -0.265 OA
ENDROOT
BRANCH   1   3
HETATM    3  C   LIG     1       0.405  -0.917  -0.405  1.00  0.00     0.111 C 
BRANCH   3   4
HETATM    4  C   LIG     1       1.398   0.167   0.023  1.00  0.00     0.009 C 
BRANCH   4   5
HETATM    5  C   LIG     1       2.788  -0.429   0.274  1.00  0.00    -0.004 C 
HETATM    6  C   LIG     1       3.780   0.648   0.703  1.00  0.00     0.005 C 
ENDBRANCH   4   5
ENDBRANCH   3   4
ENDBRANCH   1   3
BRANCH   1   7
HETATM    7  O   LIG     1      -1.643   0.280   0.392  1.00  0.00    -0.322 OA
BRANCH   7   8
HETATM    8  C   LIG     1      -2.952   0.830   0.255  1.00  0.00     0.174 C 
HETATM    9  C   LIG     1      -3.999  -0.277   0.211  1.00  0.00     0.034 C 
ENDBRANCH   7   8
ENDBRANCH   1   7
TORSDOF 5
