REMARK  1 active torsions:
REMARK  status: ('A' for Active; 'I' for Inactive)
REMARK       I    between atoms: C_2  and  N_3 
REMARK    1  A    between atoms: N_3  and  C_4 
ROOT
HETATM    1  C   LIG     1       0.328   0.214   0.171  1.00  0.00     0.034 A 
HETATM    2  C   LIG     1       0.688  -1.147   0.164  1.00  0.00     0.031 A 
HETATM    3  C   LIG     1       2.035  -1.520   0.111  1.00  0.00     0.026 A 
HETATM    4  C   LIG     1       3.034  -0.543   0.078  1.00  0.00     0.034 A 
HETATM    5 CL   LIG     1       4.722  -1.014   0.013  1.00  0.00    -0.084 Cl
HETATM    6  C   LIG     1       2.685   0.811   0.108  1.00  0.00     0.026 A 
HETATM    7  C   LIG     1       1.340   1.187   0.163  1.00  0.00     0.031 A 
ENDROOT
BRANCH   1   8
HETATM    8  N   LIG     1      -1.047   0.627   0.251  1.00  0.00    -0.328 N 
HETATM    9  C   LIG     1      -2.137  -0.074  -0.365  1.00  0.00     0.218 C 
HETATM   10  C   LIG     1      -3.544   0.322  -0.054  1.00  0.00     0.117 C 
HETATM   11  O   LIG     1      -1.923  -0.998  -1.196  1.00  0.00    -0.274 OA
HETATM   12  H   LIG     1      -1.259   1.540   0.714  1.00  0.00     0.169 HD
ENDBRANCH   1   8
TORSDOF 1
