MODEL 1
REMARK VINA RESULT:      -5.5      0.000      0.000
REMARK  5 active torsions:
REMARK  status: ('A' for Active; 'I' for Inactive)
REMARK    1  A    between atoms: C_2  and  C_3 
REMARK    2  A    between atoms: C_3  and  C_4 
REMARK    3  A    between atoms: C_4  and  C_5 
REMARK    4  A    between atoms: C_5  and  O_6 
REMARK    5  A    between atoms: O_6  and  C_7 
ROOT
HETATM    1  C   LIG     1      16.737  37.842  24.045  1.00  0.00     0.258 C 
HETATM    2  O   LIG     1      15.499  38.027  23.884  1.00  0.00    -0.265 OA
ENDROOT
BRANCH   1   3
HETATM    3  C   LIG     1      17.355  38.074  25.388  1.00  0.00     0.111 C 
BRANCH   3   4
HETATM    4  C   LIG     1      18.542  37.132  25.609  1.00  0.00     0.009 C 
BRANCH   4   5
HETATM    5  C   LIG     1      18.230  36.102  26.700  1.00  0.00    -0.004 C 
HETATM    6  C   LIG     1      17.710  34.801  26.097  1.00  0.00     0.005 C 
ENDBRANCH   4   5
ENDBRANCH   3   4
ENDBRANCH   1   3
BRANCH   1   7
HETATM    7  O   LIG     1      17.542  37.422  22.980  1.00  0.00    -0.322 OA
BRANCH   7   8
HETATM    8  C   LIG     1      17.066  36.612  21.906  1.00  0.00     0.174 C 
HETATM    9  C   LIG     1      16.981  35.151  22.332  1.00  0.00     0.034 C 
ENDBRANCH   7   8
ENDBRANCH   1   7
TORSDOF 5
ENDMDL
MODEL 2
REMARK VINA RESULT:      -5.5      1.043      1.484
REMARK  5 active torsions:
REMARK  status: ('A' for Active; 'I' for Inactive)
REMARK    1  A    between atoms: C_2  and  C_3 
REMARK    2  A    between atoms: C_3  and  C_4 
REMARK    3  A    between atoms: C_4  and  C_5 
REMARK    4  A    between atoms: C_5  and  O_6 
REMARK    5  A    between atoms: O_6  and  C_7 
ROOT
HETATM    1  C   LIG     1      16.684  37.776  24.058  1.00  0.00     0.258 C 
HETATM    2  O   LIG     1      15.463  38.026  23.861  1.00  0.00    -0.265 OA
ENDROOT
BRANCH   1   3
HETATM    3  C   LIG     1      17.291  38.046  25.400  1.00  0.00     0.111 C 
BRANCH   3   4
HETATM    4  C   LIG     1      18.538  37.183  25.614  1.00  0.00     0.009 C 
BRANCH   4   5
HETATM    5  C   LIG     1      18.301  36.138  26.710  1.00  0.00    -0.004 C 
HETATM    6  C   LIG     1      17.776  34.832  26.122  1.00  0.00     0.005 C 
ENDBRANCH   4   5
ENDBRANCH   3   4
ENDBRANCH   1   3
BRANCH   1   7
HETATM    7  O   LIG     1      17.481  37.249  23.035  1.00  0.00    -0.322 OA
BRANCH   7   8
HETATM    8  C   LIG     1      17.562  37.818  21.730  1.00  0.00     0.174 C 
HETATM    9  C   LIG     1      18.319  39.141  21.766  1.00  0.00     0.034 C 
ENDBRANCH   7   8
ENDBRANCH   1   7
TORSDOF 5
ENDMDL
MODEL 3
REMARK VINA RESULT:      -5.1      2.033      4.132
REMARK  5 active torsions:
REMARK  status: ('A' for Active; 'I' for Inactive)
REMARK    1  A    between atoms: C_2  and  C_3 
REMARK    2  A    between atoms: C_3  and  C_4 
REMARK    3  A    between atoms: C_4  and  C_5 
REMARK    4  A    between atoms: C_5  and  O_6 
REMARK    5  A    between atoms: O_6  and  C_7 
ROOT
HETATM    1  C   LIG     1      17.100  37.954  24.647  1.00  0.00     0.258 C 
HETATM    2  O   LIG     1      15.908  37.924  24.236  1.00  0.00    -0.265 OA
ENDROOT
BRANCH   1   3
HETATM    3  C   LIG     1      18.192  38.411  23.730  1.00  0.00     0.111 C 
BRANCH   3   4
HETATM    4  C   LIG     1      17.715  38.404  22.275  1.00  0.00     0.009 C 
BRANCH   4   5
HETATM    5  C   LIG     1      18.555  39.358  21.417  1.00  0.00    -0.004 C 
HETATM    6  C   LIG     1      18.989  38.691  20.116  1.00  0.00     0.005 C 
ENDBRANCH   4   5
ENDBRANCH   3   4
ENDBRANCH   1   3
BRANCH   1   7
HETATM    7  O   LIG     1      17.416  37.563  25.953  1.00  0.00    -0.322 OA
BRANCH   7   8
HETATM    8  C   LIG     1      18.426  36.604  26.264  1.00  0.00     0.174 C 
HETATM    9  C   LIG     1      17.892  35.186  26.099  1.00  0.00     0.034 C 
ENDBRANCH   7   8
ENDBRANCH   1   7
TORSDOF 5
ENDMDL
MODEL 4
REMARK VINA RESULT:      -4.9      1.676      2.518
REMARK  5 active torsions:
REMARK  status: ('A' for Active; 'I' for Inactive)
REMARK    1  A    between atoms: C_2  and  C_3 
REMARK    2  A    between atoms: C_3  and  C_4 
REMARK    3  A    between atoms: C_4  and  C_5 
REMARK    4  A    between atoms: C_5  and  O_6 
REMARK    5  A    between atoms: O_6  and  C_7 
ROOT
HETATM    1  C   LIG     1      16.926  36.173  22.899  1.00  0.00     0.258 C 
HETATM    2  O   LIG     1      16.688  35.037  22.406  1.00  0.00    -0.265 OA
ENDROOT
BRANCH   1   3
HETATM    3  C   LIG     1      17.231  36.301  24.359  1.00  0.00     0.111 C 
BRANCH   3   4
HETATM    4  C   LIG     1      17.337  34.921  25.013  1.00  0.00     0.009 C 
BRANCH   4   5
HETATM    5  C   LIG     1      18.184  34.981  26.290  1.00  0.00    -0.004 C 
HETATM    6  C   LIG     1      18.487  36.424  26.683  1.00  0.00     0.005 C 
ENDBRANCH   4   5
ENDBRANCH   3   4
ENDBRANCH   1   3
BRANCH   1   7
HETATM    7  O   LIG     1      16.908  37.320  22.096  1.00  0.00    -0.322 OA
BRANCH   7   8
HETATM    8  C   LIG     1      17.328  38.605  22.552  1.00  0.00     0.174 C 
HETATM    9  C   LIG     1      18.366  39.198  21.606  1.00  0.00     0.034 C 
ENDBRANCH   7   8
ENDBRANCH   1   7
TORSDOF 5
ENDMDL
MODEL 5
REMARK VINA RESULT:      -4.8      1.313      3.710
REMARK  5 active torsions:
REMARK  status: ('A' for Active; 'I' for Inactive)
REMARK    1  A    between atoms: C_2  and  C_3 
REMARK    2  A    between atoms: C_3  and  C_4 
REMARK    3  A    between atoms: C_4  and  C_5 
REMARK    4  A    between atoms: C_5  and  O_6 
REMARK    5  A    between atoms: O_6  and  C_7 
ROOT
HETATM    1  C   LIG     1      17.621  37.754  24.563  1.00  0.00     0.258 C 
HETATM    2  O   LIG     1      18.659  38.414  24.284  1.00  0.00    -0.265 OA
ENDROOT
BRANCH   1   3
HETATM    3  C   LIG     1      16.618  37.458  23.492  1.00  0.00     0.111 C 
BRANCH   3   4
HETATM    4  C   LIG     1      17.235  37.650  22.104  1.00  0.00     0.009 C 
BRANCH   4   5
HETATM    5  C   LIG     1      17.180  36.350  21.293  1.00  0.00    -0.004 C 
HETATM    6  C   LIG     1      16.942  35.145  22.199  1.00  0.00     0.005 C 
ENDBRANCH   4   5
ENDBRANCH   3   4
ENDBRANCH   1   3
BRANCH   1   7
HETATM    7  O   LIG     1      17.393  37.295  25.866  1.00  0.00    -0.322 OA
BRANCH   7   8
HETATM    8  C   LIG     1      18.285  36.425  26.560  1.00  0.00     0.174 C 
HETATM    9  C   LIG     1      18.028  34.973  26.177  1.00  0.00     0.034 C 
ENDBRANCH   7   8
ENDBRANCH   1   7
TORSDOF 5
ENDMDL
MODEL 6
REMARK VINA RESULT:      -4.8      1.189      3.854
REMARK  5 active torsions:
REMARK  status: ('A' for Active; 'I' for Inactive)
REMARK    1  A    between atoms: C_2  and  C_3 
REMARK    2  A    between atoms: C_3  and  C_4 
REMARK    3  A    between atoms: C_4  and  C_5 
REMARK    4  A    between atoms: C_5  and  O_6 
REMARK    5  A    between atoms: O_6  and  C_7 
ROOT
HETATM    1  C   LIG     1      16.219  37.819  23.196  1.00  0.00     0.258 C 
HETATM    2  O   LIG     1      15.491  38.741  22.735  1.00  0.00    -0.265 OA
ENDROOT
BRANCH   1   3
HETATM    3  C   LIG     1      16.938  36.900  22.257  1.00  0.00     0.111 C 
BRANCH   3   4
HETATM    4  C   LIG     1      16.783  35.443  22.701  1.00  0.00     0.009 C 
BRANCH   4   5
HETATM    5  C   LIG     1      16.264  34.570  21.552  1.00  0.00    -0.004 C 
HETATM    6  C   LIG     1      16.050  35.396  20.287  1.00  0.00     0.005 C 
ENDBRANCH   4   5
ENDBRANCH   3   4
ENDBRANCH   1   3
BRANCH   1   7
HETATM    7  O   LIG     1      16.362  37.643  24.577  1.00  0.00    -0.322 OA
BRANCH   7   8
HETATM    8  C   LIG     1      17.522  38.045  25.304  1.00  0.00     0.174 C 
HETATM    9  C   LIG     1      18.159  36.851  26.004  1.00  0.00     0.034 C 
ENDBRANCH   7   8
ENDBRANCH   1   7
TORSDOF 5
ENDMDL
MODEL 7
REMARK VINA RESULT:      -4.7      2.444      3.846
REMARK  5 active torsions:
REMARK  status: ('A' for Active; 'I' for Inactive)
REMARK    1  A    between atoms: C_2  and  C_3 
REMARK    2  A    between atoms: C_3  and  C_4 
REMARK    3  A    between atoms: C_4  and  C_5 
REMARK    4  A    between atoms: C_5  and  O_6 
REMARK    5  A    between atoms: O_6  and  C_7 
ROOT
HETATM    1  C   LIG     1      16.704  37.873  23.434  1.00  0.00     0.258 C 
HETATM    2  O   LIG     1      16.440  38.140  24.638  1.00  0.00    -0.265 OA
ENDROOT
BRANCH   1   3
HETATM    3  C   LIG     1      17.031  38.982  22.482  1.00  0.00     0.111 C 
BRANCH   3   4
HETATM    4  C   LIG     1      18.526  38.990  22.152  1.00  0.00     0.009 C 
BRANCH   4   5
HETATM    5  C   LIG     1      18.766  39.423  20.701  1.00  0.00    -0.004 C 
HETATM    6  C   LIG     1      19.284  38.263  19.857  1.00  0.00     0.005 C 
ENDBRANCH   4   5
ENDBRANCH   3   4
ENDBRANCH   1   3
BRANCH   1   7
HETATM    7  O   LIG     1      16.695  36.551  22.975  1.00  0.00    -0.322 OA
BRANCH   7   8
HETATM    8  C   LIG     1      15.922  36.111  21.860  1.00  0.00     0.174 C 
HETATM    9  C   LIG     1      16.828  35.621  20.737  1.00  0.00     0.034 C 
ENDBRANCH   7   8
ENDBRANCH   1   7
TORSDOF 5
ENDMDL
MODEL 8
REMARK VINA RESULT:      -4.5      4.147      5.528
REMARK  5 active torsions:
REMARK  status: ('A' for Active; 'I' for Inactive)
REMARK    1  A    between atoms: C_2  and  C_3 
REMARK    2  A    between atoms: C_3  and  C_4 
REMARK    3  A    between atoms: C_4  and  C_5 
REMARK    4  A    between atoms: C_5  and  O_6 
REMARK    5  A    between atoms: O_6  and  C_7 
ROOT
HETATM    1  C   LIG     1      19.595  39.199  19.927  1.00  0.00     0.258 C 
HETATM    2  O   LIG     1      20.782  38.845  19.687  1.00  0.00    -0.265 OA
ENDROOT
BRANCH   1   3
HETATM    3  C   LIG     1      19.080  39.169  21.332  1.00  0.00     0.111 C 
BRANCH   3   4
HETATM    4  C   LIG     1      17.821  38.303  21.429  1.00  0.00     0.009 C 
BRANCH   4   5
HETATM    5  C   LIG     1      16.860  38.847  22.493  1.00  0.00    -0.004 C 
HETATM    6  C   LIG     1      15.802  37.811  22.861  1.00  0.00     0.005 C 
ENDBRANCH   4   5
ENDBRANCH   3   4
ENDBRANCH   1   3
BRANCH   1   7
HETATM    7  O   LIG     1      18.751  39.618  18.893  1.00  0.00    -0.322 OA
BRANCH   7   8
HETATM    8  C   LIG     1      18.796  39.078  17.573  1.00  0.00     0.174 C 
HETATM    9  C   LIG     1      18.467  40.151  16.541  1.00  0.00     0.034 C 
ENDBRANCH   7   8
ENDBRANCH   1   7
TORSDOF 5
ENDMDL
MODEL 9
REMARK VINA RESULT:      -4.5      2.244      3.073
REMARK  5 active torsions:
REMARK  status: ('A' for Active; 'I' for Inactive)
REMARK    1  A    between atoms: C_2  and  C_3 
REMARK    2  A    between atoms: C_3  and  C_4 
REMARK    3  A    between atoms: C_4  and  C_5 
REMARK    4  A    between atoms: C_5  and  O_6 
REMARK    5  A    between atoms: O_6  and  C_7 
ROOT
HETATM    1  C   LIG     1      17.580  37.868  21.768  1.00  0.00     0.258 C 
HETATM    2  O   LIG     1      17.268  36.676  21.500  1.00  0.00    -0.265 OA
ENDROOT
BRANCH   1   3
HETATM    3  C   LIG     1      17.203  38.455  23.093  1.00  0.00     0.111 C 
BRANCH   3   4
HETATM    4  C   LIG     1      16.988  37.352  24.132  1.00  0.00     0.009 C 
BRANCH   4   5
HETATM    5  C   LIG     1      17.489  37.791  25.513  1.00  0.00    -0.004 C 
HETATM    6  C   LIG     1      18.360  36.713  26.152  1.00  0.00     0.005 C 
ENDBRANCH   4   5
ENDBRANCH   3   4
ENDBRANCH   1   3
BRANCH   1   7
HETATM    7  O   LIG     1      18.274  38.652  20.839  1.00  0.00    -0.322 OA
BRANCH   7   8
HETATM    8  C   LIG     1      18.973  38.111  19.720  1.00  0.00     0.174 C 
HETATM    9  C   LIG     1      20.326  38.791  19.551  1.00  0.00     0.034 C 
ENDBRANCH   7   8
ENDBRANCH   1   7
TORSDOF 5
ENDMDL
MODEL 10
REMARK VINA RESULT:      -4.3      3.855      5.141
REMARK  5 active torsions:
REMARK  status: ('A' for Active; 'I' for Inactive)
REMARK    1  A    between atoms: C_2  and  C_3 
REMARK    2  A    between atoms: C_3  and  C_4 
REMARK    3  A    between atoms: C_4  and  C_5 
REMARK    4  A    between atoms: C_5  and  O_6 
REMARK    5  A    between atoms: O_6  and  C_7 
ROOT
HETATM    1  C   LIG     1      16.055  34.732  20.389  1.00  0.00     0.258 C 
HETATM    2  O   LIG     1      16.140  35.230  19.233  1.00  0.00    -0.265 OA
ENDROOT
BRANCH   1   3
HETATM    3  C   LIG     1      16.570  35.498  21.568  1.00  0.00     0.111 C 
BRANCH   3   4
HETATM    4  C   LIG     1      17.532  36.602  21.118  1.00  0.00     0.009 C 
BRANCH   4   5
HETATM    5  C   LIG     1      17.318  37.883  21.933  1.00  0.00    -0.004 C 
HETATM    6  C   LIG     1      18.355  38.943  21.576  1.00  0.00     0.005 C 
ENDBRANCH   4   5
ENDBRANCH   3   4
ENDBRANCH   1   3
BRANCH   1   7
HETATM    7  O   LIG     1      15.486  33.469  20.584  1.00  0.00    -0.322 OA
BRANCH   7   8
HETATM    8  C   LIG     1      15.290  32.523  19.534  1.00  0.00     0.174 C 
HETATM    9  C   LIG     1      14.833  31.182  20.095  1.00  0.00     0.034 C 
ENDBRANCH   7   8
ENDBRANCH   1   7
TORSDOF 5
ENDMDL
MODEL 11
REMARK VINA RESULT:      -4.3      6.193      8.740
REMARK  5 active torsions:
REMARK  status: ('A' for Active; 'I' for Inactive)
REMARK    1  A    between atoms: C_2  and  C_3 
REMARK    2  A    between atoms: C_3  and  C_4 
REMARK    3  A    between atoms: C_4  and  C_5 
REMARK    4  A    between atoms: C_5  and  O_6 
REMARK    5  A    between atoms: O_6  and  C_7 
ROOT
HETATM    1  C   LIG     1      15.133  32.279  19.277  1.00  0.00     0.258 C 
HETATM    2  O   LIG     1      14.497  31.311  19.775  1.00  0.00    -0.265 OA
ENDROOT
BRANCH   1   3
HETATM    3  C   LIG     1      15.005  32.581  17.815  1.00  0.00     0.111 C 
BRANCH   3   4
HETATM    4  C   LIG     1      13.821  31.824  17.208  1.00  0.00     0.009 C 
BRANCH   4   5
HETATM    5  C   LIG     1      14.234  31.094  15.925  1.00  0.00    -0.004 C 
HETATM    6  C   LIG     1      13.070  30.297  15.345  1.00  0.00     0.005 C 
ENDBRANCH   4   5
ENDBRANCH   3   4
ENDBRANCH   1   3
BRANCH   1   7
HETATM    7  O   LIG     1      15.960  33.078  20.074  1.00  0.00    -0.322 OA
BRANCH   7   8
HETATM    8  C   LIG     1      15.594  34.379  20.530  1.00  0.00     0.174 C 
HETATM    9  C   LIG     1      16.581  34.880  21.579  1.00  0.00     0.034 C 
ENDBRANCH   7   8
ENDBRANCH   1   7
TORSDOF 5
ENDMDL
MODEL 12
REMARK VINA RESULT:      -4.3      6.962      9.359
REMARK  5 active torsions:
REMARK  status: ('A' for Active; 'I' for Inactive)
REMARK    1  A    between atoms: C_2  and  C_3 
REMARK    2  A    between atoms: C_3  and  C_4 
REMARK    3  A    between atoms: C_4  and  C_5 
REMARK    4  A    between atoms: C_5  and  O_6 
REMARK    5  A    between atoms: O_6  and  C_7 
ROOT
HETATM    1  C   LIG     1      15.293  33.350  17.438  1.00  0.00     0.258 C 
HETATM    2  O   LIG     1      15.342  34.608  17.371  1.00  0.00    -0.265 OA
ENDROOT
BRANCH   1   3
HETATM    3  C   LIG     1      14.647  32.571  16.333  1.00  0.00     0.111 C 
BRANCH   3   4
HETATM    4  C   LIG     1      13.296  32.010  16.784  1.00  0.00     0.009 C 
BRANCH   4   5
HETATM    5  C   LIG     1      13.116  30.563  16.309  1.00  0.00    -0.004 C 
HETATM    6  C   LIG     1      13.872  30.313  15.008  1.00  0.00     0.005 C 
ENDBRANCH   4   5
ENDBRANCH   3   4
ENDBRANCH   1   3
BRANCH   1   7
HETATM    7  O   LIG     1      15.834  32.669  18.534  1.00  0.00    -0.322 OA
BRANCH   7   8
HETATM    8  C   LIG     1      15.202  32.607  19.811  1.00  0.00     0.174 C 
HETATM    9  C   LIG     1      14.810  31.173  20.149  1.00  0.00     0.034 C 
ENDBRANCH   7   8
ENDBRANCH   1   7
TORSDOF 5
ENDMDL
MODEL 13
REMARK VINA RESULT:      -4.1      5.624      7.329
REMARK  5 active torsions:
REMARK  status: ('A' for Active; 'I' for Inactive)
REMARK    1  A    between atoms: C_2  and  C_3 
REMARK    2  A    between atoms: C_3  and  C_4 
REMARK    3  A    between atoms: C_4  and  C_5 
REMARK    4  A    between atoms: C_5  and  O_6 
REMARK    5  A    between atoms: O_6  and  C_7 
ROOT
HETATM    1  C   LIG     1      15.048  32.214  18.509  1.00  0.00     0.258 C 
HETATM    2  O   LIG     1      14.008  31.524  18.325  1.00  0.00    -0.265 OA
ENDROOT
BRANCH   1   3
HETATM    3  C   LIG     1      15.637  32.320  19.881  1.00  0.00     0.111 C 
BRANCH   3   4
HETATM    4  C   LIG     1      15.096  33.554  20.609  1.00  0.00     0.009 C 
BRANCH   4   5
HETATM    5  C   LIG     1      16.103  34.708  20.557  1.00  0.00    -0.004 C 
HETATM    6  C   LIG     1      16.626  35.046  21.950  1.00  0.00     0.005 C 
ENDBRANCH   4   5
ENDBRANCH   3   4
ENDBRANCH   1   3
BRANCH   1   7
HETATM    7  O   LIG     1      15.659  32.883  17.443  1.00  0.00    -0.322 OA
BRANCH   7   8
HETATM    8  C   LIG     1      15.375  32.606  16.073  1.00  0.00     0.174 C 
HETATM    9  C   LIG     1      16.625  32.775  15.218  1.00  0.00     0.034 C 
ENDBRANCH   7   8
ENDBRANCH   1   7
TORSDOF 5
ENDMDL
MODEL 14
REMARK VINA RESULT:      -4.1      2.967      4.370
REMARK  5 active torsions:
REMARK  status: ('A' for Active; 'I' for Inactive)
REMARK    1  A    between atoms: C_2  and  C_3 
REMARK    2  A    between atoms: C_3  and  C_4 
REMARK    3  A    between atoms: C_4  and  C_5 
REMARK    4  A    between atoms: C_5  and  O_6 
REMARK    5  A    between atoms: O_6  and  C_7 
ROOT
HETATM    1  C   LIG     1      18.585  37.036  19.930  1.00  0.00     0.258 C 
HETATM    2  O   LIG     1      19.574  36.391  19.487  1.00  0.00    -0.265 OA
ENDROOT
BRANCH   1   3
HETATM    3  C   LIG     1      18.676  38.522  20.088  1.00  0.00     0.111 C 
BRANCH   3   4
HETATM    4  C   LIG     1      18.803  38.903  21.565  1.00  0.00     0.009 C 
BRANCH   4   5
HETATM    5  C   LIG     1      17.426  39.164  22.186  1.00  0.00    -0.004 C 
HETATM    6  C   LIG     1      17.285  38.454  23.530  1.00  0.00     0.005 C 
ENDBRANCH   4   5
ENDBRANCH   3   4
ENDBRANCH   1   3
BRANCH   1   7
HETATM    7  O   LIG     1      17.400  36.378  20.279  1.00  0.00    -0.322 OA
BRANCH   7   8
HETATM    8  C   LIG     1      17.293  35.485  21.386  1.00  0.00     0.174 C 
HETATM    9  C   LIG     1      15.971  34.727  21.341  1.00  0.00     0.034 C 
ENDBRANCH   7   8
ENDBRANCH   1   7
TORSDOF 5
ENDMDL
MODEL 15
REMARK VINA RESULT:      -4.1      9.544     11.022
REMARK  5 active torsions:
REMARK  status: ('A' for Active; 'I' for Inactive)
REMARK    1  A    between atoms: C_2  and  C_3 
REMARK    2  A    between atoms: C_3  and  C_4 
REMARK    3  A    between atoms: C_4  and  C_5 
REMARK    4  A    between atoms: C_5  and  O_6 
REMARK    5  A    between atoms: O_6  and  C_7 
ROOT
HETATM    1  C   LIG     1      16.170  32.030  14.009  1.00  0.00     0.258 C 
HETATM    2  O   LIG     1      16.128  33.064  13.287  1.00  0.00    -0.265 OA
ENDROOT
BRANCH   1   3
HETATM    3  C   LIG     1      16.499  32.153  15.465  1.00  0.00     0.111 C 
BRANCH   3   4
HETATM    4  C   LIG     1      15.523  33.105  16.162  1.00  0.00     0.009 C 
BRANCH   4   5
HETATM    5  C   LIG     1      14.843  32.420  17.353  1.00  0.00    -0.004 C 
HETATM    6  C   LIG     1      13.417  32.001  17.006  1.00  0.00     0.005 C 
ENDBRANCH   4   5
ENDBRANCH   3   4
ENDBRANCH   1   3
BRANCH   1   7
HETATM    7  O   LIG     1      15.914  30.767  13.465  1.00  0.00    -0.322 OA
BRANCH   7   8
HETATM    8  C   LIG     1      15.430  29.664  14.230  1.00  0.00     0.174 C 
HETATM    9  C   LIG     1      13.907  29.686  14.303  1.00  0.00     0.034 C 
ENDBRANCH   7   8
ENDBRANCH   1   7
TORSDOF 5
ENDMDL
MODEL 16
REMARK VINA RESULT:      -4.0     10.461     11.586
REMARK  5 active torsions:
REMARK  status: ('A' for Active; 'I' for Inactive)
REMARK    1  A    between atoms: C_2  and  C_3 
REMARK    2  A    between atoms: C_3  and  C_4 
REMARK    3  A    between atoms: C_4  and  C_5 
REMARK    4  A    between atoms: C_5  and  O_6 
REMARK    5  A    between atoms: O_6  and  C_7 
ROOT
HETATM    1  C   LIG     1      17.834  33.668  13.698  1.00  0.00     0.258 C 
HETATM    2  O   LIG     1      17.446  34.865  13.612  1.00  0.00    -0.265 OA
ENDROOT
BRANCH   1   3
HETATM    3  C   LIG     1      17.613  32.905  14.967  1.00  0.00     0.111 C 
BRANCH   3   4
HETATM    4  C   LIG     1      16.130  32.573  15.149  1.00  0.00     0.009 C 
BRANCH   4   5
HETATM    5  C   LIG     1      15.695  31.455  14.194  1.00  0.00    -0.004 C 
HETATM    6  C   LIG     1      14.655  30.548  14.846  1.00  0.00     0.005 C 
ENDBRANCH   4   5
ENDBRANCH   3   4
ENDBRANCH   1   3
BRANCH   1   7
HETATM    7  O   LIG     1      18.472  33.043  12.621  1.00  0.00    -0.322 OA
BRANCH   7   8
HETATM    8  C   LIG     1      19.469  33.677  11.822  1.00  0.00     0.174 C 
HETATM    9  C   LIG     1      20.747  33.890  12.625  1.00  0.00     0.034 C 
ENDBRANCH   7   8
ENDBRANCH   1   7
TORSDOF 5
ENDMDL
MODEL 17
REMARK VINA RESULT:      -4.0      9.076     11.483
REMARK  5 active torsions:
REMARK  status: ('A' for Active; 'I' for Inactive)
REMARK    1  A    between atoms: C_2  and  C_3 
REMARK    2  A    between atoms: C_3  and  C_4 
REMARK    3  A    between atoms: C_4  and  C_5 
REMARK    4  A    between atoms: C_5  and  O_6 
REMARK    5  A    between atoms: O_6  and  C_7 
ROOT
HETATM    1  C   LIG     1      16.248  32.166  14.867  1.00  0.00     0.258 C 
HETATM    2  O   LIG     1      17.441  31.959  15.218  1.00  0.00    -0.265 OA
ENDROOT
BRANCH   1   3
HETATM    3  C   LIG     1      15.666  31.396  13.722  1.00  0.00     0.111 C 
BRANCH   3   4
HETATM    4  C   LIG     1      15.330  29.964  14.148  1.00  0.00     0.009 C 
BRANCH   4   5
HETATM    5  C   LIG     1      13.843  29.828  14.497  1.00  0.00    -0.004 C 
HETATM    6  C   LIG     1      13.284  28.493  14.015  1.00  0.00     0.005 C 
ENDBRANCH   4   5
ENDBRANCH   3   4
ENDBRANCH   1   3
BRANCH   1   7
HETATM    7  O   LIG     1      15.458  33.109  15.534  1.00  0.00    -0.322 OA
BRANCH   7   8
HETATM    8  C   LIG     1      15.145  33.030  16.924  1.00  0.00     0.174 C 
HETATM    9  C   LIG     1      13.899  32.181  17.147  1.00  0.00     0.034 C 
ENDBRANCH   7   8
ENDBRANCH   1   7
TORSDOF 5
ENDMDL
MODEL 18
REMARK VINA RESULT:      -4.0     10.176     11.518
REMARK  5 active torsions:
REMARK  status: ('A' for Active; 'I' for Inactive)
REMARK    1  A    between atoms: C_2  and  C_3 
REMARK    2  A    between atoms: C_3  and  C_4 
REMARK    3  A    between atoms: C_4  and  C_5 
REMARK    4  A    between atoms: C_5  and  O_6 
REMARK    5  A    between atoms: O_6  and  C_7 
ROOT
HETATM    1  C   LIG     1      16.671  32.369  15.184  1.00  0.00     0.258 C 
HETATM    2  O   LIG     1      16.311  32.653  16.359  1.00  0.00    -0.265 OA
ENDROOT
BRANCH   1   3
HETATM    3  C   LIG     1      15.752  31.594  14.292  1.00  0.00     0.111 C 
BRANCH   3   4
HETATM    4  C   LIG     1      14.673  30.882  15.113  1.00  0.00     0.009 C 
BRANCH   4   5
HETATM    5  C   LIG     1      14.101  29.684  14.347  1.00  0.00    -0.004 C 
HETATM    6  C   LIG     1      15.212  28.760  13.860  1.00  0.00     0.005 C 
ENDBRANCH   4   5
ENDBRANCH   3   4
ENDBRANCH   1   3
BRANCH   1   7
HETATM    7  O   LIG     1      17.923  32.769  14.703  1.00  0.00    -0.322 OA
BRANCH   7   8
HETATM    8  C   LIG     1      18.121  33.926  13.893  1.00  0.00     0.174 C 
HETATM    9  C   LIG     1      18.755  33.548  12.559  1.00  0.00     0.034 C 
ENDBRANCH   7   8
ENDBRANCH   1   7
TORSDOF 5
ENDMDL
MODEL 19
REMARK VINA RESULT:      -4.0      2.694      5.304
REMARK  5 active torsions:
REMARK  status: ('A' for Active; 'I' for Inactive)
REMARK    1  A    between atoms: C_2  and  C_3 
REMARK    2  A    between atoms: C_3  and  C_4 
REMARK    3  A    between atoms: C_4  and  C_5 
REMARK    4  A    between atoms: C_5  and  O_6 
REMARK    5  A    between atoms: O_6  and  C_7 
ROOT
HETATM    1  C   LIG     1      16.887  35.861  21.662  1.00  0.00     0.258 C 
HETATM    2  O   LIG     1      17.622  36.131  20.673  1.00  0.00    -0.265 OA
ENDROOT
BRANCH   1   3
HETATM    3  C   LIG     1      15.872  34.765  21.557  1.00  0.00     0.111 C 
BRANCH   3   4
HETATM    4  C   LIG     1      15.702  34.322  20.102  1.00  0.00     0.009 C 
BRANCH   4   5
HETATM    5  C   LIG     1      15.529  32.802  20.007  1.00  0.00    -0.004 C 
HETATM    6  C   LIG     1      15.042  32.388  18.621  1.00  0.00     0.005 C 
ENDBRANCH   4   5
ENDBRANCH   3   4
ENDBRANCH   1   3
BRANCH   1   7
HETATM    7  O   LIG     1      17.008  36.576  22.860  1.00  0.00    -0.322 OA
BRANCH   7   8
HETATM    8  C   LIG     1      16.200  37.705  23.186  1.00  0.00     0.174 C 
HETATM    9  C   LIG     1      16.766  38.972  22.555  1.00  0.00     0.034 C 
ENDBRANCH   7   8
ENDBRANCH   1   7
TORSDOF 5
ENDMDL
MODEL 20
REMARK VINA RESULT:      -4.0      8.076      9.847
REMARK  5 active torsions:
REMARK  status: ('A' for Active; 'I' for Inactive)
REMARK    1  A    between atoms: C_2  and  C_3 
REMARK    2  A    between atoms: C_3  and  C_4 
REMARK    3  A    between atoms: C_4  and  C_5 
REMARK    4  A    between atoms: C_5  and  O_6 
REMARK    5  A    between atoms: O_6  and  C_7 
ROOT
HETATM    1  C   LIG     1      16.313  32.616  15.290  1.00  0.00     0.258 C 
HETATM    2  O   LIG     1      17.448  32.197  15.647  1.00  0.00    -0.265 OA
ENDROOT
BRANCH   1   3
HETATM    3  C   LIG     1      15.400  33.241  16.300  1.00  0.00     0.111 C 
BRANCH   3   4
HETATM    4  C   LIG     1      14.941  32.205  17.330  1.00  0.00     0.009 C 
BRANCH   4   5
HETATM    5  C   LIG     1      15.242  32.678  18.757  1.00  0.00    -0.004 C 
HETATM    6  C   LIG     1      14.868  31.611  19.781  1.00  0.00     0.005 C 
ENDBRANCH   4   5
ENDBRANCH   3   4
ENDBRANCH   1   3
BRANCH   1   7
HETATM    7  O   LIG     1      15.893  32.503  13.960  1.00  0.00    -0.322 OA
BRANCH   7   8
HETATM    8  C   LIG     1      15.691  31.253  13.303  1.00  0.00     0.174 C 
HETATM    9  C   LIG     1      15.147  30.214  14.277  1.00  0.00     0.034 C 
ENDBRANCH   7   8
ENDBRANCH   1   7
TORSDOF 5
ENDMDL
