REMARK  4 active torsions:
REMARK  status: ('A' for Active; 'I' for Inactive)
REMARK    1  A    between atoms: C_4  and  C_5 
REMARK    2  A    between atoms: C_5  and  C_6 
REMARK    3  A    between atoms: C_6  and  C_7 
REMARK    4  A    between atoms: C_9  and  C_10 
ROOT
HETATM    1  C   LIG     1       0.932  -1.387   0.945  1.00  0.00     0.037 C 
ENDROOT
BRANCH   1   2
HETATM    2  C   LIG     1      -0.442  -1.272   0.269  1.00  0.00     0.031 C 
BRANCH   2   3
HETATM    3  C   LIG     1      -1.086   0.074   0.514  1.00  0.00    -0.024 C 
HETATM    4  C   LIG     1      -2.287   0.419   0.004  1.00  0.00    -0.091 C 
HETATM    5  C   LIG     1      -2.838   1.787   0.311  1.00  0.00     0.042 C 
HETATM    6  C   LIG     1      -3.081  -0.531  -0.862  1.00  0.00     0.042 C 
ENDBRANCH   2   3
ENDBRANCH   1   2
BRANCH   1   7
HETATM    7  C   LIG     1       1.952  -0.456   0.321  1.00  0.00    -0.081 C 
HETATM    8  C   LIG     1       2.445  -0.768  -1.068  1.00  0.00     0.043 C 
HETATM    9  C   LIG     1       2.400   0.602   1.030  1.00  0.00     0.043 C 
BRANCH   9  10
HETATM   10  C   LIG     1       3.384   1.607   0.574  1.00  0.00     0.259 C 
HETATM   11  O   LIG     1       3.892   1.587  -0.577  1.00  0.00    -0.302 OA
ENDBRANCH   9  10
ENDBRANCH   1   7
TORSDOF 4
