MODEL 1
REMARK VINA RESULT:      -7.0      0.000      0.000
REMARK  4 active torsions:
REMARK  status: ('A' for Active; 'I' for Inactive)
REMARK    1  A    between atoms: C_4  and  C_5 
REMARK    2  A    between atoms: C_5  and  C_6 
REMARK    3  A    between atoms: C_6  and  C_7 
REMARK    4  A    between atoms: C_9  and  C_10 
ROOT
HETATM    1  C   LIG     1      17.086  38.904  22.790  1.00  0.00     0.037 C 
ENDROOT
BRANCH   1   2
HETATM    2  C   LIG     1      16.505  37.780  23.661  1.00  0.00     0.031 C 
BRANCH   2   3
HETATM    3  C   LIG     1      17.280  37.598  24.947  1.00  0.00    -0.024 C 
HETATM    4  C   LIG     1      17.655  36.389  25.415  1.00  0.00    -0.091 C 
HETATM    5  C   LIG     1      18.426  36.320  26.707  1.00  0.00     0.042 C 
HETATM    6  C   LIG     1      17.320  35.115  24.674  1.00  0.00     0.042 C 
ENDBRANCH   2   3
ENDBRANCH   1   2
BRANCH   1   7
HETATM    7  C   LIG     1      17.817  38.363  21.578  1.00  0.00    -0.081 C 
HETATM    8  C   LIG     1      17.594  36.923  21.196  1.00  0.00     0.043 C 
HETATM    9  C   LIG     1      18.654  39.173  20.897  1.00  0.00     0.043 C 
BRANCH   9  10
HETATM   10  C   LIG     1      19.437  38.812  19.696  1.00  0.00     0.259 C 
HETATM   11  O   LIG     1      20.442  39.468  19.317  1.00  0.00    -0.302 OA
ENDBRANCH   9  10
ENDBRANCH   1   7
TORSDOF 4
ENDMDL
MODEL 2
REMARK VINA RESULT:      -6.7      0.903      1.666
REMARK  4 active torsions:
REMARK  status: ('A' for Active; 'I' for Inactive)
REMARK    1  A    between atoms: C_4  and  C_5 
REMARK    2  A    between atoms: C_5  and  C_6 
REMARK    3  A    between atoms: C_6  and  C_7 
REMARK    4  A    between atoms: C_9  and  C_10 
ROOT
HETATM    1  C   LIG     1      17.301  36.543  21.722  1.00  0.00     0.037 C 
ENDROOT
BRANCH   1   2
HETATM    2  C   LIG     1      16.532  36.536  23.051  1.00  0.00     0.031 C 
BRANCH   2   3
HETATM    3  C   LIG     1      17.123  35.561  24.045  1.00  0.00    -0.024 C 
HETATM    4  C   LIG     1      17.603  35.938  25.249  1.00  0.00    -0.091 C 
HETATM    5  C   LIG     1      18.169  34.884  26.164  1.00  0.00     0.042 C 
HETATM    6  C   LIG     1      17.584  37.383  25.691  1.00  0.00     0.042 C 
ENDBRANCH   2   3
ENDBRANCH   1   2
BRANCH   1   7
HETATM    7  C   LIG     1      17.899  37.902  21.418  1.00  0.00    -0.081 C 
HETATM    8  C   LIG     1      17.549  39.052  22.325  1.00  0.00     0.043 C 
HETATM    9  C   LIG     1      18.701  38.043  20.341  1.00  0.00     0.043 C 
BRANCH   9  10
HETATM   10  C   LIG     1      19.368  39.289  19.905  1.00  0.00     0.259 C 
HETATM   11  O   LIG     1      20.514  39.300  19.386  1.00  0.00    -0.302 OA
ENDBRANCH   9  10
ENDBRANCH   1   7
TORSDOF 4
ENDMDL
MODEL 3
REMARK VINA RESULT:      -6.6      2.513      5.190
REMARK  4 active torsions:
REMARK  status: ('A' for Active; 'I' for Inactive)
REMARK    1  A    between atoms: C_4  and  C_5 
REMARK    2  A    between atoms: C_5  and  C_6 
REMARK    3  A    between atoms: C_6  and  C_7 
REMARK    4  A    between atoms: C_9  and  C_10 
ROOT
HETATM    1  C   LIG     1      17.011  35.024  23.061  1.00  0.00     0.037 C 
ENDROOT
BRANCH   1   2
HETATM    2  C   LIG     1      16.533  36.025  21.999  1.00  0.00     0.031 C 
BRANCH   2   3
HETATM    3  C   LIG     1      17.487  36.114  20.830  1.00  0.00    -0.024 C 
HETATM    4  C   LIG     1      18.194  37.227  20.540  1.00  0.00    -0.091 C 
HETATM    5  C   LIG     1      19.119  37.208  19.351  1.00  0.00     0.042 C 
HETATM    6  C   LIG     1      18.076  38.479  21.377  1.00  0.00     0.042 C 
ENDBRANCH   2   3
ENDBRANCH   1   2
BRANCH   1   7
HETATM    7  C   LIG     1      17.242  35.687  24.404  1.00  0.00    -0.081 C 
HETATM    8  C   LIG     1      17.480  34.805  25.602  1.00  0.00     0.043 C 
HETATM    9  C   LIG     1      17.207  37.034  24.489  1.00  0.00     0.043 C 
BRANCH   9  10
HETATM   10  C   LIG     1      17.415  37.838  25.712  1.00  0.00     0.259 C 
HETATM   11  O   LIG     1      17.111  39.057  25.784  1.00  0.00    -0.302 OA
ENDBRANCH   9  10
ENDBRANCH   1   7
TORSDOF 4
ENDMDL
MODEL 4
REMARK VINA RESULT:      -6.4      2.421      3.009
REMARK  4 active torsions:
REMARK  status: ('A' for Active; 'I' for Inactive)
REMARK    1  A    between atoms: C_4  and  C_5 
REMARK    2  A    between atoms: C_5  and  C_6 
REMARK    3  A    between atoms: C_6  and  C_7 
REMARK    4  A    between atoms: C_9  and  C_10 
ROOT
HETATM    1  C   LIG     1      17.587  37.850  22.456  1.00  0.00     0.037 C 
ENDROOT
BRANCH   1   2
HETATM    2  C   LIG     1      16.633  37.650  23.642  1.00  0.00     0.031 C 
BRANCH   2   3
HETATM    3  C   LIG     1      17.375  37.501  24.951  1.00  0.00    -0.024 C 
HETATM    4  C   LIG     1      17.692  36.303  25.485  1.00  0.00    -0.091 C 
HETATM    5  C   LIG     1      18.435  36.269  26.795  1.00  0.00     0.042 C 
HETATM    6  C   LIG     1      17.320  35.008  24.801  1.00  0.00     0.042 C 
ENDBRANCH   2   3
ENDBRANCH   1   2
BRANCH   1   7
HETATM    7  C   LIG     1      17.317  36.864  21.337  1.00  0.00    -0.081 C 
HETATM    8  C   LIG     1      18.309  36.782  20.205  1.00  0.00     0.043 C 
HETATM    9  C   LIG     1      16.196  36.112  21.376  1.00  0.00     0.043 C 
BRANCH   9  10
HETATM   10  C   LIG     1      15.784  35.104  20.376  1.00  0.00     0.259 C 
HETATM   11  O   LIG     1      16.143  33.900  20.437  1.00  0.00    -0.302 OA
ENDBRANCH   9  10
ENDBRANCH   1   7
TORSDOF 4
ENDMDL
MODEL 5
REMARK VINA RESULT:      -6.3      3.063      5.452
REMARK  4 active torsions:
REMARK  status: ('A' for Active; 'I' for Inactive)
REMARK    1  A    between atoms: C_4  and  C_5 
REMARK    2  A    between atoms: C_5  and  C_6 
REMARK    3  A    between atoms: C_6  and  C_7 
REMARK    4  A    between atoms: C_9  and  C_10 
ROOT
HETATM    1  C   LIG     1      17.440  38.030  23.835  1.00  0.00     0.037 C 
ENDROOT
BRANCH   1   2
HETATM    2  C   LIG     1      17.072  38.200  22.355  1.00  0.00     0.031 C 
BRANCH   2   3
HETATM    3  C   LIG     1      18.191  38.833  21.558  1.00  0.00    -0.024 C 
HETATM    4  C   LIG     1      18.801  38.213  20.526  1.00  0.00    -0.091 C 
HETATM    5  C   LIG     1      19.906  38.935  19.800  1.00  0.00     0.042 C 
HETATM    6  C   LIG     1      18.402  36.822  20.091  1.00  0.00     0.042 C 
ENDBRANCH   2   3
ENDBRANCH   1   2
BRANCH   1   7
HETATM    7  C   LIG     1      17.421  36.576  24.262  1.00  0.00    -0.081 C 
HETATM    8  C   LIG     1      16.977  35.545  23.258  1.00  0.00     0.043 C 
HETATM    9  C   LIG     1      17.777  36.254  25.524  1.00  0.00     0.043 C 
BRANCH   9  10
HETATM   10  C   LIG     1      17.819  34.893  26.101  1.00  0.00     0.259 C 
HETATM   11  O   LIG     1      16.790  34.297  26.511  1.00  0.00    -0.302 OA
ENDBRANCH   9  10
ENDBRANCH   1   7
TORSDOF 4
ENDMDL
MODEL 6
REMARK VINA RESULT:      -6.0      2.971      5.187
REMARK  4 active torsions:
REMARK  status: ('A' for Active; 'I' for Inactive)
REMARK    1  A    between atoms: C_4  and  C_5 
REMARK    2  A    between atoms: C_5  and  C_6 
REMARK    3  A    between atoms: C_6  and  C_7 
REMARK    4  A    between atoms: C_9  and  C_10 
ROOT
HETATM    1  C   LIG     1      17.424  37.519  22.887  1.00  0.00     0.037 C 
ENDROOT
BRANCH   1   2
HETATM    2  C   LIG     1      17.246  38.357  21.613  1.00  0.00     0.031 C 
BRANCH   2   3
HETATM    3  C   LIG     1      18.569  38.837  21.059  1.00  0.00    -0.024 C 
HETATM    4  C   LIG     1      19.206  38.223  20.040  1.00  0.00    -0.091 C 
HETATM    5  C   LIG     1      20.520  38.785  19.564  1.00  0.00     0.042 C 
HETATM    6  C   LIG     1      18.634  36.992  19.377  1.00  0.00     0.042 C 
ENDBRANCH   2   3
ENDBRANCH   1   2
BRANCH   1   7
HETATM    7  C   LIG     1      16.885  36.112  22.721  1.00  0.00    -0.081 C 
HETATM    8  C   LIG     1      17.163  35.110  23.812  1.00  0.00     0.043 C 
HETATM    9  C   LIG     1      16.199  35.796  21.603  1.00  0.00     0.043 C 
BRANCH   9  10
HETATM   10  C   LIG     1      15.603  34.481  21.284  1.00  0.00     0.259 C 
HETATM   11  O   LIG     1      14.439  34.159  21.637  1.00  0.00    -0.302 OA
ENDBRANCH   9  10
ENDBRANCH   1   7
TORSDOF 4
ENDMDL
MODEL 7
REMARK VINA RESULT:      -5.6      3.292      4.908
REMARK  4 active torsions:
REMARK  status: ('A' for Active; 'I' for Inactive)
REMARK    1  A    between atoms: C_4  and  C_5 
REMARK    2  A    between atoms: C_5  and  C_6 
REMARK    3  A    between atoms: C_6  and  C_7 
REMARK    4  A    between atoms: C_9  and  C_10 
ROOT
HETATM    1  C   LIG     1      16.915  35.859  21.309  1.00  0.00     0.037 C 
ENDROOT
BRANCH   1   2
HETATM    2  C   LIG     1      16.120  35.208  20.168  1.00  0.00     0.031 C 
BRANCH   2   3
HETATM    3  C   LIG     1      15.717  33.788  20.493  1.00  0.00    -0.024 C 
HETATM    4  C   LIG     1      15.319  32.903  19.555  1.00  0.00    -0.091 C 
HETATM    5  C   LIG     1      14.939  31.511  19.987  1.00  0.00     0.042 C 
HETATM    6  C   LIG     1      15.247  33.278  18.093  1.00  0.00     0.042 C 
ENDBRANCH   2   3
ENDBRANCH   1   2
BRANCH   1   7
HETATM    7  C   LIG     1      17.851  36.939  20.805  1.00  0.00    -0.081 C 
HETATM    8  C   LIG     1      18.729  36.626  19.621  1.00  0.00     0.043 C 
HETATM    9  C   LIG     1      17.886  38.130  21.440  1.00  0.00     0.043 C 
BRANCH   9  10
HETATM   10  C   LIG     1      18.732  39.289  21.079  1.00  0.00     0.259 C 
HETATM   11  O   LIG     1      18.787  39.752  19.911  1.00  0.00    -0.302 OA
ENDBRANCH   9  10
ENDBRANCH   1   7
TORSDOF 4
ENDMDL
MODEL 8
REMARK VINA RESULT:      -5.5      2.460      5.294
REMARK  4 active torsions:
REMARK  status: ('A' for Active; 'I' for Inactive)
REMARK    1  A    between atoms: C_4  and  C_5 
REMARK    2  A    between atoms: C_5  and  C_6 
REMARK    3  A    between atoms: C_6  and  C_7 
REMARK    4  A    between atoms: C_9  and  C_10 
ROOT
HETATM    1  C   LIG     1      16.845  37.594  21.929  1.00  0.00     0.037 C 
ENDROOT
BRANCH   1   2
HETATM    2  C   LIG     1      17.609  38.911  21.725  1.00  0.00     0.031 C 
BRANCH   2   3
HETATM    3  C   LIG     1      19.003  38.683  21.186  1.00  0.00    -0.024 C 
HETATM    4  C   LIG     1      19.337  38.898  19.896  1.00  0.00    -0.091 C 
HETATM    5  C   LIG     1      20.757  38.640  19.464  1.00  0.00     0.042 C 
HETATM    6  C   LIG     1      18.324  39.387  18.887  1.00  0.00     0.042 C 
ENDBRANCH   2   3
ENDBRANCH   1   2
BRANCH   1   7
HETATM    7  C   LIG     1      17.096  36.998  23.300  1.00  0.00    -0.081 C 
HETATM    8  C   LIG     1      17.046  35.499  23.445  1.00  0.00     0.043 C 
HETATM    9  C   LIG     1      17.334  37.821  24.343  1.00  0.00     0.043 C 
BRANCH   9  10
HETATM   10  C   LIG     1      17.602  37.410  25.738  1.00  0.00     0.259 C 
HETATM   11  O   LIG     1      18.702  36.918  26.102  1.00  0.00    -0.302 OA
ENDBRANCH   9  10
ENDBRANCH   1   7
TORSDOF 4
ENDMDL
MODEL 9
REMARK VINA RESULT:      -5.3      8.635     10.756
REMARK  4 active torsions:
REMARK  status: ('A' for Active; 'I' for Inactive)
REMARK    1  A    between atoms: C_4  and  C_5 
REMARK    2  A    between atoms: C_5  and  C_6 
REMARK    3  A    between atoms: C_6  and  C_7 
REMARK    4  A    between atoms: C_9  and  C_10 
ROOT
HETATM    1  C   LIG     1      13.146  31.033  17.078  1.00  0.00     0.037 C 
ENDROOT
BRANCH   1   2
HETATM    2  C   LIG     1      13.214  31.062  15.544  1.00  0.00     0.031 C 
BRANCH   2   3
HETATM    3  C   LIG     1      13.774  29.778  14.975  1.00  0.00    -0.024 C 
HETATM    4  C   LIG     1      14.833  29.745  14.138  1.00  0.00    -0.091 C 
HETATM    5  C   LIG     1      15.311  28.410  13.629  1.00  0.00     0.042 C 
HETATM    6  C   LIG     1      15.539  31.008  13.706  1.00  0.00     0.042 C 
ENDBRANCH   2   3
ENDBRANCH   1   2
BRANCH   1   7
HETATM    7  C   LIG     1      14.209  31.908  17.711  1.00  0.00    -0.081 C 
HETATM    8  C   LIG     1      14.819  33.004  16.876  1.00  0.00     0.043 C 
HETATM    9  C   LIG     1      14.591  31.666  18.983  1.00  0.00     0.043 C 
BRANCH   9  10
HETATM   10  C   LIG     1      15.604  32.422  19.751  1.00  0.00     0.259 C 
HETATM   11  O   LIG     1      15.377  33.558  20.241  1.00  0.00    -0.302 OA
ENDBRANCH   9  10
ENDBRANCH   1   7
TORSDOF 4
ENDMDL
MODEL 10
REMARK VINA RESULT:      -5.2      8.930     10.255
REMARK  4 active torsions:
REMARK  status: ('A' for Active; 'I' for Inactive)
REMARK    1  A    between atoms: C_4  and  C_5 
REMARK    2  A    between atoms: C_5  and  C_6 
REMARK    3  A    between atoms: C_6  and  C_7 
REMARK    4  A    between atoms: C_9  and  C_10 
ROOT
HETATM    1  C   LIG     1      13.585  31.333  15.943  1.00  0.00     0.037 C 
ENDROOT
BRANCH   1   2
HETATM    2  C   LIG     1      13.904  31.043  17.417  1.00  0.00     0.031 C 
BRANCH   2   3
HETATM    3  C   LIG     1      14.529  32.233  18.109  1.00  0.00    -0.024 C 
HETATM    4  C   LIG     1      14.989  32.189  19.377  1.00  0.00    -0.091 C 
HETATM    5  C   LIG     1      15.594  33.434  19.971  1.00  0.00     0.042 C 
HETATM    6  C   LIG     1      14.908  30.927  20.204  1.00  0.00     0.042 C 
ENDBRANCH   2   3
ENDBRANCH   1   2
BRANCH   1   7
HETATM    7  C   LIG     1      14.614  30.728  15.009  1.00  0.00    -0.081 C 
HETATM    8  C   LIG     1      15.797  31.572  14.610  1.00  0.00     0.043 C 
HETATM    9  C   LIG     1      14.431  29.472  14.550  1.00  0.00     0.043 C 
BRANCH   9  10
HETATM   10  C   LIG     1      15.333  28.732  13.642  1.00  0.00     0.259 C 
HETATM   11  O   LIG     1      15.198  27.504  13.401  1.00  0.00    -0.302 OA
ENDBRANCH   9  10
ENDBRANCH   1   7
TORSDOF 4
ENDMDL
MODEL 11
REMARK VINA RESULT:      -5.2      7.452      9.602
REMARK  4 active torsions:
REMARK  status: ('A' for Active; 'I' for Inactive)
REMARK    1  A    between atoms: C_4  and  C_5 
REMARK    2  A    between atoms: C_5  and  C_6 
REMARK    3  A    between atoms: C_6  and  C_7 
REMARK    4  A    between atoms: C_9  and  C_10 
ROOT
HETATM    1  C   LIG     1      15.363  32.317  17.632  1.00  0.00     0.037 C 
ENDROOT
BRANCH   1   2
HETATM    2  C   LIG     1      13.992  32.116  16.972  1.00  0.00     0.031 C 
BRANCH   2   3
HETATM    3  C   LIG     1      13.958  30.885  16.093  1.00  0.00    -0.024 C 
HETATM    4  C   LIG     1      14.705  30.758  14.976  1.00  0.00    -0.091 C 
HETATM    5  C   LIG     1      14.595  29.488  14.173  1.00  0.00     0.042 C 
HETATM    6  C   LIG     1      15.637  31.855  14.519  1.00  0.00     0.042 C 
ENDBRANCH   2   3
ENDBRANCH   1   2
BRANCH   1   7
HETATM    7  C   LIG     1      15.250  32.505  19.131  1.00  0.00    -0.081 C 
HETATM    8  C   LIG     1      14.864  31.316  19.971  1.00  0.00     0.043 C 
HETATM    9  C   LIG     1      15.476  33.726  19.662  1.00  0.00     0.043 C 
BRANCH   9  10
HETATM   10  C   LIG     1      15.414  34.082  21.096  1.00  0.00     0.259 C 
HETATM   11  O   LIG     1      14.328  34.263  21.705  1.00  0.00    -0.302 OA
ENDBRANCH   9  10
ENDBRANCH   1   7
TORSDOF 4
ENDMDL
MODEL 12
REMARK VINA RESULT:      -5.1      7.542      8.868
REMARK  4 active torsions:
REMARK  status: ('A' for Active; 'I' for Inactive)
REMARK    1  A    between atoms: C_4  and  C_5 
REMARK    2  A    between atoms: C_5  and  C_6 
REMARK    3  A    between atoms: C_6  and  C_7 
REMARK    4  A    between atoms: C_9  and  C_10 
ROOT
HETATM    1  C   LIG     1      13.702  31.368  15.999  1.00  0.00     0.037 C 
ENDROOT
BRANCH   1   2
HETATM    2  C   LIG     1      13.959  31.068  17.482  1.00  0.00     0.031 C 
BRANCH   2   3
HETATM    3  C   LIG     1      14.557  32.253  18.207  1.00  0.00    -0.024 C 
HETATM    4  C   LIG     1      14.997  32.191  19.482  1.00  0.00    -0.091 C 
HETATM    5  C   LIG     1      15.576  33.431  20.109  1.00  0.00     0.042 C 
HETATM    6  C   LIG     1      14.919  30.912  20.284  1.00  0.00     0.042 C 
ENDBRANCH   2   3
ENDBRANCH   1   2
BRANCH   1   7
HETATM    7  C   LIG     1      14.987  31.408  15.196  1.00  0.00    -0.081 C 
HETATM    8  C   LIG     1      15.334  30.211  14.349  1.00  0.00     0.043 C 
HETATM    9  C   LIG     1      15.784  32.494  15.279  1.00  0.00     0.043 C 
BRANCH   9  10
HETATM   10  C   LIG     1      17.061  32.699  14.564  1.00  0.00     0.259 C 
HETATM   11  O   LIG     1      18.178  32.653  15.141  1.00  0.00    -0.302 OA
ENDBRANCH   9  10
ENDBRANCH   1   7
TORSDOF 4
ENDMDL
MODEL 13
REMARK VINA RESULT:      -4.9      9.669     11.422
REMARK  4 active torsions:
REMARK  status: ('A' for Active; 'I' for Inactive)
REMARK    1  A    between atoms: C_4  and  C_5 
REMARK    2  A    between atoms: C_5  and  C_6 
REMARK    3  A    between atoms: C_6  and  C_7 
REMARK    4  A    between atoms: C_9  and  C_10 
ROOT
HETATM    1  C   LIG     1      17.014  33.192  14.900  1.00  0.00     0.037 C 
ENDROOT
BRANCH   1   2
HETATM    2  C   LIG     1      17.555  33.374  13.475  1.00  0.00     0.031 C 
BRANCH   2   3
HETATM    3  C   LIG     1      19.050  33.600  13.457  1.00  0.00    -0.024 C 
HETATM    4  C   LIG     1      19.701  34.137  12.404  1.00  0.00    -0.091 C 
HETATM    5  C   LIG     1      21.194  34.318  12.492  1.00  0.00     0.042 C 
HETATM    6  C   LIG     1      18.968  34.555  11.151  1.00  0.00     0.042 C 
ENDBRANCH   2   3
ENDBRANCH   1   2
BRANCH   1   7
HETATM    7  C   LIG     1      15.885  32.183  14.955  1.00  0.00    -0.081 C 
HETATM    8  C   LIG     1      15.655  31.306  13.752  1.00  0.00     0.043 C 
HETATM    9  C   LIG     1      15.113  32.116  16.061  1.00  0.00     0.043 C 
BRANCH   9  10
HETATM   10  C   LIG     1      13.980  31.192  16.282  1.00  0.00     0.259 C 
HETATM   11  O   LIG     1      13.629  30.809  17.428  1.00  0.00    -0.302 OA
ENDBRANCH   9  10
ENDBRANCH   1   7
TORSDOF 4
ENDMDL
MODEL 14
REMARK VINA RESULT:      -4.9     10.052     11.841
REMARK  4 active torsions:
REMARK  status: ('A' for Active; 'I' for Inactive)
REMARK    1  A    between atoms: C_4  and  C_5 
REMARK    2  A    between atoms: C_5  and  C_6 
REMARK    3  A    between atoms: C_6  and  C_7 
REMARK    4  A    between atoms: C_9  and  C_10 
ROOT
HETATM    1  C   LIG     1      15.317  30.996  13.725  1.00  0.00     0.037 C 
ENDROOT
BRANCH   1   2
HETATM    2  C   LIG     1      14.659  30.215  14.872  1.00  0.00     0.031 C 
BRANCH   2   3
HETATM    3  C   LIG     1      13.555  29.305  14.381  1.00  0.00    -0.024 C 
HETATM    4  C   LIG     1      13.789  28.091  13.838  1.00  0.00    -0.091 C 
HETATM    5  C   LIG     1      12.615  27.264  13.382  1.00  0.00     0.042 C 
HETATM    6  C   LIG     1      15.191  27.552  13.681  1.00  0.00     0.042 C 
ENDBRANCH   2   3
ENDBRANCH   1   2
BRANCH   1   7
HETATM    7  C   LIG     1      16.172  32.139  14.234  1.00  0.00    -0.081 C 
HETATM    8  C   LIG     1      16.098  32.487  15.698  1.00  0.00     0.043 C 
HETATM    9  C   LIG     1      16.951  32.818  13.365  1.00  0.00     0.043 C 
BRANCH   9  10
HETATM   10  C   LIG     1      17.846  33.948  13.691  1.00  0.00     0.259 C 
HETATM   11  O   LIG     1      17.442  35.138  13.753  1.00  0.00    -0.302 OA
ENDBRANCH   9  10
ENDBRANCH   1   7
TORSDOF 4
ENDMDL
MODEL 15
REMARK VINA RESULT:      -4.8     10.399     12.085
REMARK  4 active torsions:
REMARK  status: ('A' for Active; 'I' for Inactive)
REMARK    1  A    between atoms: C_4  and  C_5 
REMARK    2  A    between atoms: C_5  and  C_6 
REMARK    3  A    between atoms: C_6  and  C_7 
REMARK    4  A    between atoms: C_9  and  C_10 
ROOT
HETATM    1  C   LIG     1      13.024  30.649  15.255  1.00  0.00     0.037 C 
ENDROOT
BRANCH   1   2
HETATM    2  C   LIG     1      13.775  30.759  16.589  1.00  0.00     0.031 C 
BRANCH   2   3
HETATM    3  C   LIG     1      13.955  32.197  17.024  1.00  0.00    -0.024 C 
HETATM    4  C   LIG     1      14.999  32.958  16.634  1.00  0.00    -0.091 C 
HETATM    5  C   LIG     1      15.082  34.380  17.125  1.00  0.00     0.042 C 
HETATM    6  C   LIG     1      16.078  32.416  15.725  1.00  0.00     0.042 C 
ENDBRANCH   2   3
ENDBRANCH   1   2
BRANCH   1   7
HETATM    7  C   LIG     1      13.445  29.425  14.466  1.00  0.00    -0.081 C 
HETATM    8  C   LIG     1      14.896  29.287  14.088  1.00  0.00     0.043 C 
HETATM    9  C   LIG     1      12.511  28.517  14.109  1.00  0.00     0.043 C 
BRANCH   9  10
HETATM   10  C   LIG     1      12.749  27.272  13.348  1.00  0.00     0.259 C 
HETATM   11  O   LIG     1      11.837  26.439  13.107  1.00  0.00    -0.302 OA
ENDBRANCH   9  10
ENDBRANCH   1   7
TORSDOF 4
ENDMDL
MODEL 16
REMARK VINA RESULT:      -4.7      9.549     11.470
REMARK  4 active torsions:
REMARK  status: ('A' for Active; 'I' for Inactive)
REMARK    1  A    between atoms: C_4  and  C_5 
REMARK    2  A    between atoms: C_5  and  C_6 
REMARK    3  A    between atoms: C_6  and  C_7 
REMARK    4  A    between atoms: C_9  and  C_10 
ROOT
HETATM    1  C   LIG     1      14.115  30.683  16.153  1.00  0.00     0.037 C 
ENDROOT
BRANCH   1   2
HETATM    2  C   LIG     1      13.728  30.228  14.738  1.00  0.00     0.031 C 
BRANCH   2   3
HETATM    3  C   LIG     1      14.775  29.326  14.124  1.00  0.00    -0.024 C 
HETATM    4  C   LIG     1      14.506  28.079  13.683  1.00  0.00    -0.091 C 
HETATM    5  C   LIG     1      15.624  27.265  13.087  1.00  0.00     0.042 C 
HETATM    6  C   LIG     1      13.118  27.490  13.777  1.00  0.00     0.042 C 
ENDBRANCH   2   3
ENDBRANCH   1   2
BRANCH   1   7
HETATM    7  C   LIG     1      14.839  32.015  16.143  1.00  0.00    -0.081 C 
HETATM    8  C   LIG     1      16.057  32.157  15.267  1.00  0.00     0.043 C 
HETATM    9  C   LIG     1      14.389  33.016  16.929  1.00  0.00     0.043 C 
BRANCH   9  10
HETATM   10  C   LIG     1      14.969  34.372  17.036  1.00  0.00     0.259 C 
HETATM   11  O   LIG     1      15.767  34.699  17.952  1.00  0.00    -0.302 OA
ENDBRANCH   9  10
ENDBRANCH   1   7
TORSDOF 4
ENDMDL
MODEL 17
REMARK VINA RESULT:      -4.7      9.764     11.684
REMARK  4 active torsions:
REMARK  status: ('A' for Active; 'I' for Inactive)
REMARK    1  A    between atoms: C_4  and  C_5 
REMARK    2  A    between atoms: C_5  and  C_6 
REMARK    3  A    between atoms: C_6  and  C_7 
REMARK    4  A    between atoms: C_9  and  C_10 
ROOT
HETATM    1  C   LIG     1      17.065  33.317  14.836  1.00  0.00     0.037 C 
ENDROOT
BRANCH   1   2
HETATM    2  C   LIG     1      17.641  33.448  13.419  1.00  0.00     0.031 C 
BRANCH   2   3
HETATM    3  C   LIG     1      19.134  33.687  13.431  1.00  0.00    -0.024 C 
HETATM    4  C   LIG     1      19.815  34.142  12.359  1.00  0.00    -0.091 C 
HETATM    5  C   LIG     1      21.303  34.347  12.480  1.00  0.00     0.042 C 
HETATM    6  C   LIG     1      19.121  34.446  11.051  1.00  0.00     0.042 C 
ENDBRANCH   2   3
ENDBRANCH   1   2
BRANCH   1   7
HETATM    7  C   LIG     1      15.994  32.248  14.918  1.00  0.00    -0.081 C 
HETATM    8  C   LIG     1      15.125  32.202  16.148  1.00  0.00     0.043 C 
HETATM    9  C   LIG     1      15.865  31.364  13.905  1.00  0.00     0.043 C 
BRANCH   9  10
HETATM   10  C   LIG     1      14.876  30.268  13.821  1.00  0.00     0.259 C 
HETATM   11  O   LIG     1      15.125  29.097  14.208  1.00  0.00    -0.302 OA
ENDBRANCH   9  10
ENDBRANCH   1   7
TORSDOF 4
ENDMDL
MODEL 18
REMARK VINA RESULT:      -4.7      8.806     10.323
REMARK  4 active torsions:
REMARK  status: ('A' for Active; 'I' for Inactive)
REMARK    1  A    between atoms: C_4  and  C_5 
REMARK    2  A    between atoms: C_5  and  C_6 
REMARK    3  A    between atoms: C_6  and  C_7 
REMARK    4  A    between atoms: C_9  and  C_10 
ROOT
HETATM    1  C   LIG     1      16.132  32.163  13.478  1.00  0.00     0.037 C 
ENDROOT
BRANCH   1   2
HETATM    2  C   LIG     1      16.064  31.159  14.638  1.00  0.00     0.031 C 
BRANCH   2   3
HETATM    3  C   LIG     1      14.639  30.839  15.031  1.00  0.00    -0.024 C 
HETATM    4  C   LIG     1      14.058  31.322  16.149  1.00  0.00    -0.091 C 
HETATM    5  C   LIG     1      12.631  30.941  16.445  1.00  0.00     0.042 C 
HETATM    6  C   LIG     1      14.804  32.228  17.100  1.00  0.00     0.042 C 
ENDBRANCH   2   3
ENDBRANCH   1   2
BRANCH   1   7
HETATM    7  C   LIG     1      17.299  33.119  13.622  1.00  0.00    -0.081 C 
HETATM    8  C   LIG     1      17.380  33.961  14.868  1.00  0.00     0.043 C 
HETATM    9  C   LIG     1      18.211  33.201  12.629  1.00  0.00     0.043 C 
BRANCH   9  10
HETATM   10  C   LIG     1      19.406  34.072  12.610  1.00  0.00     0.259 C 
HETATM   11  O   LIG     1      19.698  34.802  11.627  1.00  0.00    -0.302 OA
ENDBRANCH   9  10
ENDBRANCH   1   7
TORSDOF 4
ENDMDL
MODEL 19
REMARK VINA RESULT:      -4.6      6.922      9.096
REMARK  4 active torsions:
REMARK  status: ('A' for Active; 'I' for Inactive)
REMARK    1  A    between atoms: C_4  and  C_5 
REMARK    2  A    between atoms: C_5  and  C_6 
REMARK    3  A    between atoms: C_6  and  C_7 
REMARK    4  A    between atoms: C_9  and  C_10 
ROOT
HETATM    1  C   LIG     1      15.135  32.064  18.646  1.00  0.00     0.037 C 
ENDROOT
BRANCH   1   2
HETATM    2  C   LIG     1      14.170  32.103  17.453  1.00  0.00     0.031 C 
BRANCH   2   3
HETATM    3  C   LIG     1      14.865  31.784  16.148  1.00  0.00    -0.024 C 
HETATM    4  C   LIG     1      14.333  30.972  15.210  1.00  0.00    -0.091 C 
HETATM    5  C   LIG     1      15.110  30.722  13.945  1.00  0.00     0.042 C 
HETATM    6  C   LIG     1      12.986  30.315  15.405  1.00  0.00     0.042 C 
ENDBRANCH   2   3
ENDBRANCH   1   2
BRANCH   1   7
HETATM    7  C   LIG     1      15.322  33.432  19.271  1.00  0.00    -0.081 C 
HETATM    8  C   LIG     1      15.544  34.608  18.356  1.00  0.00     0.043 C 
HETATM    9  C   LIG     1      15.306  33.551  20.616  1.00  0.00     0.043 C 
BRANCH   9  10
HETATM   10  C   LIG     1      15.466  34.803  21.385  1.00  0.00     0.259 C 
HETATM   11  O   LIG     1      16.560  35.148  21.902  1.00  0.00    -0.302 OA
ENDBRANCH   9  10
ENDBRANCH   1   7
TORSDOF 4
ENDMDL
MODEL 20
REMARK VINA RESULT:      -4.5     10.237     10.877
REMARK  4 active torsions:
REMARK  status: ('A' for Active; 'I' for Inactive)
REMARK    1  A    between atoms: C_4  and  C_5 
REMARK    2  A    between atoms: C_5  and  C_6 
REMARK    3  A    between atoms: C_6  and  C_7 
REMARK    4  A    between atoms: C_9  and  C_10 
ROOT
HETATM    1  C   LIG     1      17.879  33.260  14.127  1.00  0.00     0.037 C 
ENDROOT
BRANCH   1   2
HETATM    2  C   LIG     1      16.637  32.510  13.624  1.00  0.00     0.031 C 
BRANCH   2   3
HETATM    3  C   LIG     1      15.671  32.194  14.744  1.00  0.00    -0.024 C 
HETATM    4  C   LIG     1      15.002  31.025  14.831  1.00  0.00    -0.091 C 
HETATM    5  C   LIG     1      14.063  30.812  15.990  1.00  0.00     0.042 C 
HETATM    6  C   LIG     1      15.173  29.937  13.796  1.00  0.00     0.042 C 
ENDBRANCH   2   3
ENDBRANCH   1   2
BRANCH   1   7
HETATM    7  C   LIG     1      18.644  33.915  12.994  1.00  0.00    -0.081 C 
HETATM    8  C   LIG     1      17.867  34.705  11.973  1.00  0.00     0.043 C 
HETATM    9  C   LIG     1      19.983  33.755  12.923  1.00  0.00     0.043 C 
BRANCH   9  10
HETATM   10  C   LIG     1      20.878  34.327  11.894  1.00  0.00     0.259 C 
HETATM   11  O   LIG     1      21.090  33.764  10.789  1.00  0.00    -0.302 OA
ENDBRANCH   9  10
ENDBRANCH   1   7
TORSDOF 4
ENDMDL
