MODEL 1
REMARK VINA RESULT:      -6.6      0.000      0.000
REMARK  1 active torsions:
REMARK  status: ('A' for Active; 'I' for Inactive)
REMARK    1  A    between atoms: C_3  and  C_4 
ROOT
HETATM    1  C   LIG     1      17.287  38.470  25.564  1.00  0.00     0.310 C 
HETATM    2  N   LIG     1      17.988  37.206  25.286  1.00  0.00     0.093 N 
HETATM    3  C   LIG     1      17.088  36.200  24.694  1.00  0.00     0.257 C 
HETATM    4  C   LIG     1      17.546  34.850  25.225  1.00  0.00     0.042 C 
HETATM    5  C   LIG     1      18.089  35.167  26.598  1.00  0.00     0.033 C 
HETATM    6  C   LIG     1      18.557  36.613  26.509  1.00  0.00     0.273 C 
ENDROOT
BRANCH   3   7
HETATM    7  C   LIG     1      17.111  36.226  23.177  1.00  0.00    -0.008 A 
HETATM    8  C   LIG     1      16.687  35.093  22.465  1.00  0.00     0.012 A 
HETATM    9  C   LIG     1      16.705  35.092  21.069  1.00  0.00     0.020 A 
HETATM   10  C   LIG     1      17.151  36.225  20.391  1.00  0.00     0.116 A 
HETATM   11  N   LIG     1      17.567  37.316  21.087  1.00  0.00    -0.273 NA
HETATM   12  C   LIG     1      17.560  37.344  22.447  1.00  0.00     0.125 A 
ENDBRANCH   3   7
TORSDOF 1
ENDMDL
MODEL 2
REMARK VINA RESULT:      -6.6      1.321      4.734
REMARK  1 active torsions:
REMARK  status: ('A' for Active; 'I' for Inactive)
REMARK    1  A    between atoms: C_3  and  C_4 
ROOT
HETATM    1  C   LIG     1      16.396  35.866  21.090  1.00  0.00     0.310 C 
HETATM    2  N   LIG     1      17.540  36.638  21.604  1.00  0.00     0.093 N 
HETATM    3  C   LIG     1      17.167  37.458  22.770  1.00  0.00     0.257 C 
HETATM    4  C   LIG     1      17.992  38.732  22.679  1.00  0.00     0.042 C 
HETATM    5  C   LIG     1      18.163  38.947  21.194  1.00  0.00     0.033 C 
HETATM    6  C   LIG     1      18.086  37.552  20.586  1.00  0.00     0.273 C 
ENDROOT
BRANCH   3   7
HETATM    7  C   LIG     1      17.415  36.741  24.083  1.00  0.00    -0.008 A 
HETATM    8  C   LIG     1      17.936  37.460  25.171  1.00  0.00     0.012 A 
HETATM    9  C   LIG     1      18.178  36.820  26.387  1.00  0.00     0.020 A 
HETATM   10  C   LIG     1      17.901  35.459  26.510  1.00  0.00     0.116 A 
HETATM   11  N   LIG     1      17.403  34.767  25.450  1.00  0.00    -0.273 NA
HETATM   12  C   LIG     1      17.158  35.366  24.255  1.00  0.00     0.125 A 
ENDBRANCH   3   7
TORSDOF 1
ENDMDL
MODEL 3
REMARK VINA RESULT:      -6.6      1.343      4.325
REMARK  1 active torsions:
REMARK  status: ('A' for Active; 'I' for Inactive)
REMARK    1  A    between atoms: C_3  and  C_4 
ROOT
HETATM    1  C   LIG     1      15.654  38.414  22.440  1.00  0.00     0.310 C 
HETATM    2  N   LIG     1      15.579  36.957  22.642  1.00  0.00     0.093 N 
HETATM    3  C   LIG     1      16.918  36.353  22.763  1.00  0.00     0.257 C 
HETATM    4  C   LIG     1      16.827  34.978  22.121  1.00  0.00     0.042 C 
HETATM    5  C   LIG     1      15.796  35.155  21.032  1.00  0.00     0.033 C 
HETATM    6  C   LIG     1      14.898  36.282  21.524  1.00  0.00     0.273 C 
ENDROOT
BRANCH   3   7
HETATM    7  C   LIG     1      17.378  36.252  24.205  1.00  0.00    -0.008 A 
HETATM    8  C   LIG     1      17.379  34.999  24.839  1.00  0.00     0.012 A 
HETATM    9  C   LIG     1      17.792  34.883  26.167  1.00  0.00     0.020 A 
HETATM   10  C   LIG     1      18.200  36.023  26.858  1.00  0.00     0.116 A 
HETATM   11  N   LIG     1      18.189  37.234  26.241  1.00  0.00    -0.273 NA
HETATM   12  C   LIG     1      17.791  37.375  24.948  1.00  0.00     0.125 A 
ENDBRANCH   3   7
TORSDOF 1
ENDMDL
MODEL 4
REMARK VINA RESULT:      -6.5      1.814      2.650
REMARK  1 active torsions:
REMARK  status: ('A' for Active; 'I' for Inactive)
REMARK    1  A    between atoms: C_3  and  C_4 
ROOT
HETATM    1  C   LIG     1      17.166  38.559  24.570  1.00  0.00     0.310 C 
HETATM    2  N   LIG     1      17.727  37.358  23.929  1.00  0.00     0.093 N 
HETATM    3  C   LIG     1      17.105  37.097  22.619  1.00  0.00     0.257 C 
HETATM    4  C   LIG     1      17.046  35.584  22.467  1.00  0.00     0.042 C 
HETATM    5  C   LIG     1      16.879  35.085  23.883  1.00  0.00     0.033 C 
HETATM    6  C   LIG     1      17.528  36.153  24.753  1.00  0.00     0.273 C 
ENDROOT
BRANCH   3   7
HETATM    7  C   LIG     1      17.877  37.730  21.477  1.00  0.00    -0.008 A 
HETATM    8  C   LIG     1      18.307  36.925  20.410  1.00  0.00     0.012 A 
HETATM    9  C   LIG     1      19.023  37.484  19.351  1.00  0.00     0.020 A 
HETATM   10  C   LIG     1      19.311  38.849  19.366  1.00  0.00     0.116 A 
HETATM   11  N   LIG     1      18.898  39.620  20.406  1.00  0.00    -0.273 NA
HETATM   12  C   LIG     1      18.198  39.101  21.450  1.00  0.00     0.125 A 
ENDBRANCH   3   7
TORSDOF 1
ENDMDL
MODEL 5
REMARK VINA RESULT:      -6.1      1.201      4.492
REMARK  1 active torsions:
REMARK  status: ('A' for Active; 'I' for Inactive)
REMARK    1  A    between atoms: C_3  and  C_4 
ROOT
HETATM    1  C   LIG     1      18.281  36.583  20.189  1.00  0.00     0.310 C 
HETATM    2  N   LIG     1      16.969  36.288  20.789  1.00  0.00     0.093 N 
HETATM    3  C   LIG     1      17.099  35.522  22.040  1.00  0.00     0.257 C 
HETATM    4  C   LIG     1      15.902  34.585  22.097  1.00  0.00     0.042 C 
HETATM    5  C   LIG     1      15.614  34.280  20.646  1.00  0.00     0.033 C 
HETATM    6  C   LIG     1      16.117  35.498  19.883  1.00  0.00     0.273 C 
ENDROOT
BRANCH   3   7
HETATM    7  C   LIG     1      17.147  36.418  23.264  1.00  0.00    -0.008 A 
HETATM    8  C   LIG     1      17.475  35.863  24.510  1.00  0.00     0.012 A 
HETATM    9  C   LIG     1      17.520  36.667  25.650  1.00  0.00     0.020 A 
HETATM   10  C   LIG     1      17.232  38.027  25.538  1.00  0.00     0.116 A 
HETATM   11  N   LIG     1      16.908  38.557  24.329  1.00  0.00    -0.273 NA
HETATM   12  C   LIG     1      16.857  37.796  23.203  1.00  0.00     0.125 A 
ENDBRANCH   3   7
TORSDOF 1
ENDMDL
MODEL 6
REMARK VINA RESULT:      -5.7      5.810      9.075
REMARK  1 active torsions:
REMARK  status: ('A' for Active; 'I' for Inactive)
REMARK    1  A    between atoms: C_3  and  C_4 
ROOT
HETATM    1  C   LIG     1      12.606  31.163  16.336  1.00  0.00     0.310 C 
HETATM    2  N   LIG     1      14.075  31.087  16.281  1.00  0.00     0.093 N 
HETATM    3  C   LIG     1      14.691  32.425  16.236  1.00  0.00     0.257 C 
HETATM    4  C   LIG     1      15.932  32.297  15.365  1.00  0.00     0.042 C 
HETATM    5  C   LIG     1      15.565  31.222  14.370  1.00  0.00     0.033 C 
HETATM    6  C   LIG     1      14.542  30.354  15.091  1.00  0.00     0.273 C 
ENDROOT
BRANCH   3   7
HETATM    7  C   LIG     1      15.046  32.943  17.617  1.00  0.00    -0.008 A 
HETATM    8  C   LIG     1      15.042  32.056  18.706  1.00  0.00     0.012 A 
HETATM    9  C   LIG     1      15.360  32.511  19.986  1.00  0.00     0.020 A 
HETATM   10  C   LIG     1      15.677  33.856  20.173  1.00  0.00     0.116 A 
HETATM   11  N   LIG     1      15.672  34.711  19.117  1.00  0.00    -0.273 NA
HETATM   12  C   LIG     1      15.366  34.293  17.859  1.00  0.00     0.125 A 
ENDBRANCH   3   7
TORSDOF 1
ENDMDL
MODEL 7
REMARK VINA RESULT:      -5.4      8.696     10.535
REMARK  1 active torsions:
REMARK  status: ('A' for Active; 'I' for Inactive)
REMARK    1  A    between atoms: C_3  and  C_4 
ROOT
HETATM    1  C   LIG     1      15.328  29.305  14.112  1.00  0.00     0.310 C 
HETATM    2  N   LIG     1      14.482  30.451  14.484  1.00  0.00     0.093 N 
HETATM    3  C   LIG     1      15.051  31.207  15.614  1.00  0.00     0.257 C 
HETATM    4  C   LIG     1      13.871  31.712  16.430  1.00  0.00     0.042 C 
HETATM    5  C   LIG     1      12.819  30.646  16.240  1.00  0.00     0.033 C 
HETATM    6  C   LIG     1      13.129  30.027  14.883  1.00  0.00     0.273 C 
ENDROOT
BRANCH   3   7
HETATM    7  C   LIG     1      15.928  32.357  15.156  1.00  0.00    -0.008 A 
HETATM    8  C   LIG     1      16.576  32.274  13.913  1.00  0.00     0.012 A 
HETATM    9  C   LIG     1      17.392  33.317  13.473  1.00  0.00     0.020 A 
HETATM   10  C   LIG     1      17.560  34.440  14.282  1.00  0.00     0.116 A 
HETATM   11  N   LIG     1      16.936  34.511  15.487  1.00  0.00    -0.273 NA
HETATM   12  C   LIG     1      16.135  33.509  15.939  1.00  0.00     0.125 A 
ENDBRANCH   3   7
TORSDOF 1
ENDMDL
MODEL 8
REMARK VINA RESULT:      -5.4      2.054      2.679
REMARK  1 active torsions:
REMARK  status: ('A' for Active; 'I' for Inactive)
REMARK    1  A    between atoms: C_3  and  C_4 
ROOT
HETATM    1  C   LIG     1      18.404  39.423  21.773  1.00  0.00     0.310 C 
HETATM    2  N   LIG     1      18.214  38.286  22.689  1.00  0.00     0.093 N 
HETATM    3  C   LIG     1      16.794  37.910  22.806  1.00  0.00     0.257 C 
HETATM    4  C   LIG     1      16.591  37.444  24.239  1.00  0.00     0.042 C 
HETATM    5  C   LIG     1      17.578  38.270  25.030  1.00  0.00     0.033 C 
HETATM    6  C   LIG     1      18.696  38.589  24.048  1.00  0.00     0.273 C 
ENDROOT
BRANCH   3   7
HETATM    7  C   LIG     1      16.402  36.825  21.820  1.00  0.00    -0.008 A 
HETATM    8  C   LIG     1      15.131  36.236  21.917  1.00  0.00     0.012 A 
HETATM    9  C   LIG     1      14.750  35.233  21.025  1.00  0.00     0.020 A 
HETATM   10  C   LIG     1      15.646  34.819  20.039  1.00  0.00     0.116 A 
HETATM   11  N   LIG     1      16.877  35.389  19.955  1.00  0.00    -0.273 NA
HETATM   12  C   LIG     1      17.273  36.369  20.812  1.00  0.00     0.125 A 
ENDBRANCH   3   7
TORSDOF 1
ENDMDL
MODEL 9
REMARK VINA RESULT:      -5.4      8.950     11.584
REMARK  1 active torsions:
REMARK  status: ('A' for Active; 'I' for Inactive)
REMARK    1  A    between atoms: C_3  and  C_4 
ROOT
HETATM    1  C   LIG     1      16.222  32.316  13.418  1.00  0.00     0.310 C 
HETATM    2  N   LIG     1      15.996  31.645  14.708  1.00  0.00     0.093 N 
HETATM    3  C   LIG     1      14.592  31.227  14.869  1.00  0.00     0.257 C 
HETATM    4  C   LIG     1      14.266  31.377  16.347  1.00  0.00     0.042 C 
HETATM    5  C   LIG     1      15.124  32.539  16.789  1.00  0.00     0.033 C 
HETATM    6  C   LIG     1      16.319  32.523  15.847  1.00  0.00     0.273 C 
ENDROOT
BRANCH   3   7
HETATM    7  C   LIG     1      14.358  29.802  14.401  1.00  0.00    -0.008 A 
HETATM    8  C   LIG     1      15.458  29.007  14.043  1.00  0.00     0.012 A 
HETATM    9  C   LIG     1      15.266  27.696  13.605  1.00  0.00     0.020 A 
HETATM   10  C   LIG     1      13.971  27.186  13.524  1.00  0.00     0.116 A 
HETATM   11  N   LIG     1      12.910  27.964  13.865  1.00  0.00    -0.273 NA
HETATM   12  C   LIG     1      13.069  29.244  14.295  1.00  0.00     0.125 A 
ENDBRANCH   3   7
TORSDOF 1
ENDMDL
MODEL 10
REMARK VINA RESULT:      -5.4      9.834     11.097
REMARK  1 active torsions:
REMARK  status: ('A' for Active; 'I' for Inactive)
REMARK    1  A    between atoms: C_3  and  C_4 
ROOT
HETATM    1  C   LIG     1      15.173  28.762  13.833  1.00  0.00     0.310 C 
HETATM    2  N   LIG     1      14.460  30.005  14.171  1.00  0.00     0.093 N 
HETATM    3  C   LIG     1      15.165  30.775  15.211  1.00  0.00     0.257 C 
HETATM    4  C   LIG     1      14.089  31.441  16.055  1.00  0.00     0.042 C 
HETATM    5  C   LIG     1      12.934  30.470  15.999  1.00  0.00     0.033 C 
HETATM    6  C   LIG     1      13.101  29.739  14.674  1.00  0.00     0.273 C 
ENDROOT
BRANCH   3   7
HETATM    7  C   LIG     1      16.113  31.804  14.625  1.00  0.00    -0.008 A 
HETATM    8  C   LIG     1      17.108  32.366  15.441  1.00  0.00     0.012 A 
HETATM    9  C   LIG     1      17.987  33.319  14.925  1.00  0.00     0.020 A 
HETATM   10  C   LIG     1      17.864  33.710  13.592  1.00  0.00     0.116 A 
HETATM   11  N   LIG     1      16.895  33.167  12.809  1.00  0.00    -0.273 NA
HETATM   12  C   LIG     1      16.025  32.237  13.287  1.00  0.00     0.125 A 
ENDBRANCH   3   7
TORSDOF 1
ENDMDL
MODEL 11
REMARK VINA RESULT:      -5.3      6.776      9.080
REMARK  1 active torsions:
REMARK  status: ('A' for Active; 'I' for Inactive)
REMARK    1  A    between atoms: C_3  and  C_4 
ROOT
HETATM    1  C   LIG     1      14.827  34.448  17.139  1.00  0.00     0.310 C 
HETATM    2  N   LIG     1      15.249  33.118  17.607  1.00  0.00     0.093 N 
HETATM    3  C   LIG     1      14.269  32.076  17.250  1.00  0.00     0.257 C 
HETATM    4  C   LIG     1      14.283  31.067  18.388  1.00  0.00     0.042 C 
HETATM    5  C   LIG     1      14.607  31.901  19.606  1.00  0.00     0.033 C 
HETATM    6  C   LIG     1      15.412  33.077  19.070  1.00  0.00     0.273 C 
ENDROOT
BRANCH   3   7
HETATM    7  C   LIG     1      14.593  31.408  15.927  1.00  0.00    -0.008 A 
HETATM    8  C   LIG     1      13.778  30.361  15.468  1.00  0.00     0.012 A 
HETATM    9  C   LIG     1      14.060  29.728  14.257  1.00  0.00     0.020 A 
HETATM   10  C   LIG     1      15.161  30.144  13.509  1.00  0.00     0.116 A 
HETATM   11  N   LIG     1      15.950  31.154  13.962  1.00  0.00    -0.273 NA
HETATM   12  C   LIG     1      15.697  31.787  15.139  1.00  0.00     0.125 A 
ENDBRANCH   3   7
TORSDOF 1
ENDMDL
MODEL 12
REMARK VINA RESULT:      -5.2      9.003     12.036
REMARK  1 active torsions:
REMARK  status: ('A' for Active; 'I' for Inactive)
REMARK    1  A    between atoms: C_3  and  C_4 
ROOT
HETATM    1  C   LIG     1      11.921  28.837  13.554  1.00  0.00     0.310 C 
HETATM    2  N   LIG     1      13.186  28.523  14.240  1.00  0.00     0.093 N 
HETATM    3  C   LIG     1      14.182  29.596  14.067  1.00  0.00     0.257 C 
HETATM    4  C   LIG     1      15.539  28.913  13.994  1.00  0.00     0.042 C 
HETATM    5  C   LIG     1      15.238  27.579  13.353  1.00  0.00     0.033 C 
HETATM    6  C   LIG     1      13.793  27.282  13.729  1.00  0.00     0.273 C 
ENDROOT
BRANCH   3   7
HETATM    7  C   LIG     1      14.141  30.608  15.197  1.00  0.00    -0.008 A 
HETATM    8  C   LIG     1      15.175  31.551  15.311  1.00  0.00     0.012 A 
HETATM    9  C   LIG     1      15.161  32.488  16.345  1.00  0.00     0.020 A 
HETATM   10  C   LIG     1      14.114  32.475  17.265  1.00  0.00     0.116 A 
HETATM   11  N   LIG     1      13.121  31.554  17.153  1.00  0.00    -0.273 NA
HETATM   12  C   LIG     1      13.109  30.630  16.155  1.00  0.00     0.125 A 
ENDBRANCH   3   7
TORSDOF 1
ENDMDL
MODEL 13
REMARK VINA RESULT:      -4.8      2.285      3.585
REMARK  1 active torsions:
REMARK  status: ('A' for Active; 'I' for Inactive)
REMARK    1  A    between atoms: C_3  and  C_4 
ROOT
HETATM    1  C   LIG     1      18.688  38.149  24.539  1.00  0.00     0.310 C 
HETATM    2  N   LIG     1      17.728  37.510  23.623  1.00  0.00     0.093 N 
HETATM    3  C   LIG     1      17.365  38.399  22.505  1.00  0.00     0.257 C 
HETATM    4  C   LIG     1      15.908  38.108  22.182  1.00  0.00     0.042 C 
HETATM    5  C   LIG     1      15.313  37.719  23.514  1.00  0.00     0.033 C 
HETATM    6  C   LIG     1      16.477  37.142  24.308  1.00  0.00     0.273 C 
ENDROOT
BRANCH   3   7
HETATM    7  C   LIG     1      18.246  38.185  21.289  1.00  0.00    -0.008 A 
HETATM    8  C   LIG     1      19.134  39.200  20.896  1.00  0.00     0.012 A 
HETATM    9  C   LIG     1      19.950  39.028  19.777  1.00  0.00     0.020 A 
HETATM   10  C   LIG     1      19.872  37.840  19.051  1.00  0.00     0.116 A 
HETATM   11  N   LIG     1      19.005  36.865  19.432  1.00  0.00    -0.273 NA
HETATM   12  C   LIG     1      18.199  37.007  20.518  1.00  0.00     0.125 A 
ENDBRANCH   3   7
TORSDOF 1
ENDMDL
MODEL 14
REMARK VINA RESULT:      -4.1     15.556     16.439
REMARK  1 active torsions:
REMARK  status: ('A' for Active; 'I' for Inactive)
REMARK    1  A    between atoms: C_3  and  C_4 
ROOT
HETATM    1  C   LIG     1      28.309  28.372  37.060  1.00  0.00     0.310 C 
HETATM    2  N   LIG     1      27.073  28.841  36.412  1.00  0.00     0.093 N 
HETATM    3  C   LIG     1      27.357  29.712  35.258  1.00  0.00     0.257 C 
HETATM    4  C   LIG     1      26.249  30.753  35.224  1.00  0.00     0.042 C 
HETATM    5  C   LIG     1      25.883  30.939  36.677  1.00  0.00     0.033 C 
HETATM    6  C   LIG     1      26.226  29.612  37.339  1.00  0.00     0.273 C 
ENDROOT
BRANCH   3   7
HETATM    7  C   LIG     1      27.419  28.940  33.954  1.00  0.00    -0.008 A 
HETATM    8  C   LIG     1      26.391  28.037  33.640  1.00  0.00     0.012 A 
HETATM    9  C   LIG     1      26.430  27.312  32.448  1.00  0.00     0.020 A 
HETATM   10  C   LIG     1      27.502  27.490  31.575  1.00  0.00     0.116 A 
HETATM   11  N   LIG     1      28.498  28.359  31.889  1.00  0.00    -0.273 NA
HETATM   12  C   LIG     1      28.485  29.079  33.043  1.00  0.00     0.125 A 
ENDBRANCH   3   7
TORSDOF 1
ENDMDL
MODEL 15
REMARK VINA RESULT:      -4.0     15.860     17.121
REMARK  1 active torsions:
REMARK  status: ('A' for Active; 'I' for Inactive)
REMARK    1  A    between atoms: C_3  and  C_4 
ROOT
HETATM    1  C   LIG     1      29.701  27.632  34.465  1.00  0.00     0.310 C 
HETATM    2  N   LIG     1      28.574  28.252  33.749  1.00  0.00     0.093 N 
HETATM    3  C   LIG     1      27.277  27.874  34.338  1.00  0.00     0.257 C 
HETATM    4  C   LIG     1      26.292  27.782  33.182  1.00  0.00     0.042 C 
HETATM    5  C   LIG     1      27.143  27.334  32.018  1.00  0.00     0.033 C 
HETATM    6  C   LIG     1      28.540  27.854  32.331  1.00  0.00     0.273 C 
ENDROOT
BRANCH   3   7
HETATM    7  C   LIG     1      26.804  28.871  35.379  1.00  0.00    -0.008 A 
HETATM    8  C   LIG     1      26.311  30.118  34.962  1.00  0.00     0.012 A 
HETATM    9  C   LIG     1      25.876  31.053  35.902  1.00  0.00     0.020 A 
HETATM   10  C   LIG     1      25.938  30.737  37.259  1.00  0.00     0.116 A 
HETATM   11  N   LIG     1      26.422  29.531  37.656  1.00  0.00    -0.273 NA
HETATM   12  C   LIG     1      26.853  28.602  36.761  1.00  0.00     0.125 A 
ENDBRANCH   3   7
TORSDOF 1
ENDMDL
MODEL 16
REMARK VINA RESULT:      -3.9     16.250     17.246
REMARK  1 active torsions:
REMARK  status: ('A' for Active; 'I' for Inactive)
REMARK    1  A    between atoms: C_3  and  C_4 
ROOT
HETATM    1  C   LIG     1      29.200  31.378  35.805  1.00  0.00     0.310 C 
HETATM    2  N   LIG     1      28.238  30.742  36.719  1.00  0.00     0.093 N 
HETATM    3  C   LIG     1      26.958  30.451  36.050  1.00  0.00     0.257 C 
HETATM    4  C   LIG     1      25.872  30.644  37.098  1.00  0.00     0.042 C 
HETATM    5  C   LIG     1      26.423  31.729  37.992  1.00  0.00     0.033 C 
HETATM    6  C   LIG     1      27.936  31.598  37.880  1.00  0.00     0.273 C 
ENDROOT
BRANCH   3   7
HETATM    7  C   LIG     1      26.914  29.049  35.472  1.00  0.00    -0.008 A 
HETATM    8  C   LIG     1      26.540  28.869  34.131  1.00  0.00     0.012 A 
HETATM    9  C   LIG     1      26.487  27.589  33.579  1.00  0.00     0.020 A 
HETATM   10  C   LIG     1      26.806  26.489  34.375  1.00  0.00     0.116 A 
HETATM   11  N   LIG     1      27.160  26.669  35.675  1.00  0.00    -0.273 NA
HETATM   12  C   LIG     1      27.220  27.906  36.237  1.00  0.00     0.125 A 
ENDBRANCH   3   7
TORSDOF 1
ENDMDL
MODEL 17
REMARK VINA RESULT:      -3.9     15.006     15.875
REMARK  1 active torsions:
REMARK  status: ('A' for Active; 'I' for Inactive)
REMARK    1  A    between atoms: C_3  and  C_4 
ROOT
HETATM    1  C   LIG     1      24.950  21.228  18.759  1.00  0.00     0.310 C 
HETATM    2  N   LIG     1      24.270  22.361  19.408  1.00  0.00     0.093 N 
HETATM    3  C   LIG     1      24.912  22.725  20.684  1.00  0.00     0.257 C 
HETATM    4  C   LIG     1      23.796  23.185  21.610  1.00  0.00     0.042 C 
HETATM    5  C   LIG     1      22.605  22.365  21.173  1.00  0.00     0.033 C 
HETATM    6  C   LIG     1      22.859  22.058  19.704  1.00  0.00     0.273 C 
ENDROOT
BRANCH   3   7
HETATM    7  C   LIG     1      25.960  23.809  20.514  1.00  0.00    -0.008 A 
HETATM    8  C   LIG     1      25.810  24.755  19.487  1.00  0.00     0.012 A 
HETATM    9  C   LIG     1      26.764  25.757  19.308  1.00  0.00     0.020 A 
HETATM   10  C   LIG     1      27.869  25.808  20.157  1.00  0.00     0.116 A 
HETATM   11  N   LIG     1      28.012  24.885  21.144  1.00  0.00    -0.273 NA
HETATM   12  C   LIG     1      27.097  23.898  21.341  1.00  0.00     0.125 A 
ENDBRANCH   3   7
TORSDOF 1
ENDMDL
MODEL 18
REMARK VINA RESULT:      -3.8     15.357     16.418
REMARK  1 active torsions:
REMARK  status: ('A' for Active; 'I' for Inactive)
REMARK    1  A    between atoms: C_3  and  C_4 
ROOT
HETATM    1  C   LIG     1      28.328  22.706  18.112  1.00  0.00     0.310 C 
HETATM    2  N   LIG     1      27.674  23.629  19.053  1.00  0.00     0.093 N 
HETATM    3  C   LIG     1      26.355  24.067  18.562  1.00  0.00     0.257 C 
HETATM    4  C   LIG     1      26.180  25.504  19.028  1.00  0.00     0.042 C 
HETATM    5  C   LIG     1      27.587  26.054  19.040  1.00  0.00     0.033 C 
HETATM    6  C   LIG     1      28.478  24.843  19.280  1.00  0.00     0.273 C 
ENDROOT
BRANCH   3   7
HETATM    7  C   LIG     1      25.228  23.188  19.071  1.00  0.00    -0.008 A 
HETATM    8  C   LIG     1      24.453  22.464  18.151  1.00  0.00     0.012 A 
HETATM    9  C   LIG     1      23.407  21.654  18.596  1.00  0.00     0.020 A 
HETATM   10  C   LIG     1      23.139  21.574  19.962  1.00  0.00     0.116 A 
HETATM   11  N   LIG     1      23.889  22.283  20.846  1.00  0.00    -0.273 NA
HETATM   12  C   LIG     1      24.914  23.079  20.440  1.00  0.00     0.125 A 
ENDBRANCH   3   7
TORSDOF 1
ENDMDL
MODEL 19
REMARK VINA RESULT:      -3.8     16.061     17.096
REMARK  1 active torsions:
REMARK  status: ('A' for Active; 'I' for Inactive)
REMARK    1  A    between atoms: C_3  and  C_4 
ROOT
HETATM    1  C   LIG     1      27.721  22.324  20.437  1.00  0.00     0.310 C 
HETATM    2  N   LIG     1      26.580  23.156  20.022  1.00  0.00     0.093 N 
HETATM    3  C   LIG     1      26.320  23.045  18.576  1.00  0.00     0.257 C 
HETATM    4  C   LIG     1      25.835  24.413  18.122  1.00  0.00     0.042 C 
HETATM    5  C   LIG     1      26.553  25.374  19.039  1.00  0.00     0.033 C 
HETATM    6  C   LIG     1      26.805  24.582  20.315  1.00  0.00     0.273 C 
ENDROOT
BRANCH   3   7
HETATM    7  C   LIG     1      25.298  21.971  18.253  1.00  0.00    -0.008 A 
HETATM    8  C   LIG     1      23.946  22.195  18.557  1.00  0.00     0.012 A 
HETATM    9  C   LIG     1      22.990  21.219  18.274  1.00  0.00     0.020 A 
HETATM   10  C   LIG     1      23.392  20.017  17.692  1.00  0.00     0.116 A 
HETATM   11  N   LIG     1      24.704  19.804  17.408  1.00  0.00    -0.273 NA
HETATM   12  C   LIG     1      25.656  20.738  17.672  1.00  0.00     0.125 A 
ENDBRANCH   3   7
TORSDOF 1
ENDMDL
MODEL 20
REMARK VINA RESULT:      -3.7     15.926     17.158
REMARK  1 active torsions:
REMARK  status: ('A' for Active; 'I' for Inactive)
REMARK    1  A    between atoms: C_3  and  C_4 
ROOT
HETATM    1  C   LIG     1      25.827  19.549  19.523  1.00  0.00     0.310 C 
HETATM    2  N   LIG     1      25.115  20.442  18.594  1.00  0.00     0.093 N 
HETATM    3  C   LIG     1      24.421  21.530  19.305  1.00  0.00     0.257 C 
HETATM    4  C   LIG     1      23.145  21.807  18.525  1.00  0.00     0.042 C 
HETATM    5  C   LIG     1      22.776  20.462  17.947  1.00  0.00     0.033 C 
HETATM    6  C   LIG     1      24.099  19.720  17.809  1.00  0.00     0.273 C 
ENDROOT
BRANCH   3   7
HETATM    7  C   LIG     1      25.273  22.781  19.418  1.00  0.00    -0.008 A 
HETATM    8  C   LIG     1      25.514  23.554  18.271  1.00  0.00     0.012 A 
HETATM    9  C   LIG     1      26.299  24.705  18.349  1.00  0.00     0.020 A 
HETATM   10  C   LIG     1      26.844  25.077  19.578  1.00  0.00     0.116 A 
HETATM   11  N   LIG     1      26.613  24.321  20.683  1.00  0.00    -0.273 NA
HETATM   12  C   LIG     1      25.851  23.195  20.634  1.00  0.00     0.125 A 
ENDBRANCH   3   7
TORSDOF 1
ENDMDL
