REMARK  1 active torsions:
REMARK  status: ('A' for Active; 'I' for Inactive)
REMARK    1  A    between atoms: C_3  and  C_4 
ROOT
HETATM    1  C   LIG     1      -1.756   1.825   0.080  1.00  0.00     0.310 C 
HETATM    2  N   LIG     1      -1.220   0.599   0.694  1.00  0.00     0.093 N 
HETATM    3  C   LIG     1      -0.419  -0.186  -0.262  1.00  0.00     0.257 C 
HETATM    4  C   LIG     1      -0.652  -1.649   0.083  1.00  0.00     0.042 C 
HETATM    5  C   LIG     1      -2.066  -1.674   0.613  1.00  0.00     0.033 C 
HETATM    6  C   LIG     1      -2.293  -0.282   1.187  1.00  0.00     0.273 C 
ENDROOT
BRANCH   3   7
HETATM    7  C   LIG     1       1.057   0.160  -0.199  1.00  0.00    -0.008 A 
HETATM    8  C   LIG     1       1.913  -0.294  -1.215  1.00  0.00     0.012 A 
HETATM    9  C   LIG     1       3.275   0.007  -1.175  1.00  0.00     0.020 A 
HETATM   10  C   LIG     1       3.777   0.760  -0.114  1.00  0.00     0.116 A 
HETATM   11  N   LIG     1       2.944   1.190   0.870  1.00  0.00    -0.273 NA
HETATM   12  C   LIG     1       1.613   0.911   0.855  1.00  0.00     0.125 A 
ENDBRANCH   3   7
TORSDOF 1
