REMARK  2 active torsions:
REMARK  status: ('A' for Active; 'I' for Inactive)
REMARK    1  A    between atoms: C_2  and  C_3 
REMARK       I    between atoms: C_2  and  N_9 
REMARK    2  A    between atoms: N_9  and  N_10 
ROOT
HETATM    1  O   LIG     1       1.683  -1.462   0.455  1.00  0.00    -0.266 OA
HETATM    2  C   LIG     1       1.165  -0.383   0.057  1.00  0.00     0.265 C 
HETATM    3  N   LIG     1       2.016   0.673  -0.418  1.00  0.00    -0.290 N 
HETATM    4  H   LIG     1       1.609   1.508  -0.892  1.00  0.00     0.183 HD
ENDROOT
BRANCH   2   5
HETATM    5  C   LIG     1      -0.311  -0.236   0.070  1.00  0.00     0.036 A 
HETATM    6  C   LIG     1      -1.132  -1.377   0.061  1.00  0.00     0.036 A 
HETATM    7  C   LIG     1      -2.521  -1.233   0.080  1.00  0.00     0.117 A 
HETATM    8  N   LIG     1      -3.078   0.006   0.116  1.00  0.00    -0.273 NA
HETATM    9  C   LIG     1      -2.314   1.129   0.136  1.00  0.00     0.117 A 
HETATM   10  C   LIG     1      -0.920   1.031   0.117  1.00  0.00     0.036 A 
ENDBRANCH   2   5
BRANCH   3  11
HETATM   11  N   LIG     1       3.414   0.587  -0.318  1.00  0.00    -0.247 NA
HETATM   12  H   LIG     1       3.654   0.472   0.693  1.00  0.00     0.143 HD
HETATM   13  H   LIG     1       3.719  -0.277  -0.822  1.00  0.00     0.143 HD
ENDBRANCH   3  11
TORSDOF 2
