MODEL 1
REMARK VINA RESULT:      -6.0      0.000      0.000
REMARK  2 active torsions:
REMARK  status: ('A' for Active; 'I' for Inactive)
REMARK    1  A    between atoms: C_2  and  C_3 
REMARK       I    between atoms: C_2  and  N_9 
REMARK    2  A    between atoms: N_9  and  N_10 
ROOT
HETATM    1  O   LIG     1      15.844  38.255  23.305  1.00  0.00    -0.266 OA
HETATM    2  C   LIG     1      17.105  38.248  23.250  1.00  0.00     0.265 C 
HETATM    3  N   LIG     1      17.862  38.309  24.470  1.00  0.00    -0.290 N 
HETATM    4  H   LIG     1      18.893  38.150  24.461  1.00  0.00     0.183 HD
ENDROOT
BRANCH   2   5
HETATM    5  C   LIG     1      17.775  38.157  21.930  1.00  0.00     0.036 A 
HETATM    6  C   LIG     1      18.486  39.260  21.425  1.00  0.00     0.036 A 
HETATM    7  C   LIG     1      19.121  39.167  20.184  1.00  0.00     0.117 A 
HETATM    8  N   LIG     1      19.060  38.011  19.472  1.00  0.00    -0.273 NA
HETATM    9  C   LIG     1      18.391  36.924  19.936  1.00  0.00     0.117 A 
HETATM   10  C   LIG     1      17.740  36.974  21.172  1.00  0.00     0.036 A 
ENDBRANCH   2   5
BRANCH   3  11
HETATM   11  N   LIG     1      17.238  38.518  25.710  1.00  0.00    -0.247 NA
HETATM   12  H   LIG     1      17.986  38.581  26.437  1.00  0.00     0.143 HD
HETATM   13  H   LIG     1      16.748  39.442  25.671  1.00  0.00     0.143 HD
ENDBRANCH   3  11
TORSDOF 2
ENDMDL
MODEL 2
REMARK VINA RESULT:      -6.0      2.186      4.195
REMARK  2 active torsions:
REMARK  status: ('A' for Active; 'I' for Inactive)
REMARK    1  A    between atoms: C_2  and  C_3 
REMARK       I    between atoms: C_2  and  N_9 
REMARK    2  A    between atoms: N_9  and  N_10 
ROOT
HETATM    1  O   LIG     1      19.269  37.099  19.458  1.00  0.00    -0.266 OA
HETATM    2  C   LIG     1      19.006  38.128  20.139  1.00  0.00     0.265 C 
HETATM    3  N   LIG     1      19.666  39.365  19.827  1.00  0.00    -0.290 N 
HETATM    4  H   LIG     1      19.356  40.257  20.270  1.00  0.00     0.183 HD
ENDROOT
BRANCH   2   5
HETATM    5  C   LIG     1      18.009  38.041  21.233  1.00  0.00     0.036 A 
HETATM    6  C   LIG     1      17.799  39.141  22.083  1.00  0.00     0.036 A 
HETATM    7  C   LIG     1      16.854  39.057  23.108  1.00  0.00     0.117 A 
HETATM    8  N   LIG     1      16.132  37.918  23.278  1.00  0.00    -0.273 NA
HETATM    9  C   LIG     1      16.301  36.841  22.468  1.00  0.00     0.117 A 
HETATM   10  C   LIG     1      17.237  36.882  21.431  1.00  0.00     0.036 A 
ENDBRANCH   2   5
BRANCH   3  11
HETATM   11  N   LIG     1      20.698  39.425  18.877  1.00  0.00    -0.247 NA
HETATM   12  H   LIG     1      20.274  39.707  17.964  1.00  0.00     0.143 HD
HETATM   13  H   LIG     1      21.362  40.178  19.171  1.00  0.00     0.143 HD
ENDBRANCH   3  11
TORSDOF 2
ENDMDL
MODEL 3
REMARK VINA RESULT:      -6.0      2.652      4.688
REMARK  2 active torsions:
REMARK  status: ('A' for Active; 'I' for Inactive)
REMARK    1  A    between atoms: C_2  and  C_3 
REMARK       I    between atoms: C_2  and  N_9 
REMARK    2  A    between atoms: N_9  and  N_10 
ROOT
HETATM    1  O   LIG     1      20.636  39.290  19.442  1.00  0.00    -0.266 OA
HETATM    2  C   LIG     1      19.450  38.959  19.170  1.00  0.00     0.265 C 
HETATM    3  N   LIG     1      18.909  39.275  17.877  1.00  0.00    -0.290 N 
HETATM    4  H   LIG     1      17.993  38.879  17.575  1.00  0.00     0.183 HD
ENDROOT
BRANCH   2   5
HETATM    5  C   LIG     1      18.646  38.233  20.184  1.00  0.00     0.036 A 
HETATM    6  C   LIG     1      18.152  38.914  21.310  1.00  0.00     0.036 A 
HETATM    7  C   LIG     1      17.391  38.228  22.258  1.00  0.00     0.117 A 
HETATM    8  N   LIG     1      17.120  36.907  22.089  1.00  0.00    -0.273 NA
HETATM    9  C   LIG     1      17.573  36.221  21.008  1.00  0.00     0.117 A 
HETATM   10  C   LIG     1      18.340  36.868  20.035  1.00  0.00     0.036 A 
ENDBRANCH   2   5
BRANCH   3  11
HETATM   11  N   LIG     1      19.620  40.067  16.960  1.00  0.00    -0.247 NA
HETATM   12  H   LIG     1      19.948  40.921  17.466  1.00  0.00     0.143 HD
HETATM   13  H   LIG     1      20.463  39.528  16.657  1.00  0.00     0.143 HD
ENDBRANCH   3  11
TORSDOF 2
ENDMDL
MODEL 4
REMARK VINA RESULT:      -5.9      2.825      3.701
REMARK  2 active torsions:
REMARK  status: ('A' for Active; 'I' for Inactive)
REMARK    1  A    between atoms: C_2  and  C_3 
REMARK       I    between atoms: C_2  and  N_9 
REMARK    2  A    between atoms: N_9  and  N_10 
ROOT
HETATM    1  O   LIG     1      17.110  35.350  21.961  1.00  0.00    -0.266 OA
HETATM    2  C   LIG     1      17.164  35.884  20.820  1.00  0.00     0.265 C 
HETATM    3  N   LIG     1      16.386  35.330  19.746  1.00  0.00    -0.290 N 
HETATM    4  H   LIG     1      16.294  35.840  18.841  1.00  0.00     0.183 HD
ENDROOT
BRANCH   2   5
HETATM    5  C   LIG     1      18.014  37.082  20.617  1.00  0.00     0.036 A 
HETATM    6  C   LIG     1      18.981  37.095  19.597  1.00  0.00     0.036 A 
HETATM    7  C   LIG     1      19.774  38.228  19.406  1.00  0.00     0.117 A 
HETATM    8  N   LIG     1      19.606  39.320  20.197  1.00  0.00    -0.273 NA
HETATM    9  C   LIG     1      18.673  39.345  21.185  1.00  0.00     0.117 A 
HETATM   10  C   LIG     1      17.859  38.232  21.412  1.00  0.00     0.036 A 
ENDBRANCH   2   5
BRANCH   3  11
HETATM   11  N   LIG     1      15.678  34.127  19.900  1.00  0.00    -0.247 NA
HETATM   12  H   LIG     1      15.661  33.647  18.972  1.00  0.00     0.143 HD
HETATM   13  H   LIG     1      16.213  33.523  20.566  1.00  0.00     0.143 HD
ENDBRANCH   3  11
TORSDOF 2
ENDMDL
MODEL 5
REMARK VINA RESULT:      -5.7      7.592      8.940
REMARK  2 active torsions:
REMARK  status: ('A' for Active; 'I' for Inactive)
REMARK    1  A    between atoms: C_2  and  C_3 
REMARK       I    between atoms: C_2  and  N_9 
REMARK    2  A    between atoms: N_9  and  N_10 
ROOT
HETATM    1  O   LIG     1      15.748  34.580  16.415  1.00  0.00    -0.266 OA
HETATM    2  C   LIG     1      15.246  33.625  17.069  1.00  0.00     0.265 C 
HETATM    3  N   LIG     1      15.119  33.740  18.496  1.00  0.00    -0.290 N 
HETATM    4  H   LIG     1      14.572  33.035  19.036  1.00  0.00     0.183 HD
ENDROOT
BRANCH   2   5
HETATM    5  C   LIG     1      14.781  32.415  16.348  1.00  0.00     0.036 A 
HETATM    6  C   LIG     1      13.592  31.776  16.741  1.00  0.00     0.036 A 
HETATM    7  C   LIG     1      13.156  30.640  16.055  1.00  0.00     0.117 A 
HETATM    8  N   LIG     1      13.873  30.159  15.006  1.00  0.00    -0.273 NA
HETATM    9  C   LIG     1      15.021  30.758  14.594  1.00  0.00     0.117 A 
HETATM   10  C   LIG     1      15.494  31.896  15.252  1.00  0.00     0.036 A 
ENDBRANCH   2   5
BRANCH   3  11
HETATM   11  N   LIG     1      15.668  34.827  19.194  1.00  0.00    -0.247 NA
HETATM   12  H   LIG     1      15.959  35.543  18.490  1.00  0.00     0.143 HD
HETATM   13  H   LIG     1      14.911  35.244  19.784  1.00  0.00     0.143 HD
ENDBRANCH   3  11
TORSDOF 2
ENDMDL
MODEL 6
REMARK VINA RESULT:      -5.7     10.134     11.805
REMARK  2 active torsions:
REMARK  status: ('A' for Active; 'I' for Inactive)
REMARK    1  A    between atoms: C_2  and  C_3 
REMARK       I    between atoms: C_2  and  N_9 
REMARK    2  A    between atoms: N_9  and  N_10 
ROOT
HETATM    1  O   LIG     1      14.830  28.374  13.800  1.00  0.00    -0.266 OA
HETATM    2  C   LIG     1      13.975  29.176  14.266  1.00  0.00     0.265 C 
HETATM    3  N   LIG     1      12.579  28.854  14.162  1.00  0.00    -0.290 N 
HETATM    4  H   LIG     1      11.866  29.420  14.671  1.00  0.00     0.183 HD
ENDROOT
BRANCH   2   5
HETATM    5  C   LIG     1      14.432  30.423  14.928  1.00  0.00     0.036 A 
HETATM    6  C   LIG     1      13.782  30.882  16.087  1.00  0.00     0.036 A 
HETATM    7  C   LIG     1      14.220  32.053  16.709  1.00  0.00     0.117 A 
HETATM    8  N   LIG     1      15.276  32.742  16.202  1.00  0.00    -0.273 NA
HETATM    9  C   LIG     1      15.933  32.320  15.090  1.00  0.00     0.117 A 
HETATM   10  C   LIG     1      15.527  31.154  14.435  1.00  0.00     0.036 A 
ENDBRANCH   2   5
BRANCH   3  11
HETATM   11  N   LIG     1      12.137  27.740  13.431  1.00  0.00    -0.247 NA
HETATM   12  H   LIG     1      12.699  26.914  13.739  1.00  0.00     0.143 HD
HETATM   13  H   LIG     1      11.138  27.564  13.687  1.00  0.00     0.143 HD
ENDBRANCH   3  11
TORSDOF 2
ENDMDL
MODEL 7
REMARK VINA RESULT:      -5.7      3.085      5.023
REMARK  2 active torsions:
REMARK  status: ('A' for Active; 'I' for Inactive)
REMARK    1  A    between atoms: C_2  and  C_3 
REMARK       I    between atoms: C_2  and  N_9 
REMARK    2  A    between atoms: N_9  and  N_10 
ROOT
HETATM    1  O   LIG     1      17.539  36.091  19.762  1.00  0.00    -0.266 OA
HETATM    2  C   LIG     1      16.673  35.694  20.589  1.00  0.00     0.265 C 
HETATM    3  N   LIG     1      15.589  34.869  20.131  1.00  0.00    -0.290 N 
HETATM    4  H   LIG     1      14.952  34.405  20.813  1.00  0.00     0.183 HD
ENDROOT
BRANCH   2   5
HETATM    5  C   LIG     1      16.804  36.070  22.018  1.00  0.00     0.036 A 
HETATM    6  C   LIG     1      17.042  35.080  22.987  1.00  0.00     0.036 A 
HETATM    7  C   LIG     1      17.171  35.441  24.330  1.00  0.00     0.117 A 
HETATM    8  N   LIG     1      17.076  36.745  24.699  1.00  0.00    -0.273 NA
HETATM    9  C   LIG     1      16.857  37.728  23.786  1.00  0.00     0.117 A 
HETATM   10  C   LIG     1      16.721  37.412  22.432  1.00  0.00     0.036 A 
ENDBRANCH   2   5
BRANCH   3  11
HETATM   11  N   LIG     1      15.392  34.613  18.764  1.00  0.00    -0.247 NA
HETATM   12  H   LIG     1      16.267  34.176  18.393  1.00  0.00     0.143 HD
HETATM   13  H   LIG     1      14.620  33.912  18.677  1.00  0.00     0.143 HD
ENDBRANCH   3  11
TORSDOF 2
ENDMDL
MODEL 8
REMARK VINA RESULT:      -5.6      9.593     11.244
REMARK  2 active torsions:
REMARK  status: ('A' for Active; 'I' for Inactive)
REMARK    1  A    between atoms: C_2  and  C_3 
REMARK       I    between atoms: C_2  and  N_9 
REMARK    2  A    between atoms: N_9  and  N_10 
ROOT
HETATM    1  O   LIG     1      14.959  29.099  13.729  1.00  0.00    -0.266 OA
HETATM    2  C   LIG     1      14.134  29.727  14.448  1.00  0.00     0.265 C 
HETATM    3  N   LIG     1      12.764  29.294  14.488  1.00  0.00    -0.290 N 
HETATM    4  H   LIG     1      12.102  29.697  15.186  1.00  0.00     0.183 HD
ENDROOT
BRANCH   2   5
HETATM    5  C   LIG     1      14.600  30.883  15.251  1.00  0.00     0.036 A 
HETATM    6  C   LIG     1      15.721  31.623  14.834  1.00  0.00     0.036 A 
HETATM    7  C   LIG     1      16.152  32.716  15.590  1.00  0.00     0.117 A 
HETATM    8  N   LIG     1      15.485  33.068  16.720  1.00  0.00    -0.273 NA
HETATM    9  C   LIG     1      14.393  32.382  17.146  1.00  0.00     0.117 A 
HETATM   10  C   LIG     1      13.928  31.282  16.420  1.00  0.00     0.036 A 
ENDBRANCH   2   5
BRANCH   3  11
HETATM   11  N   LIG     1      12.292  28.280  13.639  1.00  0.00    -0.247 NA
HETATM   12  H   LIG     1      12.125  28.705  12.698  1.00  0.00     0.143 HD
HETATM   13  H   LIG     1      13.050  27.566  13.540  1.00  0.00     0.143 HD
ENDBRANCH   3  11
TORSDOF 2
ENDMDL
MODEL 9
REMARK VINA RESULT:      -5.6      9.396     10.566
REMARK  2 active torsions:
REMARK  status: ('A' for Active; 'I' for Inactive)
REMARK    1  A    between atoms: C_2  and  C_3 
REMARK       I    between atoms: C_2  and  N_9 
REMARK    2  A    between atoms: N_9  and  N_10 
ROOT
HETATM    1  O   LIG     1      17.562  32.247  15.327  1.00  0.00    -0.266 OA
HETATM    2  C   LIG     1      16.487  32.142  14.674  1.00  0.00     0.265 C 
HETATM    3  N   LIG     1      16.495  32.398  13.260  1.00  0.00    -0.290 N 
HETATM    4  H   LIG     1      15.661  32.170  12.677  1.00  0.00     0.183 HD
ENDROOT
BRANCH   2   5
HETATM    5  C   LIG     1      15.246  31.736  15.378  1.00  0.00     0.036 A 
HETATM    6  C   LIG     1      14.853  32.401  16.552  1.00  0.00     0.036 A 
HETATM    7  C   LIG     1      13.680  32.020  17.206  1.00  0.00     0.117 A 
HETATM    8  N   LIG     1      12.915  31.015  16.705  1.00  0.00    -0.273 NA
HETATM    9  C   LIG     1      13.260  30.358  15.567  1.00  0.00     0.117 A 
HETATM   10  C   LIG     1      14.426  30.706  14.881  1.00  0.00     0.036 A 
ENDBRANCH   2   5
BRANCH   3  11
HETATM   11  N   LIG     1      17.635  32.900  12.614  1.00  0.00    -0.247 NA
HETATM   12  H   LIG     1      18.442  32.286  12.870  1.00  0.00     0.143 HD
HETATM   13  H   LIG     1      17.482  32.816  11.582  1.00  0.00     0.143 HD
ENDBRANCH   3  11
TORSDOF 2
ENDMDL
MODEL 10
REMARK VINA RESULT:      -5.5      7.899      9.117
REMARK  2 active torsions:
REMARK  status: ('A' for Active; 'I' for Inactive)
REMARK    1  A    between atoms: C_2  and  C_3 
REMARK       I    between atoms: C_2  and  N_9 
REMARK    2  A    between atoms: N_9  and  N_10 
ROOT
HETATM    1  O   LIG     1      15.360  33.518  18.137  1.00  0.00    -0.266 OA
HETATM    2  C   LIG     1      14.880  32.385  17.858  1.00  0.00     0.265 C 
HETATM    3  N   LIG     1      14.238  31.620  18.890  1.00  0.00    -0.290 N 
HETATM    4  H   LIG     1      13.703  30.756  18.654  1.00  0.00     0.183 HD
ENDROOT
BRANCH   2   5
HETATM    5  C   LIG     1      14.973  31.878  16.467  1.00  0.00     0.036 A 
HETATM    6  C   LIG     1      14.099  30.870  16.026  1.00  0.00     0.036 A 
HETATM    7  C   LIG     1      14.186  30.401  14.713  1.00  0.00     0.117 A 
HETATM    8  N   LIG     1      15.108  30.923  13.862  1.00  0.00    -0.273 NA
HETATM    9  C   LIG     1      15.961  31.905  14.253  1.00  0.00     0.117 A 
HETATM   10  C   LIG     1      15.909  32.403  15.557  1.00  0.00     0.036 A 
ENDBRANCH   2   5
BRANCH   3  11
HETATM   11  N   LIG     1      14.256  32.038  20.230  1.00  0.00    -0.247 NA
HETATM   12  H   LIG     1      13.347  31.756  20.664  1.00  0.00     0.143 HD
HETATM   13  H   LIG     1      15.021  31.519  20.719  1.00  0.00     0.143 HD
ENDBRANCH   3  11
TORSDOF 2
ENDMDL
MODEL 11
REMARK VINA RESULT:      -5.5      3.115      4.939
REMARK  2 active torsions:
REMARK  status: ('A' for Active; 'I' for Inactive)
REMARK    1  A    between atoms: C_2  and  C_3 
REMARK       I    between atoms: C_2  and  N_9 
REMARK    2  A    between atoms: N_9  and  N_10 
ROOT
HETATM    1  O   LIG     1      15.784  34.706  22.325  1.00  0.00    -0.266 OA
HETATM    2  C   LIG     1      16.709  35.546  22.495  1.00  0.00     0.265 C 
HETATM    3  N   LIG     1      17.320  36.163  21.350  1.00  0.00    -0.290 N 
HETATM    4  H   LIG     1      17.974  36.967  21.467  1.00  0.00     0.183 HD
ENDROOT
BRANCH   2   5
HETATM    5  C   LIG     1      17.132  35.894  23.874  1.00  0.00     0.036 A 
HETATM    6  C   LIG     1      17.244  37.242  24.257  1.00  0.00     0.036 A 
HETATM    7  C   LIG     1      17.636  37.564  25.558  1.00  0.00     0.117 A 
HETATM    8  N   LIG     1      17.900  36.577  26.455  1.00  0.00    -0.273 NA
HETATM    9  C   LIG     1      17.791  35.265  26.121  1.00  0.00     0.117 A 
HETATM   10  C   LIG     1      17.403  34.898  24.830  1.00  0.00     0.036 A 
ENDBRANCH   2   5
BRANCH   3  11
HETATM   11  N   LIG     1      17.010  35.749  20.044  1.00  0.00    -0.247 NA
HETATM   12  H   LIG     1      17.194  36.554  19.403  1.00  0.00     0.143 HD
HETATM   13  H   LIG     1      17.667  34.977  19.788  1.00  0.00     0.143 HD
ENDBRANCH   3  11
TORSDOF 2
ENDMDL
MODEL 12
REMARK VINA RESULT:      -5.2      9.353     11.170
REMARK  2 active torsions:
REMARK  status: ('A' for Active; 'I' for Inactive)
REMARK    1  A    between atoms: C_2  and  C_3 
REMARK       I    between atoms: C_2  and  N_9 
REMARK    2  A    between atoms: N_9  and  N_10 
ROOT
HETATM    1  O   LIG     1      13.071  29.698  14.803  1.00  0.00    -0.266 OA
HETATM    2  C   LIG     1      14.276  29.871  14.475  1.00  0.00     0.265 C 
HETATM    3  N   LIG     1      14.939  28.874  13.680  1.00  0.00    -0.290 N 
HETATM    4  H   LIG     1      15.879  29.063  13.269  1.00  0.00     0.183 HD
ENDROOT
BRANCH   2   5
HETATM    5  C   LIG     1      14.976  31.107  14.900  1.00  0.00     0.036 A 
HETATM    6  C   LIG     1      15.975  31.667  14.084  1.00  0.00     0.036 A 
HETATM    7  C   LIG     1      16.626  32.835  14.486  1.00  0.00     0.117 A 
HETATM    8  N   LIG     1      16.290  33.435  15.658  1.00  0.00    -0.273 NA
HETATM    9  C   LIG     1      15.322  32.927  16.465  1.00  0.00     0.117 A 
HETATM   10  C   LIG     1      14.646  31.759  16.102  1.00  0.00     0.036 A 
ENDBRANCH   2   5
BRANCH   3  11
HETATM   11  N   LIG     1      14.322  27.648  13.379  1.00  0.00    -0.247 NA
HETATM   12  H   LIG     1      14.859  27.205  12.600  1.00  0.00     0.143 HD
HETATM   13  H   LIG     1      14.406  27.032  14.220  1.00  0.00     0.143 HD
ENDBRANCH   3  11
TORSDOF 2
ENDMDL
MODEL 13
REMARK VINA RESULT:      -5.1      3.512      5.126
REMARK  2 active torsions:
REMARK  status: ('A' for Active; 'I' for Inactive)
REMARK    1  A    between atoms: C_2  and  C_3 
REMARK       I    between atoms: C_2  and  N_9 
REMARK    2  A    between atoms: N_9  and  N_10 
ROOT
HETATM    1  O   LIG     1      15.651  33.442  20.650  1.00  0.00    -0.266 OA
HETATM    2  C   LIG     1      15.770  34.560  20.078  1.00  0.00     0.265 C 
HETATM    3  N   LIG     1      15.459  34.671  18.680  1.00  0.00    -0.290 N 
HETATM    4  H   LIG     1      15.401  35.607  18.223  1.00  0.00     0.183 HD
ENDROOT
BRANCH   2   5
HETATM    5  C   LIG     1      16.208  35.738  20.866  1.00  0.00     0.036 A 
HETATM    6  C   LIG     1      15.356  36.290  21.839  1.00  0.00     0.036 A 
HETATM    7  C   LIG     1      15.777  37.395  22.583  1.00  0.00     0.117 A 
HETATM    8  N   LIG     1      17.008  37.930  22.373  1.00  0.00    -0.273 NA
HETATM    9  C   LIG     1      17.859  37.415  21.448  1.00  0.00     0.117 A 
HETATM   10  C   LIG     1      17.479  36.310  20.681  1.00  0.00     0.036 A 
ENDBRANCH   2   5
BRANCH   3  11
HETATM   11  N   LIG     1      15.164  33.538  17.903  1.00  0.00    -0.247 NA
HETATM   12  H   LIG     1      15.522  33.713  16.937  1.00  0.00     0.143 HD
HETATM   13  H   LIG     1      15.693  32.729  18.302  1.00  0.00     0.143 HD
ENDBRANCH   3  11
TORSDOF 2
ENDMDL
MODEL 14
REMARK VINA RESULT:      -4.9      1.828      4.300
REMARK  2 active torsions:
REMARK  status: ('A' for Active; 'I' for Inactive)
REMARK    1  A    between atoms: C_2  and  C_3 
REMARK       I    between atoms: C_2  and  N_9 
REMARK    2  A    between atoms: N_9  and  N_10 
ROOT
HETATM    1  O   LIG     1      18.820  39.870  20.848  1.00  0.00    -0.266 OA
HETATM    2  C   LIG     1      18.415  38.692  21.048  1.00  0.00     0.265 C 
HETATM    3  N   LIG     1      18.646  37.689  20.046  1.00  0.00    -0.290 N 
HETATM    4  H   LIG     1      18.461  36.683  20.251  1.00  0.00     0.183 HD
ENDROOT
BRANCH   2   5
HETATM    5  C   LIG     1      17.728  38.365  22.322  1.00  0.00     0.036 A 
HETATM    6  C   LIG     1      18.418  38.472  23.542  1.00  0.00     0.036 A 
HETATM    7  C   LIG     1      17.764  38.169  24.738  1.00  0.00     0.117 A 
HETATM    8  N   LIG     1      16.462  37.781  24.724  1.00  0.00    -0.273 NA
HETATM    9  C   LIG     1      15.763  37.677  23.564  1.00  0.00     0.117 A 
HETATM   10  C   LIG     1      16.379  37.969  22.344  1.00  0.00     0.036 A 
ENDBRANCH   2   5
BRANCH   3  11
HETATM   11  N   LIG     1      19.185  38.018  18.792  1.00  0.00    -0.247 NA
HETATM   12  H   LIG     1      20.226  38.012  18.881  1.00  0.00     0.143 HD
HETATM   13  H   LIG     1      18.915  37.264  18.119  1.00  0.00     0.143 HD
ENDBRANCH   3  11
TORSDOF 2
ENDMDL
MODEL 15
REMARK VINA RESULT:      -4.8     10.145     10.950
REMARK  2 active torsions:
REMARK  status: ('A' for Active; 'I' for Inactive)
REMARK    1  A    between atoms: C_2  and  C_3 
REMARK       I    between atoms: C_2  and  N_9 
REMARK    2  A    between atoms: N_9  and  N_10 
ROOT
HETATM    1  O   LIG     1      17.507  34.871  13.955  1.00  0.00    -0.266 OA
HETATM    2  C   LIG     1      17.801  34.057  13.037  1.00  0.00     0.265 C 
HETATM    3  N   LIG     1      17.017  32.863  12.878  1.00  0.00    -0.290 N 
HETATM    4  H   LIG     1      17.142  32.256  12.039  1.00  0.00     0.183 HD
ENDROOT
BRANCH   2   5
HETATM    5  C   LIG     1      18.935  34.361  12.130  1.00  0.00     0.036 A 
HETATM    6  C   LIG     1      20.255  34.124  12.552  1.00  0.00     0.036 A 
HETATM    7  C   LIG     1      21.319  34.406  11.692  1.00  0.00     0.117 A 
HETATM    8  N   LIG     1      21.079  34.898  10.448  1.00  0.00    -0.273 NA
HETATM    9  C   LIG     1      19.816  35.129  10.006  1.00  0.00     0.117 A 
HETATM   10  C   LIG     1      18.722  34.862  10.834  1.00  0.00     0.036 A 
ENDBRANCH   2   5
BRANCH   3  11
HETATM   11  N   LIG     1      16.024  32.511  13.806  1.00  0.00    -0.247 NA
HETATM   12  H   LIG     1      16.279  31.581  14.208  1.00  0.00     0.143 HD
HETATM   13  H   LIG     1      16.044  33.214  14.580  1.00  0.00     0.143 HD
ENDBRANCH   3  11
TORSDOF 2
ENDMDL
MODEL 16
REMARK VINA RESULT:      -4.5      3.272      4.683
REMARK  2 active torsions:
REMARK  status: ('A' for Active; 'I' for Inactive)
REMARK    1  A    between atoms: C_2  and  C_3 
REMARK       I    between atoms: C_2  and  N_9 
REMARK    2  A    between atoms: N_9  and  N_10 
ROOT
HETATM    1  O   LIG     1      18.339  36.703  18.511  1.00  0.00    -0.266 OA
HETATM    2  C   LIG     1      18.263  36.954  19.745  1.00  0.00     0.265 C 
HETATM    3  N   LIG     1      19.052  38.021  20.296  1.00  0.00    -0.290 N 
HETATM    4  H   LIG     1      18.893  38.346  21.275  1.00  0.00     0.183 HD
ENDROOT
BRANCH   2   5
HETATM    5  C   LIG     1      17.347  36.155  20.595  1.00  0.00     0.036 A 
HETATM    6  C   LIG     1      16.342  35.371  20.003  1.00  0.00     0.036 A 
HETATM    7  C   LIG     1      15.486  34.615  20.808  1.00  0.00     0.117 A 
HETATM    8  N   LIG     1      15.630  34.630  22.159  1.00  0.00    -0.273 NA
HETATM    9  C   LIG     1      16.597  35.368  22.763  1.00  0.00     0.117 A 
HETATM   10  C   LIG     1      17.474  36.140  21.996  1.00  0.00     0.036 A 
ENDBRANCH   2   5
BRANCH   3  11
HETATM   11  N   LIG     1      20.009  38.698  19.523  1.00  0.00    -0.247 NA
HETATM   12  H   LIG     1      20.211  38.111  18.682  1.00  0.00     0.143 HD
HETATM   13  H   LIG     1      19.581  39.594  19.196  1.00  0.00     0.143 HD
ENDBRANCH   3  11
TORSDOF 2
ENDMDL
MODEL 17
REMARK VINA RESULT:      -4.5      9.440     10.512
REMARK  2 active torsions:
REMARK  status: ('A' for Active; 'I' for Inactive)
REMARK    1  A    between atoms: C_2  and  C_3 
REMARK       I    between atoms: C_2  and  N_9 
REMARK    2  A    between atoms: N_9  and  N_10 
ROOT
HETATM    1  O   LIG     1      17.299  34.846  12.640  1.00  0.00    -0.266 OA
HETATM    2  C   LIG     1      17.739  33.852  13.280  1.00  0.00     0.265 C 
HETATM    3  N   LIG     1      19.157  33.626  13.340  1.00  0.00    -0.290 N 
HETATM    4  H   LIG     1      19.551  32.906  13.983  1.00  0.00     0.183 HD
ENDROOT
BRANCH   2   5
HETATM    5  C   LIG     1      16.785  32.951  13.971  1.00  0.00     0.036 A 
HETATM    6  C   LIG     1      16.187  31.888  13.271  1.00  0.00     0.036 A 
HETATM    7  C   LIG     1      15.295  31.039  13.928  1.00  0.00     0.117 A 
HETATM    8  N   LIG     1      15.011  31.232  15.243  1.00  0.00    -0.273 NA
HETATM    9  C   LIG     1      15.579  32.243  15.952  1.00  0.00     0.117 A 
HETATM   10  C   LIG     1      16.476  33.117  15.333  1.00  0.00     0.036 A 
ENDBRANCH   2   5
BRANCH   3  11
HETATM   11  N   LIG     1      20.054  34.402  12.588  1.00  0.00    -0.247 NA
HETATM   12  H   LIG     1      20.993  33.946  12.645  1.00  0.00     0.143 HD
HETATM   13  H   LIG     1      19.743  34.376  11.590  1.00  0.00     0.143 HD
ENDBRANCH   3  11
TORSDOF 2
ENDMDL
MODEL 18
REMARK VINA RESULT:      -4.4      7.371      9.086
REMARK  2 active torsions:
REMARK  status: ('A' for Active; 'I' for Inactive)
REMARK    1  A    between atoms: C_2  and  C_3 
REMARK       I    between atoms: C_2  and  N_9 
REMARK    2  A    between atoms: N_9  and  N_10 
ROOT
HETATM    1  O   LIG     1      13.124  30.487  17.165  1.00  0.00    -0.266 OA
HETATM    2  C   LIG     1      14.108  31.167  16.766  1.00  0.00     0.265 C 
HETATM    3  N   LIG     1      14.679  30.889  15.477  1.00  0.00    -0.290 N 
HETATM    4  H   LIG     1      15.388  31.532  15.062  1.00  0.00     0.183 HD
ENDROOT
BRANCH   2   5
HETATM    5  C   LIG     1      14.642  32.250  17.628  1.00  0.00     0.036 A 
HETATM    6  C   LIG     1      14.925  31.998  18.981  1.00  0.00     0.036 A 
HETATM    7  C   LIG     1      15.433  33.020  19.786  1.00  0.00     0.117 A 
HETATM    8  N   LIG     1      15.662  34.253  19.261  1.00  0.00    -0.273 NA
HETATM    9  C   LIG     1      15.409  34.527  17.955  1.00  0.00     0.117 A 
HETATM   10  C   LIG     1      14.899  33.534  17.114  1.00  0.00     0.036 A 
ENDBRANCH   2   5
BRANCH   3  11
HETATM   11  N   LIG     1      14.259  29.788  14.713  1.00  0.00    -0.247 NA
HETATM   12  H   LIG     1      13.215  29.761  14.742  1.00  0.00     0.143 HD
HETATM   13  H   LIG     1      14.550  29.956  13.722  1.00  0.00     0.143 HD
ENDBRANCH   3  11
TORSDOF 2
ENDMDL
MODEL 19
REMARK VINA RESULT:      -4.4      8.093      9.806
REMARK  2 active torsions:
REMARK  status: ('A' for Active; 'I' for Inactive)
REMARK    1  A    between atoms: C_2  and  C_3 
REMARK       I    between atoms: C_2  and  N_9 
REMARK    2  A    between atoms: N_9  and  N_10 
ROOT
HETATM    1  O   LIG     1      12.706  30.508  15.882  1.00  0.00    -0.266 OA
HETATM    2  C   LIG     1      13.911  30.871  15.804  1.00  0.00     0.265 C 
HETATM    3  N   LIG     1      14.737  30.345  14.751  1.00  0.00    -0.290 N 
HETATM    4  H   LIG     1      15.684  30.743  14.574  1.00  0.00     0.183 HD
ENDROOT
BRANCH   2   5
HETATM    5  C   LIG     1      14.444  31.845  16.787  1.00  0.00     0.036 A 
HETATM    6  C   LIG     1      14.931  33.090  16.352  1.00  0.00     0.036 A 
HETATM    7  C   LIG     1      15.425  34.006  17.283  1.00  0.00     0.117 A 
HETATM    8  N   LIG     1      15.427  33.700  18.606  1.00  0.00    -0.273 NA
HETATM    9  C   LIG     1      14.954  32.511  19.062  1.00  0.00     0.117 A 
HETATM   10  C   LIG     1      14.452  31.564  18.165  1.00  0.00     0.036 A 
ENDBRANCH   2   5
BRANCH   3  11
HETATM   11  N   LIG     1      14.275  29.333  13.895  1.00  0.00    -0.247 NA
HETATM   12  H   LIG     1      13.812  29.794  13.078  1.00  0.00     0.143 HD
HETATM   13  H   LIG     1      15.107  28.808  13.540  1.00  0.00     0.143 HD
ENDBRANCH   3  11
TORSDOF 2
ENDMDL
MODEL 20
REMARK VINA RESULT:      -4.2     10.804     11.404
REMARK  2 active torsions:
REMARK  status: ('A' for Active; 'I' for Inactive)
REMARK    1  A    between atoms: C_2  and  C_3 
REMARK       I    between atoms: C_2  and  N_9 
REMARK    2  A    between atoms: N_9  and  N_10 
ROOT
HETATM    1  O   LIG     1      22.871  33.953  13.821  1.00  0.00    -0.266 OA
HETATM    2  C   LIG     1      22.530  34.856  13.008  1.00  0.00     0.265 C 
HETATM    3  N   LIG     1      23.354  36.025  12.869  1.00  0.00    -0.290 N 
HETATM    4  H   LIG     1      23.178  36.707  12.100  1.00  0.00     0.183 HD
ENDROOT
BRANCH   2   5
HETATM    5  C   LIG     1      21.297  34.681  12.202  1.00  0.00     0.036 A 
HETATM    6  C   LIG     1      21.264  35.113  10.865  1.00  0.00     0.036 A 
HETATM    7  C   LIG     1      20.103  34.940  10.108  1.00  0.00     0.117 A 
HETATM    8  N   LIG     1      19.011  34.348  10.659  1.00  0.00    -0.273 NA
HETATM    9  C   LIG     1      19.013  33.909  11.945  1.00  0.00     0.117 A 
HETATM   10  C   LIG     1      20.153  34.063  12.739  1.00  0.00     0.036 A 
ENDBRANCH   2   5
BRANCH   3  11
HETATM   11  N   LIG     1      24.451  36.252  13.714  1.00  0.00    -0.247 NA
HETATM   12  H   LIG     1      24.397  35.562  14.498  1.00  0.00     0.143 HD
HETATM   13  H   LIG     1      25.322  36.054  13.170  1.00  0.00     0.143 HD
ENDBRANCH   3  11
TORSDOF 2
ENDMDL
