REMARK  0 active torsions:
REMARK  status: ('A' for Active; 'I' for Inactive)
ROOT
HETATM    1  F   LIG     1      -2.717  -0.460  -0.005  1.00  0.00    -0.206 F 
HETATM    2  C   LIG     1      -1.380  -0.233  -0.002  1.00  0.00     0.116 A 
HETATM    3  C   LIG     1      -0.488  -1.311  -0.007  1.00  0.00     0.045 A 
HETATM    4  C   LIG     1       0.892  -1.078  -0.005  1.00  0.00     0.045 A 
HETATM    5  C   LIG     1       1.380   0.233   0.002  1.00  0.00     0.116 A 
HETATM    6  F   LIG     1       2.717   0.460   0.005  1.00  0.00    -0.206 F 
HETATM    7  C   LIG     1       0.488   1.311   0.007  1.00  0.00     0.045 A 
HETATM    8  C   LIG     1      -0.892   1.078   0.005  1.00  0.00     0.045 A 
ENDROOT
TORSDOF 0
