MODEL 1
REMARK VINA RESULT:      -5.8      0.000      0.000
REMARK  0 active torsions:
REMARK  status: ('A' for Active; 'I' for Inactive)
ROOT
HETATM    1  F   LIG     1      16.710  38.403  23.271  1.00  0.00    -0.206 F 
HETATM    2  C   LIG     1      17.095  37.400  24.099  1.00  0.00     0.116 A 
HETATM    3  C   LIG     1      16.949  36.068  23.698  1.00  0.00     0.045 A 
HETATM    4  C   LIG     1      17.347  35.032  24.551  1.00  0.00     0.045 A 
HETATM    5  C   LIG     1      17.892  35.329  25.805  1.00  0.00     0.116 A 
HETATM    6  F   LIG     1      18.277  34.326  26.633  1.00  0.00    -0.206 F 
HETATM    7  C   LIG     1      18.038  36.661  26.206  1.00  0.00     0.045 A 
HETATM    8  C   LIG     1      17.639  37.697  25.353  1.00  0.00     0.045 A 
ENDROOT
TORSDOF 0
ENDMDL
MODEL 2
REMARK VINA RESULT:      -5.7      0.076      3.670
REMARK  0 active torsions:
REMARK  status: ('A' for Active; 'I' for Inactive)
ROOT
HETATM    1  F   LIG     1      18.182  34.323  26.592  1.00  0.00    -0.206 F 
HETATM    2  C   LIG     1      17.832  35.346  25.773  1.00  0.00     0.116 A 
HETATM    3  C   LIG     1      17.976  36.669  26.206  1.00  0.00     0.045 A 
HETATM    4  C   LIG     1      17.616  37.725  25.362  1.00  0.00     0.045 A 
HETATM    5  C   LIG     1      17.112  37.459  24.084  1.00  0.00     0.116 A 
HETATM    6  F   LIG     1      16.762  38.481  23.266  1.00  0.00    -0.206 F 
HETATM    7  C   LIG     1      16.968  36.136  23.651  1.00  0.00     0.045 A 
HETATM    8  C   LIG     1      17.328  35.080  24.496  1.00  0.00     0.045 A 
ENDROOT
TORSDOF 0
ENDMDL
MODEL 3
REMARK VINA RESULT:      -5.6      4.233      5.636
REMARK  0 active torsions:
REMARK  status: ('A' for Active; 'I' for Inactive)
ROOT
HETATM    1  F   LIG     1      16.658  36.969  21.990  1.00  0.00    -0.206 F 
HETATM    2  C   LIG     1      17.668  37.484  21.245  1.00  0.00     0.116 A 
HETATM    3  C   LIG     1      18.268  36.706  20.249  1.00  0.00     0.045 A 
HETATM    4  C   LIG     1      19.310  37.236  19.480  1.00  0.00     0.045 A 
HETATM    5  C   LIG     1      19.751  38.544  19.706  1.00  0.00     0.116 A 
HETATM    6  F   LIG     1      20.761  39.059  18.961  1.00  0.00    -0.206 F 
HETATM    7  C   LIG     1      19.150  39.322  20.702  1.00  0.00     0.045 A 
HETATM    8  C   LIG     1      18.108  38.792  21.472  1.00  0.00     0.045 A 
ENDROOT
TORSDOF 0
ENDMDL
MODEL 4
REMARK VINA RESULT:      -5.6      4.182      5.851
REMARK  0 active torsions:
REMARK  status: ('A' for Active; 'I' for Inactive)
ROOT
HETATM    1  F   LIG     1      16.683  36.783  22.007  1.00  0.00    -0.206 F 
HETATM    2  C   LIG     1      17.650  37.380  21.267  1.00  0.00     0.116 A 
HETATM    3  C   LIG     1      18.037  38.694  21.552  1.00  0.00     0.045 A 
HETATM    4  C   LIG     1      19.036  39.310  20.790  1.00  0.00     0.045 A 
HETATM    5  C   LIG     1      19.648  38.613  19.743  1.00  0.00     0.116 A 
HETATM    6  F   LIG     1      20.615  39.210  19.003  1.00  0.00    -0.206 F 
HETATM    7  C   LIG     1      19.261  37.299  19.458  1.00  0.00     0.045 A 
HETATM    8  C   LIG     1      18.262  36.682  20.220  1.00  0.00     0.045 A 
ENDROOT
TORSDOF 0
ENDMDL
MODEL 5
REMARK VINA RESULT:      -5.6      4.178      5.193
REMARK  0 active torsions:
REMARK  status: ('A' for Active; 'I' for Inactive)
ROOT
HETATM    1  F   LIG     1      20.683  39.045  18.962  1.00  0.00    -0.206 F 
HETATM    2  C   LIG     1      19.686  38.536  19.727  1.00  0.00     0.116 A 
HETATM    3  C   LIG     1      19.253  37.220  19.527  1.00  0.00     0.045 A 
HETATM    4  C   LIG     1      18.225  36.693  20.317  1.00  0.00     0.045 A 
HETATM    5  C   LIG     1      17.630  37.482  21.307  1.00  0.00     0.116 A 
HETATM    6  F   LIG     1      16.632  36.973  22.072  1.00  0.00    -0.206 F 
HETATM    7  C   LIG     1      18.062  38.797  21.508  1.00  0.00     0.045 A 
HETATM    8  C   LIG     1      19.091  39.324  20.718  1.00  0.00     0.045 A 
ENDROOT
TORSDOF 0
ENDMDL
MODEL 6
REMARK VINA RESULT:      -5.6      4.170      5.415
REMARK  0 active torsions:
REMARK  status: ('A' for Active; 'I' for Inactive)
ROOT
HETATM    1  F   LIG     1      20.619  39.213  19.032  1.00  0.00    -0.206 F 
HETATM    2  C   LIG     1      19.647  38.611  19.762  1.00  0.00     0.116 A 
HETATM    3  C   LIG     1      19.021  39.308  20.802  1.00  0.00     0.045 A 
HETATM    4  C   LIG     1      18.018  38.688  21.556  1.00  0.00     0.045 A 
HETATM    5  C   LIG     1      17.641  37.372  21.270  1.00  0.00     0.116 A 
HETATM    6  F   LIG     1      16.670  36.770  22.000  1.00  0.00    -0.206 F 
HETATM    7  C   LIG     1      18.267  36.675  20.230  1.00  0.00     0.045 A 
HETATM    8  C   LIG     1      19.270  37.295  19.477  1.00  0.00     0.045 A 
ENDROOT
TORSDOF 0
ENDMDL
MODEL 7
REMARK VINA RESULT:      -5.4      1.953      2.774
REMARK  0 active torsions:
REMARK  status: ('A' for Active; 'I' for Inactive)
ROOT
HETATM    1  F   LIG     1      17.252  38.407  25.818  1.00  0.00    -0.206 F 
HETATM    2  C   LIG     1      17.166  37.456  24.855  1.00  0.00     0.116 A 
HETATM    3  C   LIG     1      16.902  37.823  23.531  1.00  0.00     0.045 A 
HETATM    4  C   LIG     1      16.814  36.843  22.536  1.00  0.00     0.045 A 
HETATM    5  C   LIG     1      16.990  35.495  22.866  1.00  0.00     0.116 A 
HETATM    6  F   LIG     1      16.904  34.543  21.903  1.00  0.00    -0.206 F 
HETATM    7  C   LIG     1      17.253  35.127  24.190  1.00  0.00     0.045 A 
HETATM    8  C   LIG     1      17.341  36.108  25.185  1.00  0.00     0.045 A 
ENDROOT
TORSDOF 0
ENDMDL
MODEL 8
REMARK VINA RESULT:      -5.4      1.931      2.865
REMARK  0 active torsions:
REMARK  status: ('A' for Active; 'I' for Inactive)
ROOT
HETATM    1  F   LIG     1      16.850  34.605  21.820  1.00  0.00    -0.206 F 
HETATM    2  C   LIG     1      16.944  35.506  22.829  1.00  0.00     0.116 A 
HETATM    3  C   LIG     1      17.269  35.077  24.120  1.00  0.00     0.045 A 
HETATM    4  C   LIG     1      17.368  36.006  25.163  1.00  0.00     0.045 A 
HETATM    5  C   LIG     1      17.140  37.363  24.913  1.00  0.00     0.116 A 
HETATM    6  F   LIG     1      17.234  38.264  25.923  1.00  0.00    -0.206 F 
HETATM    7  C   LIG     1      16.815  37.792  23.622  1.00  0.00     0.045 A 
HETATM    8  C   LIG     1      16.717  36.863  22.579  1.00  0.00     0.045 A 
ENDROOT
TORSDOF 0
ENDMDL
MODEL 9
REMARK VINA RESULT:      -5.3      3.930      5.200
REMARK  0 active torsions:
REMARK  status: ('A' for Active; 'I' for Inactive)
ROOT
HETATM    1  F   LIG     1      19.421  36.483  19.042  1.00  0.00    -0.206 F 
HETATM    2  C   LIG     1      18.814  37.233  19.995  1.00  0.00     0.116 A 
HETATM    3  C   LIG     1      19.185  38.570  20.173  1.00  0.00     0.045 A 
HETATM    4  C   LIG     1      18.559  39.346  21.156  1.00  0.00     0.045 A 
HETATM    5  C   LIG     1      17.561  38.784  21.959  1.00  0.00     0.116 A 
HETATM    6  F   LIG     1      16.954  39.535  22.912  1.00  0.00    -0.206 F 
HETATM    7  C   LIG     1      17.190  37.447  21.781  1.00  0.00     0.045 A 
HETATM    8  C   LIG     1      17.816  36.672  20.799  1.00  0.00     0.045 A 
ENDROOT
TORSDOF 0
ENDMDL
MODEL 10
REMARK VINA RESULT:      -5.3      3.912      5.327
REMARK  0 active torsions:
REMARK  status: ('A' for Active; 'I' for Inactive)
ROOT
HETATM    1  F   LIG     1      16.995  34.998  20.933  1.00  0.00    -0.206 F 
HETATM    2  C   LIG     1      17.459  36.272  20.936  1.00  0.00     0.116 A 
HETATM    3  C   LIG     1      16.966  37.193  21.867  1.00  0.00     0.045 A 
HETATM    4  C   LIG     1      17.445  38.508  21.872  1.00  0.00     0.045 A 
HETATM    5  C   LIG     1      18.418  38.902  20.947  1.00  0.00     0.116 A 
HETATM    6  F   LIG     1      18.882  40.176  20.950  1.00  0.00    -0.206 F 
HETATM    7  C   LIG     1      18.911  37.981  20.016  1.00  0.00     0.045 A 
HETATM    8  C   LIG     1      18.432  36.666  20.011  1.00  0.00     0.045 A 
ENDROOT
TORSDOF 0
ENDMDL
MODEL 11
REMARK VINA RESULT:      -5.3      1.223      2.266
REMARK  0 active torsions:
REMARK  status: ('A' for Active; 'I' for Inactive)
ROOT
HETATM    1  F   LIG     1      16.783  39.070  22.100  1.00  0.00    -0.206 F 
HETATM    2  C   LIG     1      16.929  37.948  22.847  1.00  0.00     0.116 A 
HETATM    3  C   LIG     1      17.148  38.050  24.225  1.00  0.00     0.045 A 
HETATM    4  C   LIG     1      17.298  36.893  24.998  1.00  0.00     0.045 A 
HETATM    5  C   LIG     1      17.228  35.634  24.393  1.00  0.00     0.116 A 
HETATM    6  F   LIG     1      17.374  34.512  25.140  1.00  0.00    -0.206 F 
HETATM    7  C   LIG     1      17.009  35.532  23.015  1.00  0.00     0.045 A 
HETATM    8  C   LIG     1      16.859  36.689  22.242  1.00  0.00     0.045 A 
ENDROOT
TORSDOF 0
ENDMDL
MODEL 12
REMARK VINA RESULT:      -5.2      1.459      4.036
REMARK  0 active torsions:
REMARK  status: ('A' for Active; 'I' for Inactive)
ROOT
HETATM    1  F   LIG     1      17.123  34.490  24.841  1.00  0.00    -0.206 F 
HETATM    2  C   LIG     1      17.131  35.604  24.068  1.00  0.00     0.116 A 
HETATM    3  C   LIG     1      17.304  36.862  24.656  1.00  0.00     0.045 A 
HETATM    4  C   LIG     1      17.314  38.012  23.859  1.00  0.00     0.045 A 
HETATM    5  C   LIG     1      17.149  37.905  22.474  1.00  0.00     0.116 A 
HETATM    6  F   LIG     1      17.157  39.019  21.701  1.00  0.00    -0.206 F 
HETATM    7  C   LIG     1      16.976  36.648  21.886  1.00  0.00     0.045 A 
HETATM    8  C   LIG     1      16.966  35.497  22.683  1.00  0.00     0.045 A 
ENDROOT
TORSDOF 0
ENDMDL
MODEL 13
REMARK VINA RESULT:      -5.2      3.762      4.383
REMARK  0 active torsions:
REMARK  status: ('A' for Active; 'I' for Inactive)
ROOT
HETATM    1  F   LIG     1      18.708  40.073  21.357  1.00  0.00    -0.206 F 
HETATM    2  C   LIG     1      18.257  38.800  21.241  1.00  0.00     0.116 A 
HETATM    3  C   LIG     1      18.760  37.970  20.232  1.00  0.00     0.045 A 
HETATM    4  C   LIG     1      18.296  36.655  20.111  1.00  0.00     0.045 A 
HETATM    5  C   LIG     1      17.330  36.170  20.999  1.00  0.00     0.116 A 
HETATM    6  F   LIG     1      16.879  34.896  20.882  1.00  0.00    -0.206 F 
HETATM    7  C   LIG     1      16.827  37.000  22.007  1.00  0.00     0.045 A 
HETATM    8  C   LIG     1      17.291  38.315  22.128  1.00  0.00     0.045 A 
ENDROOT
TORSDOF 0
ENDMDL
MODEL 14
REMARK VINA RESULT:      -5.1      3.316      4.245
REMARK  0 active torsions:
REMARK  status: ('A' for Active; 'I' for Inactive)
ROOT
HETATM    1  F   LIG     1      19.220  37.228  19.319  1.00  0.00    -0.206 F 
HETATM    2  C   LIG     1      18.372  37.370  20.368  1.00  0.00     0.116 A 
HETATM    3  C   LIG     1      17.599  36.285  20.794  1.00  0.00     0.045 A 
HETATM    4  C   LIG     1      16.724  36.430  21.877  1.00  0.00     0.045 A 
HETATM    5  C   LIG     1      16.622  37.661  22.533  1.00  0.00     0.116 A 
HETATM    6  F   LIG     1      15.774  37.803  23.582  1.00  0.00    -0.206 F 
HETATM    7  C   LIG     1      17.395  38.747  22.107  1.00  0.00     0.045 A 
HETATM    8  C   LIG     1      18.270  38.601  21.024  1.00  0.00     0.045 A 
ENDROOT
TORSDOF 0
ENDMDL
MODEL 15
REMARK VINA RESULT:      -5.0      2.496      4.264
REMARK  0 active torsions:
REMARK  status: ('A' for Active; 'I' for Inactive)
ROOT
HETATM    1  F   LIG     1      16.679  37.821  24.714  1.00  0.00    -0.206 F 
HETATM    2  C   LIG     1      17.044  37.531  23.441  1.00  0.00     0.116 A 
HETATM    3  C   LIG     1      17.613  38.522  22.633  1.00  0.00     0.045 A 
HETATM    4  C   LIG     1      17.991  38.223  21.319  1.00  0.00     0.045 A 
HETATM    5  C   LIG     1      17.800  36.933  20.813  1.00  0.00     0.116 A 
HETATM    6  F   LIG     1      18.165  36.642  19.540  1.00  0.00    -0.206 F 
HETATM    7  C   LIG     1      17.232  35.942  21.621  1.00  0.00     0.045 A 
HETATM    8  C   LIG     1      16.854  36.241  22.935  1.00  0.00     0.045 A 
ENDROOT
TORSDOF 0
ENDMDL
MODEL 16
REMARK VINA RESULT:      -4.9      2.131      3.323
REMARK  0 active torsions:
REMARK  status: ('A' for Active; 'I' for Inactive)
ROOT
HETATM    1  F   LIG     1      17.522  36.147  20.087  1.00  0.00    -0.206 F 
HETATM    2  C   LIG     1      17.353  36.515  21.381  1.00  0.00     0.116 A 
HETATM    3  C   LIG     1      17.427  37.866  21.739  1.00  0.00     0.045 A 
HETATM    4  C   LIG     1      17.252  38.248  23.074  1.00  0.00     0.045 A 
HETATM    5  C   LIG     1      17.003  37.278  24.051  1.00  0.00     0.116 A 
HETATM    6  F   LIG     1      16.835  37.647  25.346  1.00  0.00    -0.206 F 
HETATM    7  C   LIG     1      16.930  35.928  23.694  1.00  0.00     0.045 A 
HETATM    8  C   LIG     1      17.105  35.546  22.359  1.00  0.00     0.045 A 
ENDROOT
TORSDOF 0
ENDMDL
MODEL 17
REMARK VINA RESULT:      -4.8     10.185     11.385
REMARK  0 active torsions:
REMARK  status: ('A' for Active; 'I' for Inactive)
ROOT
HETATM    1  F   LIG     1      15.435  33.264  17.065  1.00  0.00    -0.206 F 
HETATM    2  C   LIG     1      14.846  32.250  16.383  1.00  0.00     0.116 A 
HETATM    3  C   LIG     1      13.622  31.733  16.820  1.00  0.00     0.045 A 
HETATM    4  C   LIG     1      13.012  30.688  16.117  1.00  0.00     0.045 A 
HETATM    5  C   LIG     1      13.627  30.160  14.977  1.00  0.00     0.116 A 
HETATM    6  F   LIG     1      13.037  29.146  14.295  1.00  0.00    -0.206 F 
HETATM    7  C   LIG     1      14.851  30.677  14.540  1.00  0.00     0.045 A 
HETATM    8  C   LIG     1      15.461  31.722  15.243  1.00  0.00     0.045 A 
ENDROOT
TORSDOF 0
ENDMDL
MODEL 18
REMARK VINA RESULT:      -4.6     10.289     11.559
REMARK  0 active torsions:
REMARK  status: ('A' for Active; 'I' for Inactive)
ROOT
HETATM    1  F   LIG     1      13.766  32.439  17.685  1.00  0.00    -0.206 F 
HETATM    2  C   LIG     1      14.227  31.836  16.561  1.00  0.00     0.116 A 
HETATM    3  C   LIG     1      15.389  32.307  15.940  1.00  0.00     0.045 A 
HETATM    4  C   LIG     1      15.865  31.685  14.781  1.00  0.00     0.045 A 
HETATM    5  C   LIG     1      15.180  30.591  14.242  1.00  0.00     0.116 A 
HETATM    6  F   LIG     1      15.640  29.988  13.118  1.00  0.00    -0.206 F 
HETATM    7  C   LIG     1      14.017  30.120  14.862  1.00  0.00     0.045 A 
HETATM    8  C   LIG     1      13.541  30.742  16.021  1.00  0.00     0.045 A 
ENDROOT
TORSDOF 0
ENDMDL
MODEL 19
REMARK VINA RESULT:      -4.6      3.731      4.452
REMARK  0 active torsions:
REMARK  status: ('A' for Active; 'I' for Inactive)
ROOT
HETATM    1  F   LIG     1      14.841  35.018  21.622  1.00  0.00    -0.206 F 
HETATM    2  C   LIG     1      15.828  35.947  21.576  1.00  0.00     0.116 A 
HETATM    3  C   LIG     1      16.903  35.781  20.696  1.00  0.00     0.045 A 
HETATM    4  C   LIG     1      17.922  36.739  20.647  1.00  0.00     0.045 A 
HETATM    5  C   LIG     1      17.867  37.863  21.479  1.00  0.00     0.116 A 
HETATM    6  F   LIG     1      18.854  38.791  21.434  1.00  0.00    -0.206 F 
HETATM    7  C   LIG     1      16.792  38.028  22.360  1.00  0.00     0.045 A 
HETATM    8  C   LIG     1      15.773  37.070  22.408  1.00  0.00     0.045 A 
ENDROOT
TORSDOF 0
ENDMDL
MODEL 20
REMARK VINA RESULT:      -4.6      9.813     11.077
REMARK  0 active torsions:
REMARK  status: ('A' for Active; 'I' for Inactive)
ROOT
HETATM    1  F   LIG     1      12.620  30.237  16.420  1.00  0.00    -0.206 F 
HETATM    2  C   LIG     1      13.745  30.926  16.104  1.00  0.00     0.116 A 
HETATM    3  C   LIG     1      14.164  31.989  16.912  1.00  0.00     0.045 A 
HETATM    4  C   LIG     1      15.325  32.699  16.588  1.00  0.00     0.045 A 
HETATM    5  C   LIG     1      16.068  32.346  15.456  1.00  0.00     0.116 A 
HETATM    6  F   LIG     1      17.193  33.035  15.141  1.00  0.00    -0.206 F 
HETATM    7  C   LIG     1      15.649  31.283  14.649  1.00  0.00     0.045 A 
HETATM    8  C   LIG     1      14.488  30.573  14.973  1.00  0.00     0.045 A 
ENDROOT
TORSDOF 0
ENDMDL
