MODEL 1
REMARK VINA RESULT:      -3.3      0.000      0.000
REMARK  1 active torsions:
REMARK  status: ('A' for Active; 'I' for Inactive)
REMARK    1  A    between atoms: C_2  and  C_3 
ROOT
HETATM    1 CL   LIG     1      17.134  36.717  24.149  1.00  0.00    -0.131 Cl
HETATM    2  C   LIG     1      17.612  37.411  25.719  1.00  0.00     0.114 C 
ENDROOT
BRANCH   2   3
HETATM    3  C   LIG     1      18.414  36.388  26.521  1.00  0.00     0.010 C 
HETATM    4  C   LIG     1      17.993  34.963  26.175  1.00  0.00     0.006 C 
ENDBRANCH   2   3
TORSDOF 1
ENDMDL
MODEL 2
REMARK VINA RESULT:      -3.3      0.936      2.011
REMARK  1 active torsions:
REMARK  status: ('A' for Active; 'I' for Inactive)
REMARK    1  A    between atoms: C_2  and  C_3 
ROOT
HETATM    1 CL   LIG     1      17.334  34.925  24.560  1.00  0.00    -0.131 Cl
HETATM    2  C   LIG     1      17.994  34.868  26.214  1.00  0.00     0.114 C 
ENDROOT
BRANCH   2   3
HETATM    3  C   LIG     1      18.361  36.275  26.680  1.00  0.00     0.010 C 
HETATM    4  C   LIG     1      17.752  37.335  25.766  1.00  0.00     0.006 C 
ENDBRANCH   2   3
TORSDOF 1
ENDMDL
MODEL 3
REMARK VINA RESULT:      -3.0      1.849      1.993
REMARK  1 active torsions:
REMARK  status: ('A' for Active; 'I' for Inactive)
REMARK    1  A    between atoms: C_2  and  C_3 
ROOT
HETATM    1 CL   LIG     1      18.758  36.753  26.785  1.00  0.00    -0.131 Cl
HETATM    2  C   LIG     1      17.888  37.354  25.350  1.00  0.00     0.114 C 
ENDROOT
BRANCH   2   3
HETATM    3  C   LIG     1      17.251  36.187  24.598  1.00  0.00     0.010 C 
HETATM    4  C   LIG     1      17.423  34.878  25.363  1.00  0.00     0.006 C 
ENDBRANCH   2   3
TORSDOF 1
ENDMDL
MODEL 4
REMARK VINA RESULT:      -3.0      5.893      6.094
REMARK  1 active torsions:
REMARK  status: ('A' for Active; 'I' for Inactive)
REMARK    1  A    between atoms: C_2  and  C_3 
ROOT
HETATM    1 CL   LIG     1      17.952  38.394  21.539  1.00  0.00    -0.131 Cl
HETATM    2  C   LIG     1      19.051  39.351  20.514  1.00  0.00     0.114 C 
ENDROOT
BRANCH   2   3
HETATM    3  C   LIG     1      19.779  38.436  19.531  1.00  0.00     0.010 C 
HETATM    4  C   LIG     1      19.136  37.053  19.485  1.00  0.00     0.006 C 
ENDBRANCH   2   3
TORSDOF 1
ENDMDL
MODEL 5
REMARK VINA RESULT:      -2.9      5.625      6.212
REMARK  1 active torsions:
REMARK  status: ('A' for Active; 'I' for Inactive)
REMARK    1  A    between atoms: C_2  and  C_3 
ROOT
HETATM    1 CL   LIG     1      19.297  36.870  19.510  1.00  0.00    -0.131 Cl
HETATM    2  C   LIG     1      19.773  38.584  19.399  1.00  0.00     0.114 C 
ENDROOT
BRANCH   2   3
HETATM    3  C   LIG     1      19.072  39.392  20.488  1.00  0.00     0.010 C 
HETATM    4  C   LIG     1      18.131  38.514  21.308  1.00  0.00     0.006 C 
ENDBRANCH   2   3
TORSDOF 1
ENDMDL
MODEL 6
REMARK VINA RESULT:      -2.8      2.669      2.933
REMARK  1 active torsions:
REMARK  status: ('A' for Active; 'I' for Inactive)
REMARK    1  A    between atoms: C_2  and  C_3 
ROOT
HETATM    1 CL   LIG     1      17.355  34.827  25.194  1.00  0.00    -0.131 Cl
HETATM    2  C   LIG     1      17.311  36.533  24.682  1.00  0.00     0.114 C 
ENDROOT
BRANCH   2   3
HETATM    3  C   LIG     1      16.872  36.630  23.222  1.00  0.00     0.010 C 
HETATM    4  C   LIG     1      16.860  35.257  22.557  1.00  0.00     0.006 C 
ENDBRANCH   2   3
TORSDOF 1
ENDMDL
MODEL 7
REMARK VINA RESULT:      -2.8      4.804      5.523
REMARK  1 active torsions:
REMARK  status: ('A' for Active; 'I' for Inactive)
REMARK    1  A    between atoms: C_2  and  C_3 
ROOT
HETATM    1 CL   LIG     1      18.387  36.714  20.105  1.00  0.00    -0.131 Cl
HETATM    2  C   LIG     1      17.667  37.587  21.481  1.00  0.00     0.114 C 
ENDROOT
BRANCH   2   3
HETATM    3  C   LIG     1      18.148  39.037  21.491  1.00  0.00     0.010 C 
HETATM    4  C   LIG     1      19.156  39.291  20.375  1.00  0.00     0.006 C 
ENDBRANCH   2   3
TORSDOF 1
ENDMDL
MODEL 8
REMARK VINA RESULT:      -2.7      4.034      4.780
REMARK  1 active torsions:
REMARK  status: ('A' for Active; 'I' for Inactive)
REMARK    1  A    between atoms: C_2  and  C_3 
ROOT
HETATM    1 CL   LIG     1      17.762  38.205  24.236  1.00  0.00    -0.131 Cl
HETATM    2  C   LIG     1      17.161  38.960  22.738  1.00  0.00     0.114 C 
ENDROOT
BRANCH   2   3
HETATM    3  C   LIG     1      17.861  38.350  21.526  1.00  0.00     0.010 C 
HETATM    4  C   LIG     1      18.793  39.359  20.861  1.00  0.00     0.006 C 
ENDBRANCH   2   3
TORSDOF 1
ENDMDL
MODEL 9
REMARK VINA RESULT:      -2.7      4.504      4.940
REMARK  1 active torsions:
REMARK  status: ('A' for Active; 'I' for Inactive)
REMARK    1  A    between atoms: C_2  and  C_3 
ROOT
HETATM    1 CL   LIG     1      17.010  35.069  23.127  1.00  0.00    -0.131 Cl
HETATM    2  C   LIG     1      16.770  35.581  21.437  1.00  0.00     0.114 C 
ENDROOT
BRANCH   2   3
HETATM    3  C   LIG     1      17.512  36.890  21.177  1.00  0.00     0.010 C 
HETATM    4  C   LIG     1      18.448  36.764  19.978  1.00  0.00     0.006 C 
ENDBRANCH   2   3
TORSDOF 1
ENDMDL
MODEL 10
REMARK VINA RESULT:      -2.6     12.413     12.866
REMARK  1 active torsions:
REMARK  status: ('A' for Active; 'I' for Inactive)
REMARK    1  A    between atoms: C_2  and  C_3 
ROOT
HETATM    1 CL   LIG     1      15.444  31.090  13.692  1.00  0.00    -0.131 Cl
HETATM    2  C   LIG     1      14.526  29.731  14.390  1.00  0.00     0.114 C 
ENDROOT
BRANCH   2   3
HETATM    3  C   LIG     1      13.317  30.256  15.159  1.00  0.00     0.010 C 
HETATM    4  C   LIG     1      13.744  30.964  16.442  1.00  0.00     0.006 C 
ENDBRANCH   2   3
TORSDOF 1
ENDMDL
MODEL 11
REMARK VINA RESULT:      -2.6     12.321     12.672
REMARK  1 active torsions:
REMARK  status: ('A' for Active; 'I' for Inactive)
REMARK    1  A    between atoms: C_2  and  C_3 
ROOT
HETATM    1 CL   LIG     1      16.043  32.103  13.382  1.00  0.00    -0.131 Cl
HETATM    2  C   LIG     1      15.441  31.467  14.934  1.00  0.00     0.114 C 
ENDROOT
BRANCH   2   3
HETATM    3  C   LIG     1      14.420  30.359  14.684  1.00  0.00     0.010 C 
HETATM    4  C   LIG     1      13.190  30.532  15.569  1.00  0.00     0.006 C 
ENDBRANCH   2   3
TORSDOF 1
ENDMDL
MODEL 12
REMARK VINA RESULT:      -2.5      4.864      5.134
REMARK  1 active torsions:
REMARK  status: ('A' for Active; 'I' for Inactive)
REMARK    1  A    between atoms: C_2  and  C_3 
ROOT
HETATM    1 CL   LIG     1      19.387  37.388  19.480  1.00  0.00    -0.131 Cl
HETATM    2  C   LIG     1      18.142  37.405  20.755  1.00  0.00     0.114 C 
ENDROOT
BRANCH   2   3
HETATM    3  C   LIG     1      17.434  36.053  20.813  1.00  0.00     0.010 C 
HETATM    4  C   LIG     1      16.606  35.918  22.087  1.00  0.00     0.006 C 
ENDBRANCH   2   3
TORSDOF 1
ENDMDL
MODEL 13
REMARK VINA RESULT:      -2.5      8.695      9.090
REMARK  1 active torsions:
REMARK  status: ('A' for Active; 'I' for Inactive)
REMARK    1  A    between atoms: C_2  and  C_3 
ROOT
HETATM    1 CL   LIG     1      13.741  31.003  16.879  1.00  0.00    -0.131 Cl
HETATM    2  C   LIG     1      14.640  32.261  17.765  1.00  0.00     0.114 C 
ENDROOT
BRANCH   2   3
HETATM    3  C   LIG     1      14.857  31.827  19.214  1.00  0.00     0.010 C 
HETATM    4  C   LIG     1      15.455  32.959  20.044  1.00  0.00     0.006 C 
ENDBRANCH   2   3
TORSDOF 1
ENDMDL
MODEL 14
REMARK VINA RESULT:      -2.5      3.966      4.105
REMARK  1 active torsions:
REMARK  status: ('A' for Active; 'I' for Inactive)
REMARK    1  A    between atoms: C_2  and  C_3 
ROOT
HETATM    1 CL   LIG     1      17.032  39.093  22.363  1.00  0.00    -0.131 Cl
HETATM    2  C   LIG     1      17.518  37.528  21.663  1.00  0.00     0.114 C 
ENDROOT
BRANCH   2   3
HETATM    3  C   LIG     1      16.400  36.503  21.844  1.00  0.00     0.010 C 
HETATM    4  C   LIG     1      16.954  35.157  22.299  1.00  0.00     0.006 C 
ENDBRANCH   2   3
TORSDOF 1
ENDMDL
MODEL 15
REMARK VINA RESULT:      -2.5     12.486     12.852
REMARK  1 active torsions:
REMARK  status: ('A' for Active; 'I' for Inactive)
REMARK    1  A    between atoms: C_2  and  C_3 
ROOT
HETATM    1 CL   LIG     1      12.984  30.427  15.461  1.00  0.00    -0.131 Cl
HETATM    2  C   LIG     1      14.582  31.211  15.543  1.00  0.00     0.114 C 
ENDROOT
BRANCH   2   3
HETATM    3  C   LIG     1      15.453  30.746  14.378  1.00  0.00     0.010 C 
HETATM    4  C   LIG     1      15.109  29.317  13.968  1.00  0.00     0.006 C 
ENDBRANCH   2   3
TORSDOF 1
ENDMDL
MODEL 16
REMARK VINA RESULT:      -2.5     10.916     11.317
REMARK  1 active torsions:
REMARK  status: ('A' for Active; 'I' for Inactive)
REMARK    1  A    between atoms: C_2  and  C_3 
ROOT
HETATM    1 CL   LIG     1      15.005  32.892  16.468  1.00  0.00    -0.131 Cl
HETATM    2  C   LIG     1      13.902  31.772  17.308  1.00  0.00     0.114 C 
ENDROOT
BRANCH   2   3
HETATM    3  C   LIG     1      13.235  30.840  16.299  1.00  0.00     0.010 C 
HETATM    4  C   LIG     1      14.191  30.478  15.167  1.00  0.00     0.006 C 
ENDBRANCH   2   3
TORSDOF 1
ENDMDL
MODEL 17
REMARK VINA RESULT:      -2.5      3.223      3.954
REMARK  1 active torsions:
REMARK  status: ('A' for Active; 'I' for Inactive)
REMARK    1  A    between atoms: C_2  and  C_3 
ROOT
HETATM    1 CL   LIG     1      17.737  36.349  20.614  1.00  0.00    -0.131 Cl
HETATM    2  C   LIG     1      16.831  36.949  22.026  1.00  0.00     0.114 C 
ENDROOT
BRANCH   2   3
HETATM    3  C   LIG     1      17.467  38.236  22.547  1.00  0.00     0.010 C 
HETATM    4  C   LIG     1      17.646  38.189  24.062  1.00  0.00     0.006 C 
ENDBRANCH   2   3
TORSDOF 1
ENDMDL
MODEL 18
REMARK VINA RESULT:      -2.5      3.240      3.745
REMARK  1 active torsions:
REMARK  status: ('A' for Active; 'I' for Inactive)
REMARK    1  A    between atoms: C_2  and  C_3 
ROOT
HETATM    1 CL   LIG     1      17.188  36.843  24.325  1.00  0.00    -0.131 Cl
HETATM    2  C   LIG     1      17.007  35.191  23.683  1.00  0.00     0.114 C 
ENDROOT
BRANCH   2   3
HETATM    3  C   LIG     1      17.048  35.215  22.157  1.00  0.00     0.010 C 
HETATM    4  C   LIG     1      17.081  36.646  21.628  1.00  0.00     0.006 C 
ENDBRANCH   2   3
TORSDOF 1
ENDMDL
MODEL 19
REMARK VINA RESULT:      -2.5      3.027      3.663
REMARK  1 active torsions:
REMARK  status: ('A' for Active; 'I' for Inactive)
REMARK    1  A    between atoms: C_2  and  C_3 
ROOT
HETATM    1 CL   LIG     1      17.017  37.722  25.160  1.00  0.00    -0.131 Cl
HETATM    2  C   LIG     1      17.893  38.427  23.777  1.00  0.00     0.114 C 
ENDROOT
BRANCH   2   3
HETATM    3  C   LIG     1      16.980  38.484  22.554  1.00  0.00     0.010 C 
HETATM    4  C   LIG     1      15.661  37.763  22.815  1.00  0.00     0.006 C 
ENDBRANCH   2   3
TORSDOF 1
ENDMDL
MODEL 20
REMARK VINA RESULT:      -2.3     10.650     10.968
REMARK  1 active torsions:
REMARK  status: ('A' for Active; 'I' for Inactive)
REMARK    1  A    between atoms: C_2  and  C_3 
ROOT
HETATM    1 CL   LIG     1      13.378  30.723  16.049  1.00  0.00    -0.131 Cl
HETATM    2  C   LIG     1      13.892  31.934  17.251  1.00  0.00     0.114 C 
ENDROOT
BRANCH   2   3
HETATM    3  C   LIG     1      14.980  32.828  16.660  1.00  0.00     0.010 C 
HETATM    4  C   LIG     1      15.641  32.168  15.454  1.00  0.00     0.006 C 
ENDBRANCH   2   3
TORSDOF 1
ENDMDL
