REMARK  2 active torsions:
REMARK  status: ('A' for Active; 'I' for Inactive)
REMARK    1  A    between atoms: C_2  and  C_4 
REMARK    2  A    between atoms: C_4  and  C_5 
ROOT
HETATM    1 CL   LIG     1       3.074  -0.283  -1.303  1.00  0.00    -0.108 Cl
HETATM    2  C   LIG     1       1.900   0.184  -0.046  1.00  0.00     0.178 C 
HETATM    3 CL   LIG     1       2.386  -0.582   1.491  1.00  0.00    -0.108 Cl
ENDROOT
BRANCH   2   4
HETATM    4  C   LIG     1       0.492  -0.256  -0.463  1.00  0.00     0.036 C 
BRANCH   4   5
HETATM    5  C   LIG     1      -0.586   0.303   0.476  1.00  0.00    -0.002 C 
HETATM    6  C   LIG     1      -1.982  -0.110   0.018  1.00  0.00     0.005 C 
ENDBRANCH   4   5
ENDBRANCH   2   4
TORSDOF 2
