MODEL 1
REMARK VINA RESULT:      -5.7      0.000      0.000
REMARK  0 active torsions:
REMARK  status: ('A' for Active; 'I' for Inactive)
ROOT
HETATM    1 CL   LIG     1      18.180  36.204  26.960  1.00  0.00    -0.084 Cl
HETATM    2  C   LIG     1      17.624  36.255  25.297  1.00  0.00     0.035 A 
HETATM    3  C   LIG     1      17.411  37.487  24.667  1.00  0.00     0.047 A 
HETATM    4  C   LIG     1      16.967  37.526  23.340  1.00  0.00     0.035 A 
HETATM    5 CL   LIG     1      16.699  39.069  22.550  1.00  0.00    -0.084 Cl
HETATM    6  C   LIG     1      16.737  36.333  22.644  1.00  0.00     0.024 A 
HETATM    7  C   LIG     1      16.951  35.104  23.274  1.00  0.00     0.003 A 
HETATM    8  C   LIG     1      17.394  35.064  24.600  1.00  0.00     0.024 A 
ENDROOT
TORSDOF 0
ENDMDL
MODEL 2
REMARK VINA RESULT:      -5.7      0.089      3.225
REMARK  0 active torsions:
REMARK  status: ('A' for Active; 'I' for Inactive)
ROOT
HETATM    1 CL   LIG     1      16.874  39.045  22.482  1.00  0.00    -0.084 Cl
HETATM    2  C   LIG     1      17.069  37.507  23.303  1.00  0.00     0.035 A 
HETATM    3  C   LIG     1      17.503  37.474  24.634  1.00  0.00     0.047 A 
HETATM    4  C   LIG     1      17.659  36.246  25.289  1.00  0.00     0.035 A 
HETATM    5 CL   LIG     1      18.202  36.203  26.956  1.00  0.00    -0.084 Cl
HETATM    6  C   LIG     1      17.381  35.052  24.611  1.00  0.00     0.024 A 
HETATM    7  C   LIG     1      16.948  35.087  23.282  1.00  0.00     0.003 A 
HETATM    8  C   LIG     1      16.792  36.313  22.628  1.00  0.00     0.024 A 
ENDROOT
TORSDOF 0
ENDMDL
MODEL 3
REMARK VINA RESULT:      -5.5      1.625      3.833
REMARK  0 active torsions:
REMARK  status: ('A' for Active; 'I' for Inactive)
ROOT
HETATM    1 CL   LIG     1      16.368  35.264  21.183  1.00  0.00    -0.084 Cl
HETATM    2  C   LIG     1      16.765  35.989  22.730  1.00  0.00     0.035 A 
HETATM    3  C   LIG     1      17.167  35.181  23.799  1.00  0.00     0.047 A 
HETATM    4  C   LIG     1      17.483  35.760  25.034  1.00  0.00     0.035 A 
HETATM    5 CL   LIG     1      17.987  34.748  26.375  1.00  0.00    -0.084 Cl
HETATM    6  C   LIG     1      17.397  37.148  25.198  1.00  0.00     0.024 A 
HETATM    7  C   LIG     1      16.996  37.955  24.128  1.00  0.00     0.003 A 
HETATM    8  C   LIG     1      16.680  37.376  22.895  1.00  0.00     0.024 A 
ENDROOT
TORSDOF 0
ENDMDL
MODEL 4
REMARK VINA RESULT:      -5.5      1.614      2.309
REMARK  0 active torsions:
REMARK  status: ('A' for Active; 'I' for Inactive)
ROOT
HETATM    1 CL   LIG     1      17.976  34.707  26.347  1.00  0.00    -0.084 Cl
HETATM    2  C   LIG     1      17.494  35.746  25.019  1.00  0.00     0.035 A 
HETATM    3  C   LIG     1      17.192  35.191  23.770  1.00  0.00     0.047 A 
HETATM    4  C   LIG     1      16.807  36.020  22.710  1.00  0.00     0.035 A 
HETATM    5 CL   LIG     1      16.429  35.326  21.144  1.00  0.00    -0.084 Cl
HETATM    6  C   LIG     1      16.725  37.406  22.900  1.00  0.00     0.024 A 
HETATM    7  C   LIG     1      17.027  37.959  24.149  1.00  0.00     0.003 A 
HETATM    8  C   LIG     1      17.411  37.130  25.208  1.00  0.00     0.024 A 
ENDROOT
TORSDOF 0
ENDMDL
MODEL 5
REMARK VINA RESULT:      -5.4      3.400      4.776
REMARK  0 active torsions:
REMARK  status: ('A' for Active; 'I' for Inactive)
ROOT
HETATM    1 CL   LIG     1      20.063  38.919  19.431  1.00  0.00    -0.084 Cl
HETATM    2  C   LIG     1      18.810  38.387  20.538  1.00  0.00     0.035 A 
HETATM    3  C   LIG     1      18.310  37.082  20.454  1.00  0.00     0.047 A 
HETATM    4  C   LIG     1      17.310  36.658  21.337  1.00  0.00     0.035 A 
HETATM    5 CL   LIG     1      16.683  35.023  21.233  1.00  0.00    -0.084 Cl
HETATM    6  C   LIG     1      16.810  37.540  22.303  1.00  0.00     0.024 A 
HETATM    7  C   LIG     1      17.310  38.843  22.385  1.00  0.00     0.003 A 
HETATM    8  C   LIG     1      18.310  39.267  21.503  1.00  0.00     0.024 A 
ENDROOT
TORSDOF 0
ENDMDL
MODEL 6
REMARK VINA RESULT:      -5.4      3.402      4.285
REMARK  0 active torsions:
REMARK  status: ('A' for Active; 'I' for Inactive)
ROOT
HETATM    1 CL   LIG     1      16.648  35.086  21.283  1.00  0.00    -0.084 Cl
HETATM    2  C   LIG     1      17.341  36.697  21.332  1.00  0.00     0.035 A 
HETATM    3  C   LIG     1      18.351  37.052  20.429  1.00  0.00     0.047 A 
HETATM    4  C   LIG     1      18.904  38.337  20.468  1.00  0.00     0.035 A 
HETATM    5 CL   LIG     1      20.168  38.783  19.337  1.00  0.00    -0.084 Cl
HETATM    6  C   LIG     1      18.448  39.267  21.411  1.00  0.00     0.024 A 
HETATM    7  C   LIG     1      17.440  38.911  22.312  1.00  0.00     0.003 A 
HETATM    8  C   LIG     1      16.887  37.627  22.273  1.00  0.00     0.024 A 
ENDROOT
TORSDOF 0
ENDMDL
MODEL 7
REMARK VINA RESULT:      -5.1      2.250      3.525
REMARK  0 active torsions:
REMARK  status: ('A' for Active; 'I' for Inactive)
ROOT
HETATM    1 CL   LIG     1      16.352  34.685  21.421  1.00  0.00    -0.084 Cl
HETATM    2  C   LIG     1      16.965  36.229  21.983  1.00  0.00     0.035 A 
HETATM    3  C   LIG     1      16.884  36.562  23.340  1.00  0.00     0.047 A 
HETATM    4  C   LIG     1      17.373  37.795  23.788  1.00  0.00     0.035 A 
HETATM    5 CL   LIG     1      17.273  38.214  25.489  1.00  0.00    -0.084 Cl
HETATM    6  C   LIG     1      17.942  38.695  22.878  1.00  0.00     0.024 A 
HETATM    7  C   LIG     1      18.022  38.361  21.522  1.00  0.00     0.003 A 
HETATM    8  C   LIG     1      17.534  37.129  21.075  1.00  0.00     0.024 A 
ENDROOT
TORSDOF 0
ENDMDL
MODEL 8
REMARK VINA RESULT:      -5.1      2.297      3.099
REMARK  0 active torsions:
REMARK  status: ('A' for Active; 'I' for Inactive)
ROOT
HETATM    1 CL   LIG     1      17.216  38.186  25.378  1.00  0.00    -0.084 Cl
HETATM    2  C   LIG     1      17.362  37.779  23.678  1.00  0.00     0.035 A 
HETATM    3  C   LIG     1      16.902  36.542  23.212  1.00  0.00     0.047 A 
HETATM    4  C   LIG     1      17.020  36.217  21.855  1.00  0.00     0.035 A 
HETATM    5 CL   LIG     1      16.444  34.668  21.269  1.00  0.00    -0.084 Cl
HETATM    6  C   LIG     1      17.597  37.132  20.965  1.00  0.00     0.024 A 
HETATM    7  C   LIG     1      18.056  38.368  21.431  1.00  0.00     0.003 A 
HETATM    8  C   LIG     1      17.938  38.691  22.787  1.00  0.00     0.024 A 
ENDROOT
TORSDOF 0
ENDMDL
MODEL 9
REMARK VINA RESULT:      -4.9      9.506     10.817
REMARK  0 active torsions:
REMARK  status: ('A' for Active; 'I' for Inactive)
ROOT
HETATM    1 CL   LIG     1      17.140  32.907  14.969  1.00  0.00    -0.084 Cl
HETATM    2  C   LIG     1      15.648  32.147  15.493  1.00  0.00     0.035 A 
HETATM    3  C   LIG     1      15.116  31.074  14.769  1.00  0.00     0.047 A 
HETATM    4  C   LIG     1      13.925  30.469  15.188  1.00  0.00     0.035 A 
HETATM    5 CL   LIG     1      13.258  29.124  14.281  1.00  0.00    -0.084 Cl
HETATM    6  C   LIG     1      13.266  30.938  16.331  1.00  0.00     0.024 A 
HETATM    7  C   LIG     1      13.799  32.011  17.054  1.00  0.00     0.003 A 
HETATM    8  C   LIG     1      14.988  32.615  16.636  1.00  0.00     0.024 A 
ENDROOT
TORSDOF 0
ENDMDL
MODEL 10
REMARK VINA RESULT:      -4.8      9.320     10.637
REMARK  0 active torsions:
REMARK  status: ('A' for Active; 'I' for Inactive)
ROOT
HETATM    1 CL   LIG     1      15.520  30.094  13.369  1.00  0.00    -0.084 Cl
HETATM    2  C   LIG     1      14.717  30.809  14.755  1.00  0.00     0.035 A 
HETATM    3  C   LIG     1      15.235  31.968  15.343  1.00  0.00     0.047 A 
HETATM    4  C   LIG     1      14.594  32.538  16.449  1.00  0.00     0.035 A 
HETATM    5 CL   LIG     1      15.242  33.991  17.188  1.00  0.00    -0.084 Cl
HETATM    6  C   LIG     1      13.434  31.947  16.966  1.00  0.00     0.024 A 
HETATM    7  C   LIG     1      12.917  30.789  16.377  1.00  0.00     0.003 A 
HETATM    8  C   LIG     1      13.558  30.220  15.272  1.00  0.00     0.024 A 
ENDROOT
TORSDOF 0
ENDMDL
MODEL 11
REMARK VINA RESULT:      -4.7      9.751     11.084
REMARK  0 active torsions:
REMARK  status: ('A' for Active; 'I' for Inactive)
ROOT
HETATM    1 CL   LIG     1      17.292  33.128  13.485  1.00  0.00    -0.084 Cl
HETATM    2  C   LIG     1      16.070  32.085  14.189  1.00  0.00     0.035 A 
HETATM    3  C   LIG     1      15.579  32.349  15.473  1.00  0.00     0.047 A 
HETATM    4  C   LIG     1      14.604  31.516  16.034  1.00  0.00     0.035 A 
HETATM    5 CL   LIG     1      13.987  31.845  17.643  1.00  0.00    -0.084 Cl
HETATM    6  C   LIG     1      14.120  30.418  15.310  1.00  0.00     0.024 A 
HETATM    7  C   LIG     1      14.612  30.156  14.028  1.00  0.00     0.003 A 
HETATM    8  C   LIG     1      15.586  30.988  13.467  1.00  0.00     0.024 A 
ENDROOT
TORSDOF 0
ENDMDL
MODEL 12
REMARK VINA RESULT:      -4.6      9.935     11.107
REMARK  0 active torsions:
REMARK  status: ('A' for Active; 'I' for Inactive)
ROOT
HETATM    1 CL   LIG     1      14.804  32.769  17.676  1.00  0.00    -0.084 Cl
HETATM    2  C   LIG     1      14.953  31.962  16.125  1.00  0.00     0.035 A 
HETATM    3  C   LIG     1      14.117  30.882  15.815  1.00  0.00     0.047 A 
HETATM    4  C   LIG     1      14.236  30.238  14.578  1.00  0.00     0.035 A 
HETATM    5 CL   LIG     1      13.189  28.886  14.188  1.00  0.00    -0.084 Cl
HETATM    6  C   LIG     1      15.192  30.673  13.652  1.00  0.00     0.024 A 
HETATM    7  C   LIG     1      16.026  31.752  13.963  1.00  0.00     0.003 A 
HETATM    8  C   LIG     1      15.907  32.396  15.199  1.00  0.00     0.024 A 
ENDROOT
TORSDOF 0
ENDMDL
MODEL 13
REMARK VINA RESULT:      -4.5      9.230     10.380
REMARK  0 active torsions:
REMARK  status: ('A' for Active; 'I' for Inactive)
ROOT
HETATM    1 CL   LIG     1      15.162  33.442  17.979  1.00  0.00    -0.084 Cl
HETATM    2  C   LIG     1      14.563  32.237  16.853  1.00  0.00     0.035 A 
HETATM    3  C   LIG     1      15.264  31.975  15.670  1.00  0.00     0.047 A 
HETATM    4  C   LIG     1      14.786  31.014  14.771  1.00  0.00     0.035 A 
HETATM    5 CL   LIG     1      15.662  30.685  13.288  1.00  0.00    -0.084 Cl
HETATM    6  C   LIG     1      13.607  30.315  15.058  1.00  0.00     0.024 A 
HETATM    7  C   LIG     1      12.908  30.577  16.240  1.00  0.00     0.003 A 
HETATM    8  C   LIG     1      13.386  31.537  17.138  1.00  0.00     0.024 A 
ENDROOT
TORSDOF 0
ENDMDL
MODEL 14
REMARK VINA RESULT:      -3.9     12.808     13.240
REMARK  0 active torsions:
REMARK  status: ('A' for Active; 'I' for Inactive)
ROOT
HETATM    1 CL   LIG     1      26.333  38.014  17.958  1.00  0.00    -0.084 Cl
HETATM    2  C   LIG     1      27.928  38.462  18.538  1.00  0.00     0.035 A 
HETATM    3  C   LIG     1      28.139  38.685  19.904  1.00  0.00     0.047 A 
HETATM    4  C   LIG     1      29.411  39.042  20.365  1.00  0.00     0.035 A 
HETATM    5 CL   LIG     1      29.677  39.322  22.076  1.00  0.00    -0.084 Cl
HETATM    6  C   LIG     1      30.472  39.176  19.460  1.00  0.00     0.024 A 
HETATM    7  C   LIG     1      30.259  38.953  18.096  1.00  0.00     0.003 A 
HETATM    8  C   LIG     1      28.988  38.596  17.635  1.00  0.00     0.024 A 
ENDROOT
TORSDOF 0
ENDMDL
MODEL 15
REMARK VINA RESULT:      -3.7      7.999      8.980
REMARK  0 active torsions:
REMARK  status: ('A' for Active; 'I' for Inactive)
ROOT
HETATM    1 CL   LIG     1      14.729  31.117  20.421  1.00  0.00    -0.084 Cl
HETATM    2  C   LIG     1      14.630  31.684  18.764  1.00  0.00     0.035 A 
HETATM    3  C   LIG     1      13.962  30.919  17.800  1.00  0.00     0.047 A 
HETATM    4  C   LIG     1      13.884  31.372  16.478  1.00  0.00     0.035 A 
HETATM    5 CL   LIG     1      13.047  30.414  15.270  1.00  0.00    -0.084 Cl
HETATM    6  C   LIG     1      14.474  32.590  16.120  1.00  0.00     0.024 A 
HETATM    7  C   LIG     1      15.141  33.354  17.083  1.00  0.00     0.003 A 
HETATM    8  C   LIG     1      15.219  32.902  18.404  1.00  0.00     0.024 A 
ENDROOT
TORSDOF 0
ENDMDL
MODEL 16
REMARK VINA RESULT:      -3.7     12.943     13.475
REMARK  0 active torsions:
REMARK  status: ('A' for Active; 'I' for Inactive)
ROOT
HETATM    1 CL   LIG     1      30.684  38.672  16.142  1.00  0.00    -0.084 Cl
HETATM    2  C   LIG     1      29.601  38.967  17.490  1.00  0.00     0.035 A 
HETATM    3  C   LIG     1      28.499  38.128  17.699  1.00  0.00     0.047 A 
HETATM    4  C   LIG     1      27.635  38.364  18.774  1.00  0.00     0.035 A 
HETATM    5 CL   LIG     1      26.255  37.314  19.038  1.00  0.00    -0.084 Cl
HETATM    6  C   LIG     1      27.872  39.440  19.640  1.00  0.00     0.024 A 
HETATM    7  C   LIG     1      28.973  40.276  19.429  1.00  0.00     0.003 A 
HETATM    8  C   LIG     1      29.836  40.040  18.355  1.00  0.00     0.024 A 
ENDROOT
TORSDOF 0
ENDMDL
MODEL 17
REMARK VINA RESULT:      -3.6     12.310     13.537
REMARK  0 active torsions:
REMARK  status: ('A' for Active; 'I' for Inactive)
ROOT
HETATM    1 CL   LIG     1      13.931  31.238  15.569  1.00  0.00    -0.084 Cl
HETATM    2  C   LIG     1      14.130  29.741  14.676  1.00  0.00     0.035 A 
HETATM    3  C   LIG     1      13.007  28.993  14.304  1.00  0.00     0.047 A 
HETATM    4  C   LIG     1      13.166  27.799  13.592  1.00  0.00     0.035 A 
HETATM    5 CL   LIG     1      11.760  26.860  13.125  1.00  0.00    -0.084 Cl
HETATM    6  C   LIG     1      14.450  27.353  13.252  1.00  0.00     0.024 A 
HETATM    7  C   LIG     1      15.571  28.101  13.624  1.00  0.00     0.003 A 
HETATM    8  C   LIG     1      15.412  29.295  14.336  1.00  0.00     0.024 A 
ENDROOT
TORSDOF 0
ENDMDL
MODEL 18
REMARK VINA RESULT:      -3.6     12.999     13.413
REMARK  0 active torsions:
REMARK  status: ('A' for Active; 'I' for Inactive)
ROOT
HETATM    1 CL   LIG     1      30.616  38.666  16.359  1.00  0.00    -0.084 Cl
HETATM    2  C   LIG     1      29.485  38.620  17.700  1.00  0.00     0.035 A 
HETATM    3  C   LIG     1      29.920  38.933  18.993  1.00  0.00     0.047 A 
HETATM    4  C   LIG     1      29.017  38.896  20.063  1.00  0.00     0.035 A 
HETATM    5 CL   LIG     1      29.560  39.288  21.684  1.00  0.00    -0.084 Cl
HETATM    6  C   LIG     1      27.680  38.544  19.838  1.00  0.00     0.024 A 
HETATM    7  C   LIG     1      27.248  38.231  18.546  1.00  0.00     0.003 A 
HETATM    8  C   LIG     1      28.149  38.269  17.477  1.00  0.00     0.024 A 
ENDROOT
TORSDOF 0
ENDMDL
MODEL 19
REMARK VINA RESULT:      -3.4     13.202     13.722
REMARK  0 active torsions:
REMARK  status: ('A' for Active; 'I' for Inactive)
ROOT
HETATM    1 CL   LIG     1      30.311  41.695  17.776  1.00  0.00    -0.084 Cl
HETATM    2  C   LIG     1      29.915  40.476  18.973  1.00  0.00     0.035 A 
HETATM    3  C   LIG     1      28.888  39.557  18.723  1.00  0.00     0.047 A 
HETATM    4  C   LIG     1      28.571  38.585  19.679  1.00  0.00     0.035 A 
HETATM    5 CL   LIG     1      27.285  37.433  19.368  1.00  0.00    -0.084 Cl
HETATM    6  C   LIG     1      29.282  38.532  20.885  1.00  0.00     0.024 A 
HETATM    7  C   LIG     1      30.307  39.450  21.133  1.00  0.00     0.003 A 
HETATM    8  C   LIG     1      30.624  40.421  20.178  1.00  0.00     0.024 A 
ENDROOT
TORSDOF 0
ENDMDL
MODEL 20
REMARK VINA RESULT:      -3.3      5.676      6.706
REMARK  0 active torsions:
REMARK  status: ('A' for Active; 'I' for Inactive)
ROOT
HETATM    1 CL   LIG     1      15.923  34.914  21.341  1.00  0.00    -0.084 Cl
HETATM    2  C   LIG     1      15.451  33.705  20.161  1.00  0.00     0.035 A 
HETATM    3  C   LIG     1      15.536  33.990  18.793  1.00  0.00     0.047 A 
HETATM    4  C   LIG     1      15.159  33.025  17.852  1.00  0.00     0.035 A 
HETATM    5 CL   LIG     1      15.266  33.380  16.138  1.00  0.00    -0.084 Cl
HETATM    6  C   LIG     1      14.696  31.774  18.280  1.00  0.00     0.024 A 
HETATM    7  C   LIG     1      14.611  31.491  19.647  1.00  0.00     0.003 A 
HETATM    8  C   LIG     1      14.988  32.455  20.587  1.00  0.00     0.024 A 
ENDROOT
TORSDOF 0
ENDMDL
