MODEL 1
REMARK VINA RESULT:      -4.2      0.000      0.000
REMARK  2 active torsions:
REMARK  status: ('A' for Active; 'I' for Inactive)
REMARK    1  A    between atoms: C_2  and  C_4 
REMARK    2  A    between atoms: C_4  and  C_5 
ROOT
HETATM    1 CL   LIG     1      17.079  35.796  23.495  1.00  0.00    -0.108 Cl
HETATM    2  C   LIG     1      16.805  37.518  23.860  1.00  0.00     0.178 C 
HETATM    3 CL   LIG     1      17.735  38.497  22.693  1.00  0.00    -0.108 Cl
ENDROOT
BRANCH   2   4
HETATM    4  C   LIG     1      17.236  37.817  25.301  1.00  0.00     0.036 C 
BRANCH   4   5
HETATM    5  C   LIG     1      18.527  37.077  25.679  1.00  0.00    -0.002 C 
HETATM    6  C   LIG     1      18.286  36.108  26.834  1.00  0.00     0.005 C 
ENDBRANCH   4   5
ENDBRANCH   2   4
TORSDOF 2
ENDMDL
MODEL 2
REMARK VINA RESULT:      -4.1      2.545      3.881
REMARK  2 active torsions:
REMARK  status: ('A' for Active; 'I' for Inactive)
REMARK    1  A    between atoms: C_2  and  C_4 
REMARK    2  A    between atoms: C_4  and  C_5 
ROOT
HETATM    1 CL   LIG     1      18.097  37.378  25.204  1.00  0.00    -0.108 Cl
HETATM    2  C   LIG     1      17.383  35.756  25.393  1.00  0.00     0.178 C 
HETATM    3 CL   LIG     1      18.481  34.772  26.398  1.00  0.00    -0.108 Cl
ENDROOT
BRANCH   2   4
HETATM    4  C   LIG     1      17.174  35.119  24.014  1.00  0.00     0.036 C 
BRANCH   4   5
HETATM    5  C   LIG     1      16.927  36.172  22.926  1.00  0.00    -0.002 C 
HETATM    6  C   LIG     1      17.000  35.552  21.533  1.00  0.00     0.005 C 
ENDBRANCH   4   5
ENDBRANCH   2   4
TORSDOF 2
ENDMDL
MODEL 3
REMARK VINA RESULT:      -4.0      1.906      3.428
REMARK  2 active torsions:
REMARK  status: ('A' for Active; 'I' for Inactive)
REMARK    1  A    between atoms: C_2  and  C_4 
REMARK    2  A    between atoms: C_4  and  C_5 
ROOT
HETATM    1 CL   LIG     1      18.630  36.631  26.305  1.00  0.00    -0.108 Cl
HETATM    2  C   LIG     1      17.315  36.787  25.112  1.00  0.00     0.178 C 
HETATM    3 CL   LIG     1      17.240  35.282  24.156  1.00  0.00    -0.108 Cl
ENDROOT
BRANCH   2   4
HETATM    4  C   LIG     1      17.573  38.002  24.213  1.00  0.00     0.036 C 
BRANCH   4   5
HETATM    5  C   LIG     1      17.106  37.759  22.771  1.00  0.00    -0.002 C 
HETATM    6  C   LIG     1      17.841  38.672  21.794  1.00  0.00     0.005 C 
ENDBRANCH   4   5
ENDBRANCH   2   4
TORSDOF 2
ENDMDL
MODEL 4
REMARK VINA RESULT:      -3.9      3.328      4.178
REMARK  2 active torsions:
REMARK  status: ('A' for Active; 'I' for Inactive)
REMARK    1  A    between atoms: C_2  and  C_4 
REMARK    2  A    between atoms: C_4  and  C_5 
ROOT
HETATM    1 CL   LIG     1      18.460  36.842  20.126  1.00  0.00    -0.108 Cl
HETATM    2  C   LIG     1      18.851  38.579  20.046  1.00  0.00     0.178 C 
HETATM    3 CL   LIG     1      20.537  38.752  19.489  1.00  0.00    -0.108 Cl
ENDROOT
BRANCH   2   4
HETATM    4  C   LIG     1      18.654  39.219  21.425  1.00  0.00     0.036 C 
BRANCH   4   5
HETATM    5  C   LIG     1      17.350  38.759  22.091  1.00  0.00    -0.002 C 
HETATM    6  C   LIG     1      17.596  38.305  23.527  1.00  0.00     0.005 C 
ENDBRANCH   4   5
ENDBRANCH   2   4
TORSDOF 2
ENDMDL
MODEL 5
REMARK VINA RESULT:      -3.9      1.859      3.282
REMARK  2 active torsions:
REMARK  status: ('A' for Active; 'I' for Inactive)
REMARK    1  A    between atoms: C_2  and  C_4 
REMARK    2  A    between atoms: C_4  and  C_5 
ROOT
HETATM    1 CL   LIG     1      17.285  35.084  24.499  1.00  0.00    -0.108 Cl
HETATM    2  C   LIG     1      17.993  36.554  25.216  1.00  0.00     0.178 C 
HETATM    3 CL   LIG     1      18.268  36.257  26.954  1.00  0.00    -0.108 Cl
ENDROOT
BRANCH   2   4
HETATM    4  C   LIG     1      17.049  37.742  25.000  1.00  0.00     0.036 C 
BRANCH   4   5
HETATM    5  C   LIG     1      16.405  37.719  23.606  1.00  0.00    -0.002 C 
HETATM    6  C   LIG     1      16.956  38.838  22.727  1.00  0.00     0.005 C 
ENDBRANCH   4   5
ENDBRANCH   2   4
TORSDOF 2
ENDMDL
MODEL 6
REMARK VINA RESULT:      -3.9      1.296      1.656
REMARK  2 active torsions:
REMARK  status: ('A' for Active; 'I' for Inactive)
REMARK    1  A    between atoms: C_2  and  C_4 
REMARK    2  A    between atoms: C_4  and  C_5 
ROOT
HETATM    1 CL   LIG     1      17.556  36.429  21.095  1.00  0.00    -0.108 Cl
HETATM    2  C   LIG     1      17.094  37.565  22.388  1.00  0.00     0.178 C 
HETATM    3 CL   LIG     1      18.299  38.881  22.438  1.00  0.00    -0.108 Cl
ENDROOT
BRANCH   2   4
HETATM    4  C   LIG     1      17.027  36.825  23.728  1.00  0.00     0.036 C 
BRANCH   4   5
HETATM    5  C   LIG     1      17.431  37.726  24.903  1.00  0.00    -0.002 C 
HETATM    6  C   LIG     1      18.263  36.957  25.925  1.00  0.00     0.005 C 
ENDBRANCH   4   5
ENDBRANCH   2   4
TORSDOF 2
ENDMDL
MODEL 7
REMARK VINA RESULT:      -3.8      3.378      4.056
REMARK  2 active torsions:
REMARK  status: ('A' for Active; 'I' for Inactive)
REMARK    1  A    between atoms: C_2  and  C_4 
REMARK    2  A    between atoms: C_4  and  C_5 
ROOT
HETATM    1 CL   LIG     1      17.073  35.135  23.195  1.00  0.00    -0.108 Cl
HETATM    2  C   LIG     1      16.345  36.500  22.310  1.00  0.00     0.178 C 
HETATM    3 CL   LIG     1      14.978  35.879  21.345  1.00  0.00    -0.108 Cl
ENDROOT
BRANCH   2   4
HETATM    4  C   LIG     1      17.400  37.159  21.414  1.00  0.00     0.036 C 
BRANCH   4   5
HETATM    5  C   LIG     1      17.732  38.586  21.873  1.00  0.00    -0.002 C 
HETATM    6  C   LIG     1      18.694  39.265  20.903  1.00  0.00     0.005 C 
ENDBRANCH   4   5
ENDBRANCH   2   4
TORSDOF 2
ENDMDL
MODEL 8
REMARK VINA RESULT:      -3.8      1.995      2.824
REMARK  2 active torsions:
REMARK  status: ('A' for Active; 'I' for Inactive)
REMARK    1  A    between atoms: C_2  and  C_4 
REMARK    2  A    between atoms: C_4  and  C_5 
ROOT
HETATM    1 CL   LIG     1      14.767  35.918  21.354  1.00  0.00    -0.108 Cl
HETATM    2  C   LIG     1      16.304  36.483  22.058  1.00  0.00     0.178 C 
HETATM    3 CL   LIG     1      17.038  35.132  22.964  1.00  0.00    -0.108 Cl
ENDROOT
BRANCH   2   4
HETATM    4  C   LIG     1      16.044  37.686  22.972  1.00  0.00     0.036 C 
BRANCH   4   5
HETATM    5  C   LIG     1      17.336  38.208  23.615  1.00  0.00    -0.002 C 
HETATM    6  C   LIG     1      17.298  38.048  25.133  1.00  0.00     0.005 C 
ENDBRANCH   4   5
ENDBRANCH   2   4
TORSDOF 2
ENDMDL
MODEL 9
REMARK VINA RESULT:      -3.7      2.142      3.385
REMARK  2 active torsions:
REMARK  status: ('A' for Active; 'I' for Inactive)
REMARK    1  A    between atoms: C_2  and  C_4 
REMARK    2  A    between atoms: C_4  and  C_5 
ROOT
HETATM    1 CL   LIG     1      17.311  35.186  24.719  1.00  0.00    -0.108 Cl
HETATM    2  C   LIG     1      17.537  36.895  24.266  1.00  0.00     0.178 C 
HETATM    3 CL   LIG     1      17.304  37.899  25.723  1.00  0.00    -0.108 Cl
ENDROOT
BRANCH   2   4
HETATM    4  C   LIG     1      16.540  37.275  23.166  1.00  0.00     0.036 C 
BRANCH   4   5
HETATM    5  C   LIG     1      17.221  37.418  21.798  1.00  0.00    -0.002 C 
HETATM    6  C   LIG     1      17.342  36.067  21.100  1.00  0.00     0.005 C 
ENDBRANCH   4   5
ENDBRANCH   2   4
TORSDOF 2
ENDMDL
MODEL 10
REMARK VINA RESULT:      -3.6      2.875      3.987
REMARK  2 active torsions:
REMARK  status: ('A' for Active; 'I' for Inactive)
REMARK    1  A    between atoms: C_2  and  C_4 
REMARK    2  A    between atoms: C_4  and  C_5 
ROOT
HETATM    1 CL   LIG     1      15.499  37.824  22.876  1.00  0.00    -0.108 Cl
HETATM    2  C   LIG     1      17.072  37.004  22.703  1.00  0.00     0.178 C 
HETATM    3 CL   LIG     1      17.814  37.527  21.166  1.00  0.00    -0.108 Cl
ENDROOT
BRANCH   2   4
HETATM    4  C   LIG     1      16.869  35.484  22.730  1.00  0.00     0.036 C 
BRANCH   4   5
HETATM    5  C   LIG     1      16.500  34.929  21.348  1.00  0.00    -0.002 C 
HETATM    6  C   LIG     1      15.036  34.499  21.301  1.00  0.00     0.005 C 
ENDBRANCH   4   5
ENDBRANCH   2   4
TORSDOF 2
ENDMDL
MODEL 11
REMARK VINA RESULT:      -3.6     11.503     12.612
REMARK  2 active torsions:
REMARK  status: ('A' for Active; 'I' for Inactive)
REMARK    1  A    between atoms: C_2  and  C_4 
REMARK    2  A    between atoms: C_4  and  C_5 
ROOT
HETATM    1 CL   LIG     1      15.554  31.126  13.364  1.00  0.00    -0.108 Cl
HETATM    2  C   LIG     1      14.956  29.901  14.512  1.00  0.00     0.178 C 
HETATM    3 CL   LIG     1      15.322  28.284  13.852  1.00  0.00    -0.108 Cl
ENDROOT
BRANCH   2   4
HETATM    4  C   LIG     1      13.449  30.084  14.727  1.00  0.00     0.036 C 
BRANCH   4   5
HETATM    5  C   LIG     1      13.126  30.567  16.147  1.00  0.00    -0.002 C 
HETATM    6  C   LIG     1      14.108  31.643  16.599  1.00  0.00     0.005 C 
ENDBRANCH   4   5
ENDBRANCH   2   4
TORSDOF 2
ENDMDL
MODEL 12
REMARK VINA RESULT:      -3.6      3.066      4.286
REMARK  2 active torsions:
REMARK  status: ('A' for Active; 'I' for Inactive)
REMARK    1  A    between atoms: C_2  and  C_4 
REMARK    2  A    between atoms: C_4  and  C_5 
ROOT
HETATM    1 CL   LIG     1      15.366  37.736  22.748  1.00  0.00    -0.108 Cl
HETATM    2  C   LIG     1      17.133  37.586  22.578  1.00  0.00     0.178 C 
HETATM    3 CL   LIG     1      17.845  39.222  22.620  1.00  0.00    -0.108 Cl
ENDROOT
BRANCH   2   4
HETATM    4  C   LIG     1      17.469  36.870  21.264  1.00  0.00     0.036 C 
BRANCH   4   5
HETATM    5  C   LIG     1      18.426  37.693  20.391  1.00  0.00    -0.002 C 
HETATM    6  C   LIG     1      19.283  36.787  19.511  1.00  0.00     0.005 C 
ENDBRANCH   4   5
ENDBRANCH   2   4
TORSDOF 2
ENDMDL
MODEL 13
REMARK VINA RESULT:      -3.5      9.930     11.127
REMARK  2 active torsions:
REMARK  status: ('A' for Active; 'I' for Inactive)
REMARK    1  A    between atoms: C_2  and  C_4 
REMARK    2  A    between atoms: C_4  and  C_5 
ROOT
HETATM    1 CL   LIG     1      15.236  33.179  16.362  1.00  0.00    -0.108 Cl
HETATM    2  C   LIG     1      13.989  32.112  17.054  1.00  0.00     0.178 C 
HETATM    3 CL   LIG     1      14.513  31.617  18.687  1.00  0.00    -0.108 Cl
ENDROOT
BRANCH   2   4
HETATM    4  C   LIG     1      13.786  30.894  16.145  1.00  0.00     0.036 C 
BRANCH   4   5
HETATM    5  C   LIG     1      14.785  30.875  14.979  1.00  0.00    -0.002 C 
HETATM    6  C   LIG     1      14.757  29.533  14.254  1.00  0.00     0.005 C 
ENDBRANCH   4   5
ENDBRANCH   2   4
TORSDOF 2
ENDMDL
MODEL 14
REMARK VINA RESULT:      -3.4      7.726      8.955
REMARK  2 active torsions:
REMARK  status: ('A' for Active; 'I' for Inactive)
REMARK    1  A    between atoms: C_2  and  C_4 
REMARK    2  A    between atoms: C_4  and  C_5 
ROOT
HETATM    1 CL   LIG     1      14.746  31.008  20.171  1.00  0.00    -0.108 Cl
HETATM    2  C   LIG     1      15.619  32.315  19.330  1.00  0.00     0.178 C 
HETATM    3 CL   LIG     1      15.609  33.762  20.374  1.00  0.00    -0.108 Cl
ENDROOT
BRANCH   2   4
HETATM    4  C   LIG     1      14.948  32.601  17.981  1.00  0.00     0.036 C 
BRANCH   4   5
HETATM    5  C   LIG     1      13.933  31.514  17.602  1.00  0.00    -0.002 C 
HETATM    6  C   LIG     1      14.064  31.128  16.132  1.00  0.00     0.005 C 
ENDBRANCH   4   5
ENDBRANCH   2   4
TORSDOF 2
ENDMDL
MODEL 15
REMARK VINA RESULT:      -3.4      3.364      4.034
REMARK  2 active torsions:
REMARK  status: ('A' for Active; 'I' for Inactive)
REMARK    1  A    between atoms: C_2  and  C_4 
REMARK    2  A    between atoms: C_4  and  C_5 
ROOT
HETATM    1 CL   LIG     1      18.709  36.761  20.040  1.00  0.00    -0.108 Cl
HETATM    2  C   LIG     1      17.758  37.770  21.160  1.00  0.00     0.178 C 
HETATM    3 CL   LIG     1      18.844  38.990  21.879  1.00  0.00    -0.108 Cl
ENDROOT
BRANCH   2   4
HETATM    4  C   LIG     1      17.123  36.888  22.240  1.00  0.00     0.036 C 
BRANCH   4   5
HETATM    5  C   LIG     1      15.590  36.906  22.170  1.00  0.00    -0.002 C 
HETATM    6  C   LIG     1      15.062  35.725  21.360  1.00  0.00     0.005 C 
ENDBRANCH   4   5
ENDBRANCH   2   4
TORSDOF 2
ENDMDL
MODEL 16
REMARK VINA RESULT:      -3.4      9.181     10.155
REMARK  2 active torsions:
REMARK  status: ('A' for Active; 'I' for Inactive)
REMARK    1  A    between atoms: C_2  and  C_4 
REMARK    2  A    between atoms: C_4  and  C_5 
ROOT
HETATM    1 CL   LIG     1      15.425  31.715  15.065  1.00  0.00    -0.108 Cl
HETATM    2  C   LIG     1      14.302  31.046  16.276  1.00  0.00     0.178 C 
HETATM    3 CL   LIG     1      12.867  30.412  15.423  1.00  0.00    -0.108 Cl
ENDROOT
BRANCH   2   4
HETATM    4  C   LIG     1      13.912  32.136  17.280  1.00  0.00     0.036 C 
BRANCH   4   5
HETATM    5  C   LIG     1      15.039  32.423  18.282  1.00  0.00    -0.002 C 
HETATM    6  C   LIG     1      14.842  31.633  19.573  1.00  0.00     0.005 C 
ENDBRANCH   4   5
ENDBRANCH   2   4
TORSDOF 2
ENDMDL
MODEL 17
REMARK VINA RESULT:      -3.4     11.212     12.198
REMARK  2 active torsions:
REMARK  status: ('A' for Active; 'I' for Inactive)
REMARK    1  A    between atoms: C_2  and  C_4 
REMARK    2  A    between atoms: C_4  and  C_5 
ROOT
HETATM    1 CL   LIG     1      15.504  28.582  14.053  1.00  0.00    -0.108 Cl
HETATM    2  C   LIG     1      14.576  30.093  13.868  1.00  0.00     0.178 C 
HETATM    3 CL   LIG     1      15.727  31.429  13.594  1.00  0.00    -0.108 Cl
ENDROOT
BRANCH   2   4
HETATM    4  C   LIG     1      13.731  30.339  15.123  1.00  0.00     0.036 C 
BRANCH   4   5
HETATM    5  C   LIG     1      14.364  31.389  16.046  1.00  0.00    -0.002 C 
HETATM    6  C   LIG     1      13.336  31.958  17.019  1.00  0.00     0.005 C 
ENDBRANCH   4   5
ENDBRANCH   2   4
TORSDOF 2
ENDMDL
MODEL 18
REMARK VINA RESULT:      -3.4     11.889     12.241
REMARK  2 active torsions:
REMARK  status: ('A' for Active; 'I' for Inactive)
REMARK    1  A    between atoms: C_2  and  C_4 
REMARK    2  A    between atoms: C_4  and  C_5 
ROOT
HETATM    1 CL   LIG     1      27.929  40.056  19.509  1.00  0.00    -0.108 Cl
HETATM    2  C   LIG     1      28.527  38.381  19.395  1.00  0.00     0.178 C 
HETATM    3 CL   LIG     1      27.120  37.283  19.363  1.00  0.00    -0.108 Cl
ENDROOT
BRANCH   2   4
HETATM    4  C   LIG     1      29.441  38.075  20.587  1.00  0.00     0.036 C 
BRANCH   4   5
HETATM    5  C   LIG     1      29.571  39.276  21.534  1.00  0.00    -0.002 C 
HETATM    6  C   LIG     1      30.469  38.944  22.723  1.00  0.00     0.005 C 
ENDBRANCH   4   5
ENDBRANCH   2   4
TORSDOF 2
ENDMDL
MODEL 19
REMARK VINA RESULT:      -3.4     11.531     12.613
REMARK  2 active torsions:
REMARK  status: ('A' for Active; 'I' for Inactive)
REMARK    1  A    between atoms: C_2  and  C_4 
REMARK    2  A    between atoms: C_4  and  C_5 
ROOT
HETATM    1 CL   LIG     1      15.128  28.326  13.872  1.00  0.00    -0.108 Cl
HETATM    2  C   LIG     1      15.153  30.002  14.479  1.00  0.00     0.178 C 
HETATM    3 CL   LIG     1      13.562  30.364  15.201  1.00  0.00    -0.108 Cl
ENDROOT
BRANCH   2   4
HETATM    4  C   LIG     1      15.472  30.965  13.329  1.00  0.00     0.036 C 
BRANCH   4   5
HETATM    5  C   LIG     1      16.139  32.254  13.828  1.00  0.00    -0.002 C 
HETATM    6  C   LIG     1      16.623  32.101  15.267  1.00  0.00     0.005 C 
ENDBRANCH   4   5
ENDBRANCH   2   4
TORSDOF 2
ENDMDL
MODEL 20
REMARK VINA RESULT:      -3.4     10.916     11.962
REMARK  2 active torsions:
REMARK  status: ('A' for Active; 'I' for Inactive)
REMARK    1  A    between atoms: C_2  and  C_4 
REMARK    2  A    between atoms: C_4  and  C_5 
ROOT
HETATM    1 CL   LIG     1      12.714  31.071  16.293  1.00  0.00    -0.108 Cl
HETATM    2  C   LIG     1      14.463  31.409  16.243  1.00  0.00     0.178 C 
HETATM    3 CL   LIG     1      14.716  33.130  16.642  1.00  0.00    -0.108 Cl
ENDROOT
BRANCH   2   4
HETATM    4  C   LIG     1      15.016  31.076  14.852  1.00  0.00     0.036 C 
BRANCH   4   5
HETATM    5  C   LIG     1      14.317  29.857  14.234  1.00  0.00    -0.002 C 
HETATM    6  C   LIG     1      15.317  28.745  13.930  1.00  0.00     0.005 C 
ENDBRANCH   4   5
ENDBRANCH   2   4
TORSDOF 2
ENDMDL
