REMARK  0 active torsions:
REMARK  status: ('A' for Active; 'I' for Inactive)
ROOT
HETATM    1 CL   LIG     1      -2.296  -2.122   0.037  1.00  0.00    -0.084 Cl
HETATM    2  C   LIG     1      -1.026  -0.912   0.015  1.00  0.00     0.035 A 
HETATM    3  C   LIG     1       0.317  -1.306   0.048  1.00  0.00     0.047 A 
HETATM    4  C   LIG     1       1.330  -0.340   0.031  1.00  0.00     0.035 A 
HETATM    5 CL   LIG     1       3.013  -0.832   0.072  1.00  0.00    -0.084 Cl
HETATM    6  C   LIG     1       0.999   1.020  -0.019  1.00  0.00     0.024 A 
HETATM    7  C   LIG     1      -0.343   1.412  -0.052  1.00  0.00     0.003 A 
HETATM    8  C   LIG     1      -1.355   0.447  -0.035  1.00  0.00     0.024 A 
ENDROOT
TORSDOF 0
