MODEL 1
REMARK VINA RESULT:      -4.6      0.000      0.000
REMARK  4 active torsions:
REMARK  status: ('A' for Active; 'I' for Inactive)
REMARK    1  A    between atoms: C_2  and  C_4 
REMARK    2  A    between atoms: C_2  and  N_3 
REMARK    3  A    between atoms: C_4  and  C_5 
REMARK    4  A    between atoms: C_5  and  O_6 
ROOT
HETATM    1  C   LIG     1      18.022  34.823  26.141  1.00  0.00     0.043 C 
HETATM    2  C   LIG     1      17.666  36.296  25.905  1.00  0.00     0.223 C 
ENDROOT
BRANCH   2   3
HETATM    3  C   LIG     1      17.222  36.548  24.446  1.00  0.00     0.144 C 
BRANCH   3   4
HETATM    4  C   LIG     1      16.525  37.865  24.290  1.00  0.00     0.141 C 
HETATM    5  O   LIG     1      17.053  38.918  24.737  1.00  0.00    -0.650 OA
BRANCH   4   6
HETATM    6  O   LIG     1      15.296  37.926  23.641  1.00  0.00    -0.776 OA
HETATM    7  H   LIG     1      14.817  37.081  23.354  1.00  0.00     0.167 HD
ENDBRANCH   4   6
ENDBRANCH   3   4
ENDBRANCH   2   3
BRANCH   2   8
HETATM    8  N   LIG     1      18.818  37.133  26.245  1.00  0.00     0.083 N 
HETATM    9  H   LIG     1      19.636  36.514  26.451  1.00  0.00     0.313 HD
HETATM   10  H   LIG     1      18.609  37.674  27.116  1.00  0.00     0.313 HD
ENDBRANCH   2   8
TORSDOF 4
ENDMDL
MODEL 2
REMARK VINA RESULT:      -4.3      2.655      3.421
REMARK  4 active torsions:
REMARK  status: ('A' for Active; 'I' for Inactive)
REMARK    1  A    between atoms: C_2  and  C_4 
REMARK    2  A    between atoms: C_2  and  N_3 
REMARK    3  A    between atoms: C_4  and  C_5 
REMARK    4  A    between atoms: C_5  and  O_6 
ROOT
HETATM    1  C   LIG     1      16.728  36.723  21.769  1.00  0.00     0.043 C 
HETATM    2  C   LIG     1      16.630  38.046  22.538  1.00  0.00     0.223 C 
ENDROOT
BRANCH   2   3
HETATM    3  C   LIG     1      17.796  38.212  23.537  1.00  0.00     0.144 C 
BRANCH   3   4
HETATM    4  C   LIG     1      17.386  37.885  24.941  1.00  0.00     0.141 C 
HETATM    5  O   LIG     1      17.222  36.686  25.290  1.00  0.00    -0.650 OA
BRANCH   4   6
HETATM    6  O   LIG     1      17.193  38.909  25.863  1.00  0.00    -0.776 OA
HETATM    7  H   LIG     1      16.750  39.778  25.590  1.00  0.00     0.167 HD
ENDBRANCH   4   6
ENDBRANCH   3   4
ENDBRANCH   2   3
BRANCH   2   8
HETATM    8  N   LIG     1      15.342  38.108  23.232  1.00  0.00     0.083 N 
HETATM    9  H   LIG     1      15.071  39.112  23.349  1.00  0.00     0.313 HD
HETATM   10  H   LIG     1      15.444  37.698  24.189  1.00  0.00     0.313 HD
ENDBRANCH   2   8
TORSDOF 4
ENDMDL
MODEL 3
REMARK VINA RESULT:      -4.2      9.177      9.748
REMARK  4 active torsions:
REMARK  status: ('A' for Active; 'I' for Inactive)
REMARK    1  A    between atoms: C_2  and  C_4 
REMARK    2  A    between atoms: C_2  and  N_3 
REMARK    3  A    between atoms: C_4  and  C_5 
REMARK    4  A    between atoms: C_5  and  O_6 
ROOT
HETATM    1  C   LIG     1      13.149  30.833  16.230  1.00  0.00     0.043 C 
HETATM    2  C   LIG     1      13.749  32.003  17.017  1.00  0.00     0.223 C 
ENDROOT
BRANCH   2   3
HETATM    3  C   LIG     1      15.060  32.509  16.374  1.00  0.00     0.144 C 
BRANCH   3   4
HETATM    4  C   LIG     1      15.377  33.918  16.777  1.00  0.00     0.141 C 
HETATM    5  O   LIG     1      16.129  34.628  16.057  1.00  0.00    -0.650 OA
BRANCH   4   6
HETATM    6  O   LIG     1      14.832  34.445  17.944  1.00  0.00    -0.776 OA
HETATM    7  H   LIG     1      15.392  34.538  18.782  1.00  0.00     0.167 HD
ENDBRANCH   4   6
ENDBRANCH   3   4
ENDBRANCH   2   3
BRANCH   2   8
HETATM    8  N   LIG     1      13.980  31.588  18.402  1.00  0.00     0.083 N 
HETATM    9  H   LIG     1      13.055  31.419  18.861  1.00  0.00     0.313 HD
HETATM   10  H   LIG     1      14.451  32.363  18.923  1.00  0.00     0.313 HD
ENDBRANCH   2   8
TORSDOF 4
ENDMDL
MODEL 4
REMARK VINA RESULT:      -4.1      3.752      4.332
REMARK  4 active torsions:
REMARK  status: ('A' for Active; 'I' for Inactive)
REMARK    1  A    between atoms: C_2  and  C_4 
REMARK    2  A    between atoms: C_2  and  N_3 
REMARK    3  A    between atoms: C_4  and  C_5 
REMARK    4  A    between atoms: C_5  and  O_6 
ROOT
HETATM    1  C   LIG     1      17.418  38.220  21.863  1.00  0.00     0.043 C 
HETATM    2  C   LIG     1      16.620  37.365  22.854  1.00  0.00     0.223 C 
ENDROOT
BRANCH   2   3
HETATM    3  C   LIG     1      16.576  35.882  22.421  1.00  0.00     0.144 C 
BRANCH   3   4
HETATM    4  C   LIG     1      15.773  35.685  21.171  1.00  0.00     0.141 C 
HETATM    5  O   LIG     1      16.346  35.376  20.093  1.00  0.00    -0.650 OA
BRANCH   4   6
HETATM    6  O   LIG     1      14.390  35.835  21.205  1.00  0.00    -0.776 OA
HETATM    7  H   LIG     1      13.786  35.043  21.390  1.00  0.00     0.167 HD
ENDBRANCH   4   6
ENDBRANCH   3   4
ENDBRANCH   2   3
BRANCH   2   8
HETATM    8  N   LIG     1      15.265  37.907  22.980  1.00  0.00     0.083 N 
HETATM    9  H   LIG     1      15.191  38.768  22.392  1.00  0.00     0.313 HD
HETATM   10  H   LIG     1      15.096  38.189  23.973  1.00  0.00     0.313 HD
ENDBRANCH   2   8
TORSDOF 4
ENDMDL
MODEL 5
REMARK VINA RESULT:      -4.1      5.376      6.001
REMARK  4 active torsions:
REMARK  status: ('A' for Active; 'I' for Inactive)
REMARK    1  A    between atoms: C_2  and  C_4 
REMARK    2  A    between atoms: C_2  and  N_3 
REMARK    3  A    between atoms: C_4  and  C_5 
REMARK    4  A    between atoms: C_5  and  O_6 
ROOT
HETATM    1  C   LIG     1      17.335  38.204  22.009  1.00  0.00     0.043 C 
HETATM    2  C   LIG     1      18.303  39.022  21.146  1.00  0.00     0.223 C 
ENDROOT
BRANCH   2   3
HETATM    3  C   LIG     1      18.742  38.241  19.887  1.00  0.00     0.144 C 
BRANCH   3   4
HETATM    4  C   LIG     1      19.431  39.123  18.890  1.00  0.00     0.141 C 
HETATM    5  O   LIG     1      18.788  39.605  17.920  1.00  0.00    -0.650 OA
BRANCH   4   6
HETATM    6  O   LIG     1      20.783  39.416  19.042  1.00  0.00    -0.776 OA
HETATM    7  H   LIG     1      21.082  40.304  19.427  1.00  0.00     0.167 HD
ENDBRANCH   4   6
ENDBRANCH   3   4
ENDBRANCH   2   3
BRANCH   2   8
HETATM    8  N   LIG     1      19.467  39.401  21.950  1.00  0.00     0.083 N 
HETATM    9  H   LIG     1      20.149  38.609  21.949  1.00  0.00     0.313 HD
HETATM   10  H   LIG     1      19.168  39.556  22.941  1.00  0.00     0.313 HD
ENDBRANCH   2   8
TORSDOF 4
ENDMDL
MODEL 6
REMARK VINA RESULT:      -3.9      8.595      9.214
REMARK  4 active torsions:
REMARK  status: ('A' for Active; 'I' for Inactive)
REMARK    1  A    between atoms: C_2  and  C_4 
REMARK    2  A    between atoms: C_2  and  N_3 
REMARK    3  A    between atoms: C_4  and  C_5 
REMARK    4  A    between atoms: C_5  and  O_6 
ROOT
HETATM    1  C   LIG     1      15.516  33.394  20.098  1.00  0.00     0.043 C 
HETATM    2  C   LIG     1      15.328  32.237  19.110  1.00  0.00     0.223 C 
ENDROOT
BRANCH   2   3
HETATM    3  C   LIG     1      14.905  32.743  17.713  1.00  0.00     0.144 C 
BRANCH   3   4
HETATM    4  C   LIG     1      13.853  31.874  17.094  1.00  0.00     0.141 C 
HETATM    5  O   LIG     1      14.182  30.847  16.443  1.00  0.00    -0.650 OA
BRANCH   4   6
HETATM    6  O   LIG     1      12.507  32.197  17.247  1.00  0.00    -0.776 OA
HETATM    7  H   LIG     1      12.096  32.963  16.729  1.00  0.00     0.167 HD
ENDBRANCH   4   6
ENDBRANCH   3   4
ENDBRANCH   2   3
BRANCH   2   8
HETATM    8  N   LIG     1      14.336  31.301  19.643  1.00  0.00     0.083 N 
HETATM    9  H   LIG     1      14.624  31.018  20.608  1.00  0.00     0.313 HD
HETATM   10  H   LIG     1      14.323  30.436  19.054  1.00  0.00     0.313 HD
ENDBRANCH   2   8
TORSDOF 4
ENDMDL
MODEL 7
REMARK VINA RESULT:      -3.9      3.160      4.083
REMARK  4 active torsions:
REMARK  status: ('A' for Active; 'I' for Inactive)
REMARK    1  A    between atoms: C_2  and  C_4 
REMARK    2  A    between atoms: C_2  and  N_3 
REMARK    3  A    between atoms: C_4  and  C_5 
REMARK    4  A    between atoms: C_5  and  O_6 
ROOT
HETATM    1  C   LIG     1      18.191  37.486  20.725  1.00  0.00     0.043 C 
HETATM    2  C   LIG     1      18.446  38.601  21.746  1.00  0.00     0.223 C 
ENDROOT
BRANCH   2   3
HETATM    3  C   LIG     1      17.180  38.915  22.574  1.00  0.00     0.144 C 
BRANCH   3   4
HETATM    4  C   LIG     1      17.255  38.342  23.957  1.00  0.00     0.141 C 
HETATM    5  O   LIG     1      16.211  37.932  24.530  1.00  0.00    -0.650 OA
BRANCH   4   6
HETATM    6  O   LIG     1      18.483  38.256  24.606  1.00  0.00    -0.776 OA
HETATM    7  H   LIG     1      19.213  38.934  24.427  1.00  0.00     0.167 HD
ENDBRANCH   4   6
ENDBRANCH   3   4
ENDBRANCH   2   3
BRANCH   2   8
HETATM    8  N   LIG     1      18.918  39.799  21.049  1.00  0.00     0.083 N 
HETATM    9  H   LIG     1      18.999  40.580  21.739  1.00  0.00     0.313 HD
HETATM   10  H   LIG     1      18.210  40.085  20.333  1.00  0.00     0.313 HD
ENDBRANCH   2   8
TORSDOF 4
ENDMDL
MODEL 8
REMARK VINA RESULT:      -3.8      2.999      3.670
REMARK  4 active torsions:
REMARK  status: ('A' for Active; 'I' for Inactive)
REMARK    1  A    between atoms: C_2  and  C_4 
REMARK    2  A    between atoms: C_2  and  N_3 
REMARK    3  A    between atoms: C_4  and  C_5 
REMARK    4  A    between atoms: C_5  and  O_6 
ROOT
HETATM    1  C   LIG     1      18.300  37.127  20.253  1.00  0.00     0.043 C 
HETATM    2  C   LIG     1      18.068  37.703  21.655  1.00  0.00     0.223 C 
ENDROOT
BRANCH   2   3
HETATM    3  C   LIG     1      17.012  36.889  22.437  1.00  0.00     0.144 C 
BRANCH   3   4
HETATM    4  C   LIG     1      16.226  37.747  23.381  1.00  0.00     0.141 C 
HETATM    5  O   LIG     1      16.696  38.040  24.512  1.00  0.00    -0.650 OA
BRANCH   4   6
HETATM    6  O   LIG     1      14.976  38.228  23.003  1.00  0.00    -0.776 OA
HETATM    7  H   LIG     1      14.587  38.006  22.094  1.00  0.00     0.167 HD
ENDBRANCH   4   6
ENDBRANCH   3   4
ENDBRANCH   2   3
BRANCH   2   8
HETATM    8  N   LIG     1      17.659  39.104  21.542  1.00  0.00     0.083 N 
HETATM    9  H   LIG     1      18.292  39.586  20.862  1.00  0.00     0.313 HD
HETATM   10  H   LIG     1      17.778  39.576  22.469  1.00  0.00     0.313 HD
ENDBRANCH   2   8
TORSDOF 4
ENDMDL
MODEL 9
REMARK VINA RESULT:      -3.8      4.275      4.816
REMARK  4 active torsions:
REMARK  status: ('A' for Active; 'I' for Inactive)
REMARK    1  A    between atoms: C_2  and  C_4 
REMARK    2  A    between atoms: C_2  and  N_3 
REMARK    3  A    between atoms: C_4  and  C_5 
REMARK    4  A    between atoms: C_5  and  O_6 
ROOT
HETATM    1  C   LIG     1      15.595  33.634  20.279  1.00  0.00     0.043 C 
HETATM    2  C   LIG     1      15.599  35.164  20.378  1.00  0.00     0.223 C 
ENDROOT
BRANCH   2   3
HETATM    3  C   LIG     1      16.943  35.695  20.925  1.00  0.00     0.144 C 
BRANCH   3   4
HETATM    4  C   LIG     1      16.855  36.063  22.375  1.00  0.00     0.141 C 
HETATM    5  O   LIG     1      16.651  37.259  22.714  1.00  0.00    -0.650 OA
BRANCH   4   6
HETATM    6  O   LIG     1      16.991  35.079  23.350  1.00  0.00    -0.776 OA
HETATM    7  H   LIG     1      17.898  34.684  23.566  1.00  0.00     0.167 HD
ENDBRANCH   4   6
ENDBRANCH   3   4
ENDBRANCH   2   3
BRANCH   2   8
HETATM    8  N   LIG     1      14.488  35.598  21.228  1.00  0.00     0.083 N 
HETATM    9  H   LIG     1      13.602  35.180  20.863  1.00  0.00     0.313 HD
HETATM   10  H   LIG     1      14.392  36.638  21.170  1.00  0.00     0.313 HD
ENDBRANCH   2   8
TORSDOF 4
ENDMDL
MODEL 10
REMARK VINA RESULT:      -3.8      2.547      3.298
REMARK  4 active torsions:
REMARK  status: ('A' for Active; 'I' for Inactive)
REMARK    1  A    between atoms: C_2  and  C_4 
REMARK    2  A    between atoms: C_2  and  N_3 
REMARK    3  A    between atoms: C_4  and  C_5 
REMARK    4  A    between atoms: C_5  and  O_6 
ROOT
HETATM    1  C   LIG     1      15.885  35.082  21.656  1.00  0.00     0.043 C 
HETATM    2  C   LIG     1      17.118  35.808  22.205  1.00  0.00     0.223 C 
ENDROOT
BRANCH   2   3
HETATM    3  C   LIG     1      17.040  35.984  23.738  1.00  0.00     0.144 C 
BRANCH   3   4
HETATM    4  C   LIG     1      16.945  37.426  24.134  1.00  0.00     0.141 C 
HETATM    5  O   LIG     1      15.835  38.021  24.100  1.00  0.00    -0.650 OA
BRANCH   4   6
HETATM    6  O   LIG     1      18.085  38.108  24.549  1.00  0.00    -0.776 OA
HETATM    7  H   LIG     1      18.981  37.639  24.599  1.00  0.00     0.167 HD
ENDBRANCH   4   6
ENDBRANCH   3   4
ENDBRANCH   2   3
BRANCH   2   8
HETATM    8  N   LIG     1      17.252  37.107  21.542  1.00  0.00     0.083 N 
HETATM    9  H   LIG     1      16.457  37.719  21.837  1.00  0.00     0.313 HD
HETATM   10  H   LIG     1      17.179  36.977  20.506  1.00  0.00     0.313 HD
ENDBRANCH   2   8
TORSDOF 4
ENDMDL
MODEL 11
REMARK VINA RESULT:      -3.7      6.944      7.688
REMARK  4 active torsions:
REMARK  status: ('A' for Active; 'I' for Inactive)
REMARK    1  A    between atoms: C_2  and  C_4 
REMARK    2  A    between atoms: C_2  and  N_3 
REMARK    3  A    between atoms: C_4  and  C_5 
REMARK    4  A    between atoms: C_5  and  O_6 
ROOT
HETATM    1  C   LIG     1      15.660  35.139  20.297  1.00  0.00     0.043 C 
HETATM    2  C   LIG     1      15.508  33.661  20.675  1.00  0.00     0.223 C 
ENDROOT
BRANCH   2   3
HETATM    3  C   LIG     1      15.709  32.737  19.454  1.00  0.00     0.144 C 
BRANCH   3   4
HETATM    4  C   LIG     1      14.798  31.548  19.492  1.00  0.00     0.141 C 
HETATM    5  O   LIG     1      13.920  31.394  18.602  1.00  0.00    -0.650 OA
BRANCH   4   6
HETATM    6  O   LIG     1      14.929  30.606  20.509  1.00  0.00    -0.776 OA
HETATM    7  H   LIG     1      14.526  29.682  20.415  1.00  0.00     0.167 HD
ENDBRANCH   4   6
ENDBRANCH   3   4
ENDBRANCH   2   3
BRANCH   2   8
HETATM    8  N   LIG     1      14.188  33.448  21.273  1.00  0.00     0.083 N 
HETATM    9  H   LIG     1      13.827  34.363  21.628  1.00  0.00     0.313 HD
HETATM   10  H   LIG     1      14.279  32.807  22.095  1.00  0.00     0.313 HD
ENDBRANCH   2   8
TORSDOF 4
ENDMDL
MODEL 12
REMARK VINA RESULT:      -3.7      9.845     10.392
REMARK  4 active torsions:
REMARK  status: ('A' for Active; 'I' for Inactive)
REMARK    1  A    between atoms: C_2  and  C_4 
REMARK    2  A    between atoms: C_2  and  N_3 
REMARK    3  A    between atoms: C_4  and  C_5 
REMARK    4  A    between atoms: C_5  and  O_6 
ROOT
HETATM    1  C   LIG     1      14.953  32.687  18.070  1.00  0.00     0.043 C 
HETATM    2  C   LIG     1      15.028  33.247  16.645  1.00  0.00     0.223 C 
ENDROOT
BRANCH   2   3
HETATM    3  C   LIG     1      15.578  32.201  15.650  1.00  0.00     0.144 C 
BRANCH   3   4
HETATM    4  C   LIG     1      16.732  32.733  14.855  1.00  0.00     0.141 C 
HETATM    5  O   LIG     1      17.912  32.578  15.270  1.00  0.00    -0.650 OA
BRANCH   4   6
HETATM    6  O   LIG     1      16.500  33.392  13.651  1.00  0.00    -0.776 OA
HETATM    7  H   LIG     1      17.118  34.129  13.335  1.00  0.00     0.167 HD
ENDBRANCH   4   6
ENDBRANCH   3   4
ENDBRANCH   2   3
BRANCH   2   8
HETATM    8  N   LIG     1      15.862  34.451  16.642  1.00  0.00     0.083 N 
HETATM    9  H   LIG     1      15.372  35.198  16.098  1.00  0.00     0.313 HD
HETATM   10  H   LIG     1      16.764  34.248  16.152  1.00  0.00     0.313 HD
ENDBRANCH   2   8
TORSDOF 4
ENDMDL
MODEL 13
REMARK VINA RESULT:      -3.7     12.779     13.343
REMARK  4 active torsions:
REMARK  status: ('A' for Active; 'I' for Inactive)
REMARK    1  A    between atoms: C_2  and  C_4 
REMARK    2  A    between atoms: C_2  and  N_3 
REMARK    3  A    between atoms: C_4  and  C_5 
REMARK    4  A    between atoms: C_5  and  O_6 
ROOT
HETATM    1  C   LIG     1      19.727  32.773  10.708  1.00  0.00     0.043 C 
HETATM    2  C   LIG     1      19.441  34.038  11.525  1.00  0.00     0.223 C 
ENDROOT
BRANCH   2   3
HETATM    3  C   LIG     1      19.123  33.703  13.000  1.00  0.00     0.144 C 
BRANCH   3   4
HETATM    4  C   LIG     1      17.715  34.063  13.367  1.00  0.00     0.141 C 
HETATM    5  O   LIG     1      17.482  35.100  14.044  1.00  0.00    -0.650 OA
BRANCH   4   6
HETATM    6  O   LIG     1      16.661  33.254  12.951  1.00  0.00    -0.776 OA
HETATM    7  H   LIG     1      16.140  33.471  12.111  1.00  0.00     0.167 HD
ENDBRANCH   4   6
ENDBRANCH   3   4
ENDBRANCH   2   3
BRANCH   2   8
HETATM    8  N   LIG     1      18.333  34.772  10.911  1.00  0.00     0.083 N 
HETATM    9  H   LIG     1      18.678  35.233  10.038  1.00  0.00     0.313 HD
HETATM   10  H   LIG     1      18.016  35.528  11.561  1.00  0.00     0.313 HD
ENDBRANCH   2   8
TORSDOF 4
ENDMDL
MODEL 14
REMARK VINA RESULT:      -3.7      3.940      4.735
REMARK  4 active torsions:
REMARK  status: ('A' for Active; 'I' for Inactive)
REMARK    1  A    between atoms: C_2  and  C_4 
REMARK    2  A    between atoms: C_2  and  N_3 
REMARK    3  A    between atoms: C_4  and  C_5 
REMARK    4  A    between atoms: C_5  and  O_6 
ROOT
HETATM    1  C   LIG     1      19.959  38.935  19.925  1.00  0.00     0.043 C 
HETATM    2  C   LIG     1      18.575  38.548  20.459  1.00  0.00     0.223 C 
ENDROOT
BRANCH   2   3
HETATM    3  C   LIG     1      18.407  38.942  21.943  1.00  0.00     0.144 C 
BRANCH   3   4
HETATM    4  C   LIG     1      17.134  38.407  22.527  1.00  0.00     0.141 C 
HETATM    5  O   LIG     1      16.176  39.185  22.776  1.00  0.00    -0.650 OA
BRANCH   4   6
HETATM    6  O   LIG     1      17.009  37.045  22.786  1.00  0.00    -0.776 OA
HETATM    7  H   LIG     1      17.383  36.642  23.637  1.00  0.00     0.167 HD
ENDBRANCH   4   6
ENDBRANCH   3   4
ENDBRANCH   2   3
BRANCH   2   8
HETATM    8  N   LIG     1      18.372  37.109  20.280  1.00  0.00     0.083 N 
HETATM    9  H   LIG     1      18.150  36.922  19.275  1.00  0.00     0.313 HD
HETATM   10  H   LIG     1      17.547  36.802  20.845  1.00  0.00     0.313 HD
ENDBRANCH   2   8
TORSDOF 4
ENDMDL
MODEL 15
REMARK VINA RESULT:      -3.6      4.498      4.827
REMARK  4 active torsions:
REMARK  status: ('A' for Active; 'I' for Inactive)
REMARK    1  A    between atoms: C_2  and  C_4 
REMARK    2  A    between atoms: C_2  and  N_3 
REMARK    3  A    between atoms: C_4  and  C_5 
REMARK    4  A    between atoms: C_5  and  O_6 
ROOT
HETATM    1  C   LIG     1      16.906  35.435  21.504  1.00  0.00     0.043 C 
HETATM    2  C   LIG     1      17.938  36.485  21.076  1.00  0.00     0.223 C 
ENDROOT
BRANCH   2   3
HETATM    3  C   LIG     1      17.541  37.901  21.551  1.00  0.00     0.144 C 
BRANCH   3   4
HETATM    4  C   LIG     1      18.581  38.923  21.205  1.00  0.00     0.141 C 
HETATM    5  O   LIG     1      18.635  39.404  20.042  1.00  0.00    -0.650 OA
BRANCH   4   6
HETATM    6  O   LIG     1      19.485  39.347  22.175  1.00  0.00    -0.776 OA
HETATM    7  H   LIG     1      20.467  39.111  22.108  1.00  0.00     0.167 HD
ENDBRANCH   4   6
ENDBRANCH   3   4
ENDBRANCH   2   3
BRANCH   2   8
HETATM    8  N   LIG     1      18.088  36.452  19.620  1.00  0.00     0.083 N 
HETATM    9  H   LIG     1      19.018  36.859  19.368  1.00  0.00     0.313 HD
HETATM   10  H   LIG     1      17.354  37.054  19.181  1.00  0.00     0.313 HD
ENDBRANCH   2   8
TORSDOF 4
ENDMDL
MODEL 16
REMARK VINA RESULT:      -3.6      8.397      9.044
REMARK  4 active torsions:
REMARK  status: ('A' for Active; 'I' for Inactive)
REMARK    1  A    between atoms: C_2  and  C_4 
REMARK    2  A    between atoms: C_2  and  N_3 
REMARK    3  A    between atoms: C_4  and  C_5 
REMARK    4  A    between atoms: C_5  and  O_6 
ROOT
HETATM    1  C   LIG     1      15.299  32.254  15.622  1.00  0.00     0.043 C 
HETATM    2  C   LIG     1      15.264  32.857  17.031  1.00  0.00     0.223 C 
ENDROOT
BRANCH   2   3
HETATM    3  C   LIG     1      14.542  31.927  18.031  1.00  0.00     0.144 C 
BRANCH   3   4
HETATM    4  C   LIG     1      14.902  32.240  19.452  1.00  0.00     0.141 C 
HETATM    5  O   LIG     1      15.816  33.070  19.705  1.00  0.00    -0.650 OA
BRANCH   4   6
HETATM    6  O   LIG     1      14.220  31.619  20.493  1.00  0.00    -0.776 OA
HETATM    7  H   LIG     1      13.398  31.055  20.312  1.00  0.00     0.167 HD
ENDBRANCH   4   6
ENDBRANCH   3   4
ENDBRANCH   2   3
BRANCH   2   8
HETATM    8  N   LIG     1      14.611  34.168  16.981  1.00  0.00     0.083 N 
HETATM    9  H   LIG     1      14.743  34.573  16.026  1.00  0.00     0.313 HD
HETATM   10  H   LIG     1      15.075  34.812  17.662  1.00  0.00     0.313 HD
ENDBRANCH   2   8
TORSDOF 4
ENDMDL
MODEL 17
REMARK VINA RESULT:      -3.5      4.831      5.568
REMARK  4 active torsions:
REMARK  status: ('A' for Active; 'I' for Inactive)
REMARK    1  A    between atoms: C_2  and  C_4 
REMARK    2  A    between atoms: C_2  and  N_3 
REMARK    3  A    between atoms: C_4  and  C_5 
REMARK    4  A    between atoms: C_5  and  O_6 
ROOT
HETATM    1  C   LIG     1      18.090  36.641  20.355  1.00  0.00     0.043 C 
HETATM    2  C   LIG     1      17.043  35.774  21.064  1.00  0.00     0.223 C 
ENDROOT
BRANCH   2   3
HETATM    3  C   LIG     1      15.997  35.219  20.071  1.00  0.00     0.144 C 
BRANCH   3   4
HETATM    4  C   LIG     1      15.343  33.971  20.582  1.00  0.00     0.141 C 
HETATM    5  O   LIG     1      15.690  32.846  20.134  1.00  0.00    -0.650 OA
BRANCH   4   6
HETATM    6  O   LIG     1      14.357  34.055  21.560  1.00  0.00    -0.776 OA
HETATM    7  H   LIG     1      13.393  33.829  21.346  1.00  0.00     0.167 HD
ENDBRANCH   4   6
ENDBRANCH   3   4
ENDBRANCH   2   3
BRANCH   2   8
HETATM    8  N   LIG     1      16.392  36.561  22.113  1.00  0.00     0.083 N 
HETATM    9  H   LIG     1      16.977  36.517  22.979  1.00  0.00     0.313 HD
HETATM   10  H   LIG     1      15.464  36.136  22.340  1.00  0.00     0.313 HD
ENDBRANCH   2   8
TORSDOF 4
ENDMDL
MODEL 18
REMARK VINA RESULT:      -3.5     11.567     12.094
REMARK  4 active torsions:
REMARK  status: ('A' for Active; 'I' for Inactive)
REMARK    1  A    between atoms: C_2  and  C_4 
REMARK    2  A    between atoms: C_2  and  N_3 
REMARK    3  A    between atoms: C_4  and  C_5 
REMARK    4  A    between atoms: C_5  and  O_6 
ROOT
HETATM    1  C   LIG     1      15.341  29.151  14.076  1.00  0.00     0.043 C 
HETATM    2  C   LIG     1      14.776  30.572  14.195  1.00  0.00     0.223 C 
ENDROOT
BRANCH   2   3
HETATM    3  C   LIG     1      15.787  31.630  13.699  1.00  0.00     0.144 C 
BRANCH   3   4
HETATM    4  C   LIG     1      16.443  32.357  14.834  1.00  0.00     0.141 C 
HETATM    5  O   LIG     1      17.529  31.936  15.312  1.00  0.00    -0.650 OA
BRANCH   4   6
HETATM    6  O   LIG     1      15.853  33.505  15.354  1.00  0.00    -0.776 OA
HETATM    7  H   LIG     1      16.190  34.425  15.095  1.00  0.00     0.167 HD
ENDBRANCH   4   6
ENDBRANCH   3   4
ENDBRANCH   2   3
BRANCH   2   8
HETATM    8  N   LIG     1      14.399  30.829  15.586  1.00  0.00     0.083 N 
HETATM    9  H   LIG     1      13.542  31.429  15.597  1.00  0.00     0.313 HD
HETATM   10  H   LIG     1      15.163  31.366  16.059  1.00  0.00     0.313 HD
ENDBRANCH   2   8
TORSDOF 4
ENDMDL
MODEL 19
REMARK VINA RESULT:      -3.4     11.524     12.158
REMARK  4 active torsions:
REMARK  status: ('A' for Active; 'I' for Inactive)
REMARK    1  A    between atoms: C_2  and  C_4 
REMARK    2  A    between atoms: C_2  and  N_3 
REMARK    3  A    between atoms: C_4  and  C_5 
REMARK    4  A    between atoms: C_5  and  O_6 
ROOT
HETATM    1  C   LIG     1      14.832  32.470  16.183  1.00  0.00     0.043 C 
HETATM    2  C   LIG     1      14.205  31.166  16.691  1.00  0.00     0.223 C 
ENDROOT
BRANCH   2   3
HETATM    3  C   LIG     1      13.049  30.697  15.779  1.00  0.00     0.144 C 
BRANCH   3   4
HETATM    4  C   LIG     1      13.512  29.723  14.739  1.00  0.00     0.141 C 
HETATM    5  O   LIG     1      14.743  29.566  14.522  1.00  0.00    -0.650 OA
BRANCH   4   6
HETATM    6  O   LIG     1      12.580  28.985  14.016  1.00  0.00    -0.776 OA
HETATM    7  H   LIG     1      11.599  28.999  14.268  1.00  0.00     0.167 HD
ENDBRANCH   4   6
ENDBRANCH   3   4
ENDBRANCH   2   3
BRANCH   2   8
HETATM    8  N   LIG     1      13.735  31.357  18.065  1.00  0.00     0.083 N 
HETATM    9  H   LIG     1      14.311  32.104  18.517  1.00  0.00     0.313 HD
HETATM   10  H   LIG     1      13.883  30.476  18.608  1.00  0.00     0.313 HD
ENDBRANCH   2   8
TORSDOF 4
ENDMDL
MODEL 20
REMARK VINA RESULT:      -3.4     12.316     12.597
REMARK  4 active torsions:
REMARK  status: ('A' for Active; 'I' for Inactive)
REMARK    1  A    between atoms: C_2  and  C_4 
REMARK    2  A    between atoms: C_2  and  N_3 
REMARK    3  A    between atoms: C_4  and  C_5 
REMARK    4  A    between atoms: C_5  and  O_6 
ROOT
HETATM    1  C   LIG     1      29.816  38.522  20.557  1.00  0.00     0.043 C 
HETATM    2  C   LIG     1      29.058  39.158  19.386  1.00  0.00     0.223 C 
ENDROOT
BRANCH   2   3
HETATM    3  C   LIG     1      27.528  39.077  19.586  1.00  0.00     0.144 C 
BRANCH   3   4
HETATM    4  C   LIG     1      26.932  37.887  18.897  1.00  0.00     0.141 C 
HETATM    5  O   LIG     1      26.369  38.020  17.778  1.00  0.00    -0.650 OA
BRANCH   4   6
HETATM    6  O   LIG     1      27.009  36.631  19.491  1.00  0.00    -0.776 OA
HETATM    7  H   LIG     1      27.730  36.421  20.171  1.00  0.00     0.167 HD
ENDBRANCH   4   6
ENDBRANCH   3   4
ENDBRANCH   2   3
BRANCH   2   8
HETATM    8  N   LIG     1      29.451  38.499  18.139  1.00  0.00     0.083 N 
HETATM    9  H   LIG     1      29.221  37.481  18.209  1.00  0.00     0.313 HD
HETATM   10  H   LIG     1      30.487  38.578  18.016  1.00  0.00     0.313 HD
ENDBRANCH   2   8
TORSDOF 4
ENDMDL
