MODEL 1
REMARK VINA RESULT:      -4.4      0.000      0.000
REMARK  3 active torsions:
REMARK  status: ('A' for Active; 'I' for Inactive)
REMARK    1  A    between atoms: C_2  and  O_3 
REMARK    2  A    between atoms: O_3  and  C_4 
REMARK    3  A    between atoms: C_4  and  C_5 
ROOT
HETATM    1  C   LIG     1      17.468  37.541  25.077  1.00  0.00     0.181 C 
ENDROOT
BRANCH   1   2
HETATM    2  O   LIG     1      16.191  37.759  24.483  1.00  0.00    -0.328 OA
BRANCH   2   3
HETATM    3  C   LIG     1      16.027  37.996  23.116  1.00  0.00     0.398 C 
HETATM    4  O   LIG     1      15.959  39.170  22.663  1.00  0.00    -0.276 OA
ENDBRANCH   2   3
ENDBRANCH   1   2
BRANCH   1   5
HETATM    5  C   LIG     1      17.474  36.237  25.890  1.00  0.00     0.002 C 
HETATM    6  C   LIG     1      18.672  36.184  26.846  1.00  0.00     0.011 C 
HETATM    7  C   LIG     1      17.457  35.010  24.970  1.00  0.00     0.011 C 
ENDBRANCH   1   5
TORSDOF 3
ENDMDL
MODEL 2
REMARK VINA RESULT:      -4.3      2.009      3.719
REMARK  3 active torsions:
REMARK  status: ('A' for Active; 'I' for Inactive)
REMARK    1  A    between atoms: C_2  and  O_3 
REMARK    2  A    between atoms: O_3  and  C_4 
REMARK    3  A    between atoms: C_4  and  C_5 
ROOT
HETATM    1  C   LIG     1      16.016  38.077  22.903  1.00  0.00     0.181 C 
ENDROOT
BRANCH   1   2
HETATM    2  O   LIG     1      16.086  37.947  24.321  1.00  0.00    -0.328 OA
BRANCH   2   3
HETATM    3  C   LIG     1      17.266  38.152  25.039  1.00  0.00     0.398 C 
HETATM    4  O   LIG     1      17.588  37.395  25.993  1.00  0.00    -0.276 OA
ENDBRANCH   2   3
ENDBRANCH   1   2
BRANCH   1   5
HETATM    5  C   LIG     1      17.364  37.719  22.258  1.00  0.00     0.002 C 
HETATM    6  C   LIG     1      17.929  38.900  21.461  1.00  0.00     0.011 C 
HETATM    7  C   LIG     1      17.241  36.473  21.371  1.00  0.00     0.011 C 
ENDBRANCH   1   5
TORSDOF 3
ENDMDL
MODEL 3
REMARK VINA RESULT:      -4.1      2.957      4.581
REMARK  3 active torsions:
REMARK  status: ('A' for Active; 'I' for Inactive)
REMARK    1  A    between atoms: C_2  and  O_3 
REMARK    2  A    between atoms: O_3  and  C_4 
REMARK    3  A    between atoms: C_4  and  C_5 
ROOT
HETATM    1  C   LIG     1      17.529  37.554  21.682  1.00  0.00     0.181 C 
ENDROOT
BRANCH   1   2
HETATM    2  O   LIG     1      17.832  38.357  22.821  1.00  0.00    -0.328 OA
BRANCH   2   3
HETATM    3  C   LIG     1      17.283  38.112  24.082  1.00  0.00     0.398 C 
HETATM    4  O   LIG     1      16.036  38.030  24.244  1.00  0.00    -0.276 OA
ENDBRANCH   2   3
ENDBRANCH   1   2
BRANCH   1   5
HETATM    5  C   LIG     1      18.278  38.066  20.441  1.00  0.00     0.002 C 
HETATM    6  C   LIG     1      18.976  36.918  19.703  1.00  0.00     0.011 C 
HETATM    7  C   LIG     1      19.282  39.164  20.814  1.00  0.00     0.011 C 
ENDBRANCH   1   5
TORSDOF 3
ENDMDL
MODEL 4
REMARK VINA RESULT:      -4.0      1.926      3.910
REMARK  3 active torsions:
REMARK  status: ('A' for Active; 'I' for Inactive)
REMARK    1  A    between atoms: C_2  and  O_3 
REMARK    2  A    between atoms: O_3  and  C_4 
REMARK    3  A    between atoms: C_4  and  C_5 
ROOT
HETATM    1  C   LIG     1      16.892  36.952  23.370  1.00  0.00     0.181 C 
ENDROOT
BRANCH   1   2
HETATM    2  O   LIG     1      16.613  38.006  24.288  1.00  0.00    -0.328 OA
BRANCH   2   3
HETATM    3  C   LIG     1      17.304  38.158  25.493  1.00  0.00     0.398 C 
HETATM    4  O   LIG     1      17.737  37.158  26.125  1.00  0.00    -0.276 OA
ENDBRANCH   2   3
ENDBRANCH   1   2
BRANCH   1   5
HETATM    5  C   LIG     1      17.037  37.500  21.941  1.00  0.00     0.002 C 
HETATM    6  C   LIG     1      17.498  36.406  20.971  1.00  0.00     0.011 C 
HETATM    7  C   LIG     1      17.992  38.700  21.902  1.00  0.00     0.011 C 
ENDBRANCH   1   5
TORSDOF 3
ENDMDL
MODEL 5
REMARK VINA RESULT:      -4.0      2.472      3.741
REMARK  3 active torsions:
REMARK  status: ('A' for Active; 'I' for Inactive)
REMARK    1  A    between atoms: C_2  and  O_3 
REMARK    2  A    between atoms: O_3  and  C_4 
REMARK    3  A    between atoms: C_4  and  C_5 
ROOT
HETATM    1  C   LIG     1      16.933  35.265  23.237  1.00  0.00     0.181 C 
ENDROOT
BRANCH   1   2
HETATM    2  O   LIG     1      16.964  36.668  23.486  1.00  0.00    -0.328 OA
BRANCH   2   3
HETATM    3  C   LIG     1      17.222  37.202  24.751  1.00  0.00     0.398 C 
HETATM    4  O   LIG     1      16.682  38.278  25.125  1.00  0.00    -0.276 OA
ENDBRANCH   2   3
ENDBRANCH   1   2
BRANCH   1   5
HETATM    5  C   LIG     1      16.776  34.983  21.734  1.00  0.00     0.002 C 
HETATM    6  C   LIG     1      17.342  36.133  20.893  1.00  0.00     0.011 C 
HETATM    7  C   LIG     1      15.311  34.711  21.371  1.00  0.00     0.011 C 
ENDBRANCH   1   5
TORSDOF 3
ENDMDL
MODEL 6
REMARK VINA RESULT:      -3.8      9.856     10.900
REMARK  3 active torsions:
REMARK  status: ('A' for Active; 'I' for Inactive)
REMARK    1  A    between atoms: C_2  and  O_3 
REMARK    2  A    between atoms: O_3  and  C_4 
REMARK    3  A    between atoms: C_4  and  C_5 
ROOT
HETATM    1  C   LIG     1      15.170  31.881  15.397  1.00  0.00     0.181 C 
ENDROOT
BRANCH   1   2
HETATM    2  O   LIG     1      15.156  32.484  16.689  1.00  0.00    -0.328 OA
BRANCH   2   3
HETATM    3  C   LIG     1      15.074  33.866  16.874  1.00  0.00     0.398 C 
HETATM    4  O   LIG     1      15.925  34.643  16.364  1.00  0.00    -0.276 OA
ENDBRANCH   2   3
ENDBRANCH   1   2
BRANCH   1   5
HETATM    5  C   LIG     1      14.456  30.520  15.426  1.00  0.00     0.002 C 
HETATM    6  C   LIG     1      14.555  29.814  14.069  1.00  0.00     0.011 C 
HETATM    7  C   LIG     1      12.992  30.671  15.856  1.00  0.00     0.011 C 
ENDBRANCH   1   5
TORSDOF 3
ENDMDL
MODEL 7
REMARK VINA RESULT:      -3.8      3.171      4.059
REMARK  3 active torsions:
REMARK  status: ('A' for Active; 'I' for Inactive)
REMARK    1  A    between atoms: C_2  and  O_3 
REMARK    2  A    between atoms: O_3  and  C_4 
REMARK    3  A    between atoms: C_4  and  C_5 
ROOT
HETATM    1  C   LIG     1      18.038  38.707  22.173  1.00  0.00     0.181 C 
ENDROOT
BRANCH   1   2
HETATM    2  O   LIG     1      18.481  38.397  20.854  1.00  0.00    -0.328 OA
BRANCH   2   3
HETATM    3  C   LIG     1      18.994  39.364  19.985  1.00  0.00     0.398 C 
HETATM    4  O   LIG     1      20.221  39.398  19.702  1.00  0.00    -0.276 OA
ENDBRANCH   2   3
ENDBRANCH   1   2
BRANCH   1   5
HETATM    5  C   LIG     1      16.857  37.808  22.574  1.00  0.00     0.002 C 
HETATM    6  C   LIG     1      16.756  37.673  24.098  1.00  0.00     0.011 C 
HETATM    7  C   LIG     1      16.958  36.430  21.910  1.00  0.00     0.011 C 
ENDBRANCH   1   5
TORSDOF 3
ENDMDL
MODEL 8
REMARK VINA RESULT:      -3.8      5.113      5.815
REMARK  3 active torsions:
REMARK  status: ('A' for Active; 'I' for Inactive)
REMARK    1  A    between atoms: C_2  and  O_3 
REMARK    2  A    between atoms: O_3  and  C_4 
REMARK    3  A    between atoms: C_4  and  C_5 
ROOT
HETATM    1  C   LIG     1      15.722  34.455  21.037  1.00  0.00     0.181 C 
ENDROOT
BRANCH   1   2
HETATM    2  O   LIG     1      15.962  33.456  20.048  1.00  0.00    -0.328 OA
BRANCH   2   3
HETATM    3  C   LIG     1      15.041  32.445  19.762  1.00  0.00     0.398 C 
HETATM    4  O   LIG     1      15.278  31.245  20.064  1.00  0.00    -0.276 OA
ENDBRANCH   2   3
ENDBRANCH   1   2
BRANCH   1   5
HETATM    5  C   LIG     1      17.049  34.997  21.594  1.00  0.00     0.002 C 
HETATM    6  C   LIG     1      16.957  35.241  23.105  1.00  0.00     0.011 C 
HETATM    7  C   LIG     1      17.477  36.274  20.861  1.00  0.00     0.011 C 
ENDBRANCH   1   5
TORSDOF 3
ENDMDL
MODEL 9
REMARK VINA RESULT:      -3.8      9.374     10.370
REMARK  3 active torsions:
REMARK  status: ('A' for Active; 'I' for Inactive)
REMARK    1  A    between atoms: C_2  and  O_3 
REMARK    2  A    between atoms: O_3  and  C_4 
REMARK    3  A    between atoms: C_4  and  C_5 
ROOT
HETATM    1  C   LIG     1      13.552  31.807  16.945  1.00  0.00     0.181 C 
ENDROOT
BRANCH   1   2
HETATM    2  O   LIG     1      13.983  31.516  18.273  1.00  0.00    -0.328 OA
BRANCH   2   3
HETATM    3  C   LIG     1      15.028  32.204  18.893  1.00  0.00     0.398 C 
HETATM    4  O   LIG     1      15.550  33.217  18.354  1.00  0.00    -0.276 OA
ENDBRANCH   2   3
ENDBRANCH   1   2
BRANCH   1   5
HETATM    5  C   LIG     1      14.229  30.866  15.935  1.00  0.00     0.002 C 
HETATM    6  C   LIG     1      15.259  31.616  15.083  1.00  0.00     0.011 C 
HETATM    7  C   LIG     1      13.192  30.167  15.048  1.00  0.00     0.011 C 
ENDBRANCH   1   5
TORSDOF 3
ENDMDL
MODEL 10
REMARK VINA RESULT:      -3.7     11.392     12.387
REMARK  3 active torsions:
REMARK  status: ('A' for Active; 'I' for Inactive)
REMARK    1  A    between atoms: C_2  and  O_3 
REMARK    2  A    between atoms: O_3  and  C_4 
REMARK    3  A    between atoms: C_4  and  C_5 
ROOT
HETATM    1  C   LIG     1      15.498  31.145  13.351  1.00  0.00     0.181 C 
ENDROOT
BRANCH   1   2
HETATM    2  O   LIG     1      16.720  31.827  13.624  1.00  0.00    -0.328 OA
BRANCH   2   3
HETATM    3  C   LIG     1      16.830  32.805  14.615  1.00  0.00     0.398 C 
HETATM    4  O   LIG     1      17.866  32.895  15.328  1.00  0.00    -0.276 OA
ENDBRANCH   2   3
ENDBRANCH   1   2
BRANCH   1   5
HETATM    5  C   LIG     1      15.207  30.096  14.436  1.00  0.00     0.002 C 
HETATM    6  C   LIG     1      15.194  28.680  13.849  1.00  0.00     0.011 C 
HETATM    7  C   LIG     1      13.888  30.398  15.160  1.00  0.00     0.011 C 
ENDBRANCH   1   5
TORSDOF 3
ENDMDL
MODEL 11
REMARK VINA RESULT:      -3.6      2.623      3.687
REMARK  3 active torsions:
REMARK  status: ('A' for Active; 'I' for Inactive)
REMARK    1  A    between atoms: C_2  and  O_3 
REMARK    2  A    between atoms: O_3  and  C_4 
REMARK    3  A    between atoms: C_4  and  C_5 
ROOT
HETATM    1  C   LIG     1      16.874  36.445  22.956  1.00  0.00     0.181 C 
ENDROOT
BRANCH   1   2
HETATM    2  O   LIG     1      16.046  36.187  21.824  1.00  0.00    -0.328 OA
BRANCH   2   3
HETATM    3  C   LIG     1      16.527  35.571  20.665  1.00  0.00     0.398 C 
HETATM    4  O   LIG     1      17.538  36.018  20.062  1.00  0.00    -0.276 OA
ENDBRANCH   2   3
ENDBRANCH   1   2
BRANCH   1   5
HETATM    5  C   LIG     1      16.743  37.910  23.402  1.00  0.00     0.002 C 
HETATM    6  C   LIG     1      17.362  38.861  22.371  1.00  0.00     0.011 C 
HETATM    7  C   LIG     1      17.367  38.126  24.786  1.00  0.00     0.011 C 
ENDBRANCH   1   5
TORSDOF 3
ENDMDL
MODEL 12
REMARK VINA RESULT:      -3.6      1.509      2.309
REMARK  3 active torsions:
REMARK  status: ('A' for Active; 'I' for Inactive)
REMARK    1  A    between atoms: C_2  and  O_3 
REMARK    2  A    between atoms: O_3  and  C_4 
REMARK    3  A    between atoms: C_4  and  C_5 
ROOT
HETATM    1  C   LIG     1      16.479  37.137  23.341  1.00  0.00     0.181 C 
ENDROOT
BRANCH   1   2
HETATM    2  O   LIG     1      16.700  38.391  22.700  1.00  0.00    -0.328 OA
BRANCH   2   3
HETATM    3  C   LIG     1      17.736  38.597  21.785  1.00  0.00     0.398 C 
HETATM    4  O   LIG     1      18.510  39.585  21.891  1.00  0.00    -0.276 OA
ENDBRANCH   2   3
ENDBRANCH   1   2
BRANCH   1   5
HETATM    5  C   LIG     1      17.497  36.918  24.472  1.00  0.00     0.002 C 
HETATM    6  C   LIG     1      17.377  35.507  25.060  1.00  0.00     0.011 C 
HETATM    7  C   LIG     1      17.346  37.980  25.567  1.00  0.00     0.011 C 
ENDBRANCH   1   5
TORSDOF 3
ENDMDL
MODEL 13
REMARK VINA RESULT:      -3.6      3.909      4.882
REMARK  3 active torsions:
REMARK  status: ('A' for Active; 'I' for Inactive)
REMARK    1  A    between atoms: C_2  and  O_3 
REMARK    2  A    between atoms: O_3  and  C_4 
REMARK    3  A    between atoms: C_4  and  C_5 
ROOT
HETATM    1  C   LIG     1      16.994  35.572  22.117  1.00  0.00     0.181 C 
ENDROOT
BRANCH   1   2
HETATM    2  O   LIG     1      16.704  34.458  21.275  1.00  0.00    -0.328 OA
BRANCH   2   3
HETATM    3  C   LIG     1      15.413  34.167  20.830  1.00  0.00     0.398 C 
HETATM    4  O   LIG     1      14.454  34.060  21.641  1.00  0.00    -0.276 OA
ENDBRANCH   2   3
ENDBRANCH   1   2
BRANCH   1   5
HETATM    5  C   LIG     1      17.192  36.847  21.282  1.00  0.00     0.002 C 
HETATM    6  C   LIG     1      18.299  36.660  20.238  1.00  0.00     0.011 C 
HETATM    7  C   LIG     1      17.486  38.056  22.178  1.00  0.00     0.011 C 
ENDBRANCH   1   5
TORSDOF 3
ENDMDL
MODEL 14
REMARK VINA RESULT:      -3.6     10.719     11.654
REMARK  3 active torsions:
REMARK  status: ('A' for Active; 'I' for Inactive)
REMARK    1  A    between atoms: C_2  and  O_3 
REMARK    2  A    between atoms: O_3  and  C_4 
REMARK    3  A    between atoms: C_4  and  C_5 
ROOT
HETATM    1  C   LIG     1      13.511  30.546  15.347  1.00  0.00     0.181 C 
ENDROOT
BRANCH   1   2
HETATM    2  O   LIG     1      13.428  30.565  16.771  1.00  0.00    -0.328 OA
BRANCH   2   3
HETATM    3  C   LIG     1      13.950  31.607  17.541  1.00  0.00     0.398 C 
HETATM    4  O   LIG     1      14.313  31.416  18.733  1.00  0.00    -0.276 OA
ENDBRANCH   2   3
ENDBRANCH   1   2
BRANCH   1   5
HETATM    5  C   LIG     1      14.950  30.256  14.890  1.00  0.00     0.002 C 
HETATM    6  C   LIG     1      15.557  31.466  14.170  1.00  0.00     0.011 C 
HETATM    7  C   LIG     1      15.008  29.007  14.002  1.00  0.00     0.011 C 
ENDBRANCH   1   5
TORSDOF 3
ENDMDL
MODEL 15
REMARK VINA RESULT:      -3.6      2.548      3.618
REMARK  3 active torsions:
REMARK  status: ('A' for Active; 'I' for Inactive)
REMARK    1  A    between atoms: C_2  and  O_3 
REMARK    2  A    between atoms: O_3  and  C_4 
REMARK    3  A    between atoms: C_4  and  C_5 
ROOT
HETATM    1  C   LIG     1      15.750  37.562  22.666  1.00  0.00     0.181 C 
ENDROOT
BRANCH   1   2
HETATM    2  O   LIG     1      15.647  36.380  21.875  1.00  0.00    -0.328 OA
BRANCH   2   3
HETATM    3  C   LIG     1      16.755  35.778  21.274  1.00  0.00     0.398 C 
HETATM    4  O   LIG     1      16.760  35.504  20.044  1.00  0.00    -0.276 OA
ENDBRANCH   2   3
ENDBRANCH   1   2
BRANCH   1   5
HETATM    5  C   LIG     1      17.212  37.824  23.064  1.00  0.00     0.002 C 
HETATM    6  C   LIG     1      17.352  37.991  24.581  1.00  0.00     0.011 C 
HETATM    7  C   LIG     1      17.777  39.044  22.326  1.00  0.00     0.011 C 
ENDBRANCH   1   5
TORSDOF 3
ENDMDL
MODEL 16
REMARK VINA RESULT:      -3.5      2.742      3.806
REMARK  3 active torsions:
REMARK  status: ('A' for Active; 'I' for Inactive)
REMARK    1  A    between atoms: C_2  and  O_3 
REMARK    2  A    between atoms: O_3  and  C_4 
REMARK    3  A    between atoms: C_4  and  C_5 
ROOT
HETATM    1  C   LIG     1      16.994  36.544  22.677  1.00  0.00     0.181 C 
ENDROOT
BRANCH   1   2
HETATM    2  O   LIG     1      17.574  37.840  22.803  1.00  0.00    -0.328 OA
BRANCH   2   3
HETATM    3  C   LIG     1      16.840  39.014  22.623  1.00  0.00     0.398 C 
HETATM    4  O   LIG     1      15.598  39.043  22.833  1.00  0.00    -0.276 OA
ENDBRANCH   2   3
ENDBRANCH   1   2
BRANCH   1   5
HETATM    5  C   LIG     1      16.765  36.193  21.198  1.00  0.00     0.002 C 
HETATM    6  C   LIG     1      16.257  34.755  21.041  1.00  0.00     0.011 C 
HETATM    7  C   LIG     1      18.039  36.413  20.372  1.00  0.00     0.011 C 
ENDBRANCH   1   5
TORSDOF 3
ENDMDL
MODEL 17
REMARK VINA RESULT:      -3.4     12.198     13.123
REMARK  3 active torsions:
REMARK  status: ('A' for Active; 'I' for Inactive)
REMARK    1  A    between atoms: C_2  and  O_3 
REMARK    2  A    between atoms: O_3  and  C_4 
REMARK    3  A    between atoms: C_4  and  C_5 
ROOT
HETATM    1  C   LIG     1      14.214  29.957  14.345  1.00  0.00     0.181 C 
ENDROOT
BRANCH   1   2
HETATM    2  O   LIG     1      15.384  29.182  14.092  1.00  0.00    -0.328 OA
BRANCH   2   3
HETATM    3  C   LIG     1      15.328  27.855  13.659  1.00  0.00     0.398 C 
HETATM    4  O   LIG     1      14.226  27.257  13.534  1.00  0.00    -0.276 OA
ENDBRANCH   2   3
ENDBRANCH   1   2
BRANCH   1   5
HETATM    5  C   LIG     1      14.312  30.660  15.709  1.00  0.00     0.002 C 
HETATM    6  C   LIG     1      12.921  30.971  16.273  1.00  0.00     0.011 C 
HETATM    7  C   LIG     1      15.160  31.935  15.616  1.00  0.00     0.011 C 
ENDBRANCH   1   5
TORSDOF 3
ENDMDL
MODEL 18
REMARK VINA RESULT:      -3.4     12.851     13.701
REMARK  3 active torsions:
REMARK  status: ('A' for Active; 'I' for Inactive)
REMARK    1  A    between atoms: C_2  and  O_3 
REMARK    2  A    between atoms: O_3  and  C_4 
REMARK    3  A    between atoms: C_4  and  C_5 
ROOT
HETATM    1  C   LIG     1      14.493  29.236  14.235  1.00  0.00     0.181 C 
ENDROOT
BRANCH   1   2
HETATM    2  O   LIG     1      13.197  28.647  14.152  1.00  0.00    -0.328 OA
BRANCH   2   3
HETATM    3  C   LIG     1      12.985  27.364  13.640  1.00  0.00     0.398 C 
HETATM    4  O   LIG     1      11.832  26.979  13.308  1.00  0.00    -0.276 OA
ENDBRANCH   2   3
ENDBRANCH   1   2
BRANCH   1   5
HETATM    5  C   LIG     1      14.397  30.696  14.705  1.00  0.00     0.002 C 
HETATM    6  C   LIG     1      15.775  31.367  14.717  1.00  0.00     0.011 C 
HETATM    7  C   LIG     1      13.732  30.791  16.084  1.00  0.00     0.011 C 
ENDBRANCH   1   5
TORSDOF 3
ENDMDL
MODEL 19
REMARK VINA RESULT:      -3.4     10.702     11.744
REMARK  3 active torsions:
REMARK  status: ('A' for Active; 'I' for Inactive)
REMARK    1  A    between atoms: C_2  and  O_3 
REMARK    2  A    between atoms: O_3  and  C_4 
REMARK    3  A    between atoms: C_4  and  C_5 
ROOT
HETATM    1  C   LIG     1      15.189  30.993  14.108  1.00  0.00     0.181 C 
ENDROOT
BRANCH   1   2
HETATM    2  O   LIG     1      16.466  31.602  14.280  1.00  0.00    -0.328 OA
BRANCH   2   3
HETATM    3  C   LIG     1      16.826  32.790  13.638  1.00  0.00     0.398 C 
HETATM    4  O   LIG     1      16.972  33.861  14.287  1.00  0.00    -0.276 OA
ENDBRANCH   2   3
ENDBRANCH   1   2
BRANCH   1   5
HETATM    5  C   LIG     1      14.519  30.742  15.469  1.00  0.00     0.002 C 
HETATM    6  C   LIG     1      13.057  30.314  15.297  1.00  0.00     0.011 C 
HETATM    7  C   LIG     1      14.623  31.976  16.374  1.00  0.00     0.011 C 
ENDBRANCH   1   5
TORSDOF 3
ENDMDL
MODEL 20
REMARK VINA RESULT:      -3.3      8.532      9.683
REMARK  3 active torsions:
REMARK  status: ('A' for Active; 'I' for Inactive)
REMARK    1  A    between atoms: C_2  and  O_3 
REMARK    2  A    between atoms: O_3  and  C_4 
REMARK    3  A    between atoms: C_4  and  C_5 
ROOT
HETATM    1  C   LIG     1      14.764  32.909  16.947  1.00  0.00     0.181 C 
ENDROOT
BRANCH   1   2
HETATM    2  O   LIG     1      15.704  32.567  17.964  1.00  0.00    -0.328 OA
BRANCH   2   3
HETATM    3  C   LIG     1      15.321  32.276  19.275  1.00  0.00     0.398 C 
HETATM    4  O   LIG     1      15.396  33.147  20.183  1.00  0.00    -0.276 OA
ENDBRANCH   2   3
ENDBRANCH   1   2
BRANCH   1   5
HETATM    5  C   LIG     1      15.187  32.314  15.594  1.00  0.00     0.002 C 
HETATM    6  C   LIG     1      14.568  30.928  15.379  1.00  0.00     0.011 C 
HETATM    7  C   LIG     1      16.715  32.254  15.468  1.00  0.00     0.011 C 
ENDBRANCH   1   5
TORSDOF 3
ENDMDL
