REMARK  1 active torsions:
REMARK  status: ('A' for Active; 'I' for Inactive)
REMARK    1  A    between atoms: C_2  and  C_3 
ROOT
HETATM    1  C   LIG     1       0.331   0.583  -0.089  1.00  0.00     0.139 C 
HETATM    2  C   LIG     1       1.492  -0.316  -0.084  1.00  0.00     0.060 C 
HETATM    3  N   LIG     1       2.408  -1.024  -0.081  1.00  0.00    -0.197 NA
ENDROOT
BRANCH   1   4
HETATM    4  C   LIG     1      -0.956  -0.178   0.226  1.00  0.00     0.128 C 
HETATM    5 CL   LIG     1      -1.369  -1.317  -1.085  1.00  0.00    -0.130 Cl
ENDBRANCH   1   4
TORSDOF 1
