MODEL 1
REMARK VINA RESULT:      -4.1      0.000      0.000
REMARK  2 active torsions:
REMARK  status: ('A' for Active; 'I' for Inactive)
REMARK    1  A    between atoms: C_2  and  C_3 
REMARK    2  A    between atoms: C_3  and  C_4 
ROOT
HETATM    1  C   LIG     1      18.542  37.200  25.738  1.00  0.00     0.010 C 
ENDROOT
BRANCH   1   2
HETATM    2  C   LIG     1      18.286  36.050  26.728  1.00  0.00    -0.004 C 
HETATM    3  C   LIG     1      17.612  34.844  26.075  1.00  0.00     0.005 C 
ENDBRANCH   1   2
BRANCH   1   4
HETATM    4  C   LIG     1      17.274  37.959  25.329  1.00  0.00     0.079 C 
HETATM    5  I   LIG     1      16.906  37.842  23.222  1.00  0.00    -0.090 I 
ENDBRANCH   1   4
TORSDOF 2
ENDMDL
MODEL 2
REMARK VINA RESULT:      -3.9      1.461      2.047
REMARK  2 active torsions:
REMARK  status: ('A' for Active; 'I' for Inactive)
REMARK    1  A    between atoms: C_2  and  C_3 
REMARK    2  A    between atoms: C_3  and  C_4 
ROOT
HETATM    1  C   LIG     1      17.298  34.907  24.933  1.00  0.00     0.010 C 
ENDROOT
BRANCH   1   2
HETATM    2  C   LIG     1      18.124  34.954  26.230  1.00  0.00    -0.004 C 
HETATM    3  C   LIG     1      18.413  36.379  26.699  1.00  0.00     0.005 C 
ENDBRANCH   1   2
BRANCH   1   4
HETATM    4  C   LIG     1      17.200  36.257  24.213  1.00  0.00     0.079 C 
HETATM    5  I   LIG     1      16.702  36.033  22.141  1.00  0.00    -0.090 I 
ENDBRANCH   1   4
TORSDOF 2
ENDMDL
MODEL 3
REMARK VINA RESULT:      -3.5      4.990      5.651
REMARK  2 active torsions:
REMARK  status: ('A' for Active; 'I' for Inactive)
REMARK    1  A    between atoms: C_2  and  C_3 
REMARK    2  A    between atoms: C_3  and  C_4 
ROOT
HETATM    1  C   LIG     1      18.780  39.310  20.291  1.00  0.00     0.010 C 
ENDROOT
BRANCH   1   2
HETATM    2  C   LIG     1      19.705  38.334  19.545  1.00  0.00    -0.004 C 
HETATM    3  C   LIG     1      19.165  36.905  19.519  1.00  0.00     0.005 C 
ENDBRANCH   1   2
BRANCH   1   4
HETATM    4  C   LIG     1      18.853  39.188  21.817  1.00  0.00     0.079 C 
HETATM    5  I   LIG     1      17.022  38.460  22.659  1.00  0.00    -0.090 I 
ENDBRANCH   1   4
TORSDOF 2
ENDMDL
MODEL 4
REMARK VINA RESULT:      -3.5      3.322      4.557
REMARK  2 active torsions:
REMARK  status: ('A' for Active; 'I' for Inactive)
REMARK    1  A    between atoms: C_2  and  C_3 
REMARK    2  A    between atoms: C_3  and  C_4 
ROOT
HETATM    1  C   LIG     1      16.859  38.888  22.421  1.00  0.00     0.010 C 
ENDROOT
BRANCH   1   2
HETATM    2  C   LIG     1      18.382  38.961  22.221  1.00  0.00    -0.004 C 
HETATM    3  C   LIG     1      18.776  39.322  20.789  1.00  0.00     0.005 C 
ENDBRANCH   1   2
BRANCH   1   4
HETATM    4  C   LIG     1      16.406  37.721  23.306  1.00  0.00     0.079 C 
HETATM    5  I   LIG     1      17.536  37.599  25.122  1.00  0.00    -0.090 I 
ENDBRANCH   1   4
TORSDOF 2
ENDMDL
MODEL 5
REMARK VINA RESULT:      -3.4      1.542      2.142
REMARK  2 active torsions:
REMARK  status: ('A' for Active; 'I' for Inactive)
REMARK    1  A    between atoms: C_2  and  C_3 
REMARK    2  A    between atoms: C_3  and  C_4 
ROOT
HETATM    1  C   LIG     1      17.782  38.164  24.132  1.00  0.00     0.010 C 
ENDROOT
BRANCH   1   2
HETATM    2  C   LIG     1      17.374  37.645  25.521  1.00  0.00    -0.004 C 
HETATM    3  C   LIG     1      18.444  36.765  26.164  1.00  0.00     0.005 C 
ENDBRANCH   1   2
BRANCH   1   4
HETATM    4  C   LIG     1      16.674  38.053  23.078  1.00  0.00     0.079 C 
HETATM    5  I   LIG     1      16.695  36.157  22.080  1.00  0.00    -0.090 I 
ENDBRANCH   1   4
TORSDOF 2
ENDMDL
MODEL 6
REMARK VINA RESULT:      -3.4      2.725      3.907
REMARK  2 active torsions:
REMARK  status: ('A' for Active; 'I' for Inactive)
REMARK    1  A    between atoms: C_2  and  C_3 
REMARK    2  A    between atoms: C_3  and  C_4 
ROOT
HETATM    1  C   LIG     1      16.950  37.047  23.618  1.00  0.00     0.010 C 
ENDROOT
BRANCH   1   2
HETATM    2  C   LIG     1      16.809  38.394  22.889  1.00  0.00    -0.004 C 
HETATM    3  C   LIG     1      18.103  38.840  22.210  1.00  0.00     0.005 C 
ENDBRANCH   1   2
BRANCH   1   4
HETATM    4  C   LIG     1      17.458  37.173  25.059  1.00  0.00     0.079 C 
HETATM    5  I   LIG     1      17.802  35.262  25.965  1.00  0.00    -0.090 I 
ENDBRANCH   1   4
TORSDOF 2
ENDMDL
MODEL 7
REMARK VINA RESULT:      -3.4      5.136      5.956
REMARK  2 active torsions:
REMARK  status: ('A' for Active; 'I' for Inactive)
REMARK    1  A    between atoms: C_2  and  C_3 
REMARK    2  A    between atoms: C_3  and  C_4 
ROOT
HETATM    1  C   LIG     1      18.678  36.858  19.826  1.00  0.00     0.010 C 
ENDROOT
BRANCH   1   2
HETATM    2  C   LIG     1      19.512  38.114  19.522  1.00  0.00    -0.004 C 
HETATM    3  C   LIG     1      19.111  39.315  20.378  1.00  0.00     0.005 C 
ENDBRANCH   1   2
BRANCH   1   4
HETATM    4  C   LIG     1      17.759  37.005  21.044  1.00  0.00     0.079 C 
HETATM    5  I   LIG     1      16.344  35.402  21.186  1.00  0.00    -0.090 I 
ENDBRANCH   1   4
TORSDOF 2
ENDMDL
MODEL 8
REMARK VINA RESULT:      -3.4      3.493      4.684
REMARK  2 active torsions:
REMARK  status: ('A' for Active; 'I' for Inactive)
REMARK    1  A    between atoms: C_2  and  C_3 
REMARK    2  A    between atoms: C_3  and  C_4 
ROOT
HETATM    1  C   LIG     1      17.010  38.697  22.379  1.00  0.00     0.010 C 
ENDROOT
BRANCH   1   2
HETATM    2  C   LIG     1      18.484  39.050  22.119  1.00  0.00    -0.004 C 
HETATM    3  C   LIG     1      18.780  39.320  20.644  1.00  0.00     0.005 C 
ENDBRANCH   1   2
BRANCH   1   4
HETATM    4  C   LIG     1      16.810  37.342  23.067  1.00  0.00     0.079 C 
HETATM    5  I   LIG     1      16.715  35.727  21.662  1.00  0.00    -0.090 I 
ENDBRANCH   1   4
TORSDOF 2
ENDMDL
MODEL 9
REMARK VINA RESULT:      -3.4      4.339      4.598
REMARK  2 active torsions:
REMARK  status: ('A' for Active; 'I' for Inactive)
REMARK    1  A    between atoms: C_2  and  C_3 
REMARK    2  A    between atoms: C_3  and  C_4 
ROOT
HETATM    1  C   LIG     1      17.419  37.949  21.894  1.00  0.00     0.010 C 
ENDROOT
BRANCH   1   2
HETATM    2  C   LIG     1      17.569  36.678  21.041  1.00  0.00    -0.004 C 
HETATM    3  C   LIG     1      17.045  35.426  21.743  1.00  0.00     0.005 C 
ENDBRANCH   1   2
BRANCH   1   4
HETATM    4  C   LIG     1      18.416  39.057  21.536  1.00  0.00     0.079 C 
HETATM    5  I   LIG     1      19.429  38.666  19.688  1.00  0.00    -0.090 I 
ENDBRANCH   1   4
TORSDOF 2
ENDMDL
MODEL 10
REMARK VINA RESULT:      -3.3      2.754      3.587
REMARK  2 active torsions:
REMARK  status: ('A' for Active; 'I' for Inactive)
REMARK    1  A    between atoms: C_2  and  C_3 
REMARK    2  A    between atoms: C_3  and  C_4 
ROOT
HETATM    1  C   LIG     1      17.051  38.059  22.400  1.00  0.00     0.010 C 
ENDROOT
BRANCH   1   2
HETATM    2  C   LIG     1      17.000  37.265  23.716  1.00  0.00    -0.004 C 
HETATM    3  C   LIG     1      17.340  38.117  24.938  1.00  0.00     0.005 C 
ENDBRANCH   1   2
BRANCH   1   4
HETATM    4  C   LIG     1      18.268  38.984  22.281  1.00  0.00     0.079 C 
HETATM    5  I   LIG     1      19.079  39.003  20.298  1.00  0.00    -0.090 I 
ENDBRANCH   1   4
TORSDOF 2
ENDMDL
MODEL 11
REMARK VINA RESULT:      -3.2      4.279      5.024
REMARK  2 active torsions:
REMARK  status: ('A' for Active; 'I' for Inactive)
REMARK    1  A    between atoms: C_2  and  C_3 
REMARK    2  A    between atoms: C_3  and  C_4 
ROOT
HETATM    1  C   LIG     1      17.557  36.730  21.031  1.00  0.00     0.010 C 
ENDROOT
BRANCH   1   2
HETATM    2  C   LIG     1      17.445  38.016  21.867  1.00  0.00    -0.004 C 
HETATM    3  C   LIG     1      16.234  38.015  22.799  1.00  0.00     0.005 C 
ENDBRANCH   1   2
BRANCH   1   4
HETATM    4  C   LIG     1      18.592  36.813  19.903  1.00  0.00     0.079 C 
HETATM    5  I   LIG     1      19.450  38.769  19.736  1.00  0.00    -0.090 I 
ENDBRANCH   1   4
TORSDOF 2
ENDMDL
MODEL 12
REMARK VINA RESULT:      -3.2      4.459      5.077
REMARK  2 active torsions:
REMARK  status: ('A' for Active; 'I' for Inactive)
REMARK    1  A    between atoms: C_2  and  C_3 
REMARK    2  A    between atoms: C_3  and  C_4 
ROOT
HETATM    1  C   LIG     1      17.236  35.967  20.886  1.00  0.00     0.010 C 
ENDROOT
BRANCH   1   2
HETATM    2  C   LIG     1      18.143  37.181  20.622  1.00  0.00    -0.004 C 
HETATM    3  C   LIG     1      19.168  36.929  19.518  1.00  0.00     0.005 C 
ENDBRANCH   1   2
BRANCH   1   4
HETATM    4  C   LIG     1      16.836  35.801  22.356  1.00  0.00     0.079 C 
HETATM    5  I   LIG     1      16.839  37.666  23.410  1.00  0.00    -0.090 I 
ENDBRANCH   1   4
TORSDOF 2
ENDMDL
MODEL 13
REMARK VINA RESULT:      -3.2      4.595      4.888
REMARK  2 active torsions:
REMARK  status: ('A' for Active; 'I' for Inactive)
REMARK    1  A    between atoms: C_2  and  C_3 
REMARK    2  A    between atoms: C_3  and  C_4 
ROOT
HETATM    1  C   LIG     1      18.194  36.662  20.288  1.00  0.00     0.010 C 
ENDROOT
BRANCH   1   2
HETATM    2  C   LIG     1      17.241  35.883  21.210  1.00  0.00    -0.004 C 
HETATM    3  C   LIG     1      16.084  35.231  20.454  1.00  0.00     0.005 C 
ENDBRANCH   1   2
BRANCH   1   4
HETATM    4  C   LIG     1      18.467  38.098  20.751  1.00  0.00     0.079 C 
HETATM    5  I   LIG     1      17.324  38.618  22.487  1.00  0.00    -0.090 I 
ENDBRANCH   1   4
TORSDOF 2
ENDMDL
MODEL 14
REMARK VINA RESULT:      -3.2      3.628      3.952
REMARK  2 active torsions:
REMARK  status: ('A' for Active; 'I' for Inactive)
REMARK    1  A    between atoms: C_2  and  C_3 
REMARK    2  A    between atoms: C_3  and  C_4 
ROOT
HETATM    1  C   LIG     1      17.032  35.633  23.383  1.00  0.00     0.010 C 
ENDROOT
BRANCH   1   2
HETATM    2  C   LIG     1      16.618  36.088  21.973  1.00  0.00    -0.004 C 
HETATM    3  C   LIG     1      16.291  34.920  21.044  1.00  0.00     0.005 C 
ENDBRANCH   1   2
BRANCH   1   4
HETATM    4  C   LIG     1      17.079  36.768  24.412  1.00  0.00     0.079 C 
HETATM    5  I   LIG     1      18.086  36.188  26.212  1.00  0.00    -0.090 I 
ENDBRANCH   1   4
TORSDOF 2
ENDMDL
MODEL 15
REMARK VINA RESULT:      -3.1     11.122     11.615
REMARK  2 active torsions:
REMARK  status: ('A' for Active; 'I' for Inactive)
REMARK    1  A    between atoms: C_2  and  C_3 
REMARK    2  A    between atoms: C_3  and  C_4 
ROOT
HETATM    1  C   LIG     1      20.341  44.560  32.296  1.00  0.00     0.010 C 
ENDROOT
BRANCH   1   2
HETATM    2  C   LIG     1      21.687  44.737  31.574  1.00  0.00    -0.004 C 
HETATM    3  C   LIG     1      22.860  44.908  32.539  1.00  0.00     0.005 C 
ENDBRANCH   1   2
BRANCH   1   4
HETATM    4  C   LIG     1      19.772  45.861  32.873  1.00  0.00     0.079 C 
HETATM    5  I   LIG     1      17.739  45.641  33.514  1.00  0.00    -0.090 I 
ENDBRANCH   1   4
TORSDOF 2
ENDMDL
MODEL 16
REMARK VINA RESULT:      -3.1      3.440      4.224
REMARK  2 active torsions:
REMARK  status: ('A' for Active; 'I' for Inactive)
REMARK    1  A    between atoms: C_2  and  C_3 
REMARK    2  A    between atoms: C_3  and  C_4 
ROOT
HETATM    1  C   LIG     1      17.467  37.654  21.651  1.00  0.00     0.010 C 
ENDROOT
BRANCH   1   2
HETATM    2  C   LIG     1      16.321  37.664  22.678  1.00  0.00    -0.004 C 
HETATM    3  C   LIG     1      16.818  37.692  24.122  1.00  0.00     0.005 C 
ENDBRANCH   1   2
BRANCH   1   4
HETATM    4  C   LIG     1      17.587  36.341  20.869  1.00  0.00     0.079 C 
HETATM    5  I   LIG     1      15.851  35.105  21.095  1.00  0.00    -0.090 I 
ENDBRANCH   1   4
TORSDOF 2
ENDMDL
MODEL 17
REMARK VINA RESULT:      -3.0     10.414     11.061
REMARK  2 active torsions:
REMARK  status: ('A' for Active; 'I' for Inactive)
REMARK    1  A    between atoms: C_2  and  C_3 
REMARK    2  A    between atoms: C_3  and  C_4 
ROOT
HETATM    1  C   LIG     1      13.498  31.097  17.121  1.00  0.00     0.010 C 
ENDROOT
BRANCH   1   2
HETATM    2  C   LIG     1      13.496  30.656  15.647  1.00  0.00    -0.004 C 
HETATM    3  C   LIG     1      14.863  30.806  14.980  1.00  0.00     0.005 C 
ENDBRANCH   1   2
BRANCH   1   4
HETATM    4  C   LIG     1      14.540  32.174  17.444  1.00  0.00     0.079 C 
HETATM    5  I   LIG     1      15.165  32.107  19.492  1.00  0.00    -0.090 I 
ENDBRANCH   1   4
TORSDOF 2
ENDMDL
MODEL 18
REMARK VINA RESULT:      -3.0     10.950     11.581
REMARK  2 active torsions:
REMARK  status: ('A' for Active; 'I' for Inactive)
REMARK    1  A    between atoms: C_2  and  C_3 
REMARK    2  A    between atoms: C_3  and  C_4 
ROOT
HETATM    1  C   LIG     1      13.578  30.816  16.759  1.00  0.00     0.010 C 
ENDROOT
BRANCH   1   2
HETATM    2  C   LIG     1      13.948  32.300  16.927  1.00  0.00    -0.004 C 
HETATM    3  C   LIG     1      15.025  32.527  17.987  1.00  0.00     0.005 C 
ENDBRANCH   1   2
BRANCH   1   4
HETATM    4  C   LIG     1      13.276  30.413  15.311  1.00  0.00     0.079 C 
HETATM    5  I   LIG     1      15.062  30.136  14.160  1.00  0.00    -0.090 I 
ENDBRANCH   1   4
TORSDOF 2
ENDMDL
MODEL 19
REMARK VINA RESULT:      -3.0     11.864     12.437
REMARK  2 active torsions:
REMARK  status: ('A' for Active; 'I' for Inactive)
REMARK    1  A    between atoms: C_2  and  C_3 
REMARK    2  A    between atoms: C_3  and  C_4 
ROOT
HETATM    1  C   LIG     1      14.444  30.324  14.445  1.00  0.00     0.010 C 
ENDROOT
BRANCH   1   2
HETATM    2  C   LIG     1      14.195  30.867  15.863  1.00  0.00    -0.004 C 
HETATM    3  C   LIG     1      12.720  30.832  16.261  1.00  0.00     0.005 C 
ENDBRANCH   1   2
BRANCH   1   4
HETATM    4  C   LIG     1      15.540  31.074  13.680  1.00  0.00     0.079 C 
HETATM    5  I   LIG     1      16.568  32.488  14.918  1.00  0.00    -0.090 I 
ENDBRANCH   1   4
TORSDOF 2
ENDMDL
MODEL 20
REMARK VINA RESULT:      -2.9      9.148      9.655
REMARK  2 active torsions:
REMARK  status: ('A' for Active; 'I' for Inactive)
REMARK    1  A    between atoms: C_2  and  C_3 
REMARK    2  A    between atoms: C_3  and  C_4 
ROOT
HETATM    1  C   LIG     1      15.091  32.512  17.655  1.00  0.00     0.010 C 
ENDROOT
BRANCH   1   2
HETATM    2  C   LIG     1      15.307  32.585  19.176  1.00  0.00    -0.004 C 
HETATM    3  C   LIG     1      14.827  31.331  19.905  1.00  0.00     0.005 C 
ENDBRANCH   1   2
BRANCH   1   4
HETATM    4  C   LIG     1      13.654  32.164  17.249  1.00  0.00     0.079 C 
HETATM    5  I   LIG     1      13.585  30.633  15.752  1.00  0.00    -0.090 I 
ENDBRANCH   1   4
TORSDOF 2
ENDMDL
