REMARK  3 active torsions:
REMARK  status: ('A' for Active; 'I' for Inactive)
REMARK    1  A    between atoms: C_2  and  O_3 
REMARK    2  A    between atoms: O_3  and  C_4 
REMARK    3  A    between atoms: C_4  and  C_5 
ROOT
HETATM    1  C   LIG     1       0.605   0.113  -0.766  1.00  0.00     0.181 C 
ENDROOT
BRANCH   1   2
HETATM    2  O   LIG     1       1.300   0.501   0.417  1.00  0.00    -0.328 OA
BRANCH   2   3
HETATM    3  C   LIG     1       2.621   0.955   0.399  1.00  0.00     0.398 C 
HETATM    4  O   LIG     1       3.264   1.043  -0.681  1.00  0.00    -0.276 OA
ENDBRANCH   2   3
ENDBRANCH   1   2
BRANCH   1   5
HETATM    5  C   LIG     1      -0.826  -0.339  -0.432  1.00  0.00     0.002 C 
HETATM    6  C   LIG     1      -1.637   0.803   0.191  1.00  0.00     0.011 C 
HETATM    7  C   LIG     1      -0.819  -1.567   0.487  1.00  0.00     0.011 C 
ENDBRANCH   1   5
TORSDOF 3
