MODEL 1
REMARK VINA RESULT:      -4.0      0.000      0.000
REMARK  1 active torsions:
REMARK  status: ('A' for Active; 'I' for Inactive)
REMARK    1  A    between atoms: C_2  and  C_3 
ROOT
HETATM    1  C   LIG     1      18.443  36.675  26.326  1.00  0.00     0.139 C 
HETATM    2  C   LIG     1      17.518  37.553  25.599  1.00  0.00     0.060 C 
HETATM    3  N   LIG     1      16.789  38.247  25.028  1.00  0.00    -0.197 NA
ENDROOT
BRANCH   1   4
HETATM    4  C   LIG     1      17.981  35.219  26.266  1.00  0.00     0.128 C 
HETATM    5 CL   LIG     1      17.319  34.818  24.658  1.00  0.00    -0.130 Cl
ENDBRANCH   1   4
TORSDOF 1
ENDMDL
MODEL 2
REMARK VINA RESULT:      -3.9      0.985      1.015
REMARK  1 active torsions:
REMARK  status: ('A' for Active; 'I' for Inactive)
REMARK    1  A    between atoms: C_2  and  C_3 
ROOT
HETATM    1  C   LIG     1      18.500  37.278  25.707  1.00  0.00     0.139 C 
HETATM    2  C   LIG     1      17.268  37.646  24.997  1.00  0.00     0.060 C 
HETATM    3  N   LIG     1      16.298  37.937  24.437  1.00  0.00    -0.197 NA
ENDROOT
BRANCH   1   4
HETATM    4  C   LIG     1      18.226  36.216  26.771  1.00  0.00     0.128 C 
HETATM    5 CL   LIG     1      17.483  34.760  26.052  1.00  0.00    -0.130 Cl
ENDBRANCH   1   4
TORSDOF 1
ENDMDL
MODEL 3
REMARK VINA RESULT:      -3.5      2.282      2.628
REMARK  1 active torsions:
REMARK  status: ('A' for Active; 'I' for Inactive)
REMARK    1  A    between atoms: C_2  and  C_3 
ROOT
HETATM    1  C   LIG     1      17.566  34.943  26.092  1.00  0.00     0.139 C 
HETATM    2  C   LIG     1      17.293  35.011  24.651  1.00  0.00     0.060 C 
HETATM    3  N   LIG     1      17.077  35.063  23.514  1.00  0.00    -0.197 NA
ENDROOT
BRANCH   1   4
HETATM    4  C   LIG     1      18.263  36.212  26.580  1.00  0.00     0.128 C 
HETATM    5 CL   LIG     1      17.525  37.670  25.862  1.00  0.00    -0.130 Cl
ENDBRANCH   1   4
TORSDOF 1
ENDMDL
MODEL 4
REMARK VINA RESULT:      -3.4      4.064      4.621
REMARK  1 active torsions:
REMARK  status: ('A' for Active; 'I' for Inactive)
REMARK    1  A    between atoms: C_2  and  C_3 
ROOT
HETATM    1  C   LIG     1      17.404  38.161  21.928  1.00  0.00     0.139 C 
HETATM    2  C   LIG     1      16.734  38.064  23.231  1.00  0.00     0.060 C 
HETATM    3  N   LIG     1      16.205  37.987  24.258  1.00  0.00    -0.197 NA
ENDROOT
BRANCH   1   4
HETATM    4  C   LIG     1      18.511  39.213  21.955  1.00  0.00     0.128 C 
HETATM    5 CL   LIG     1      19.425  39.227  20.422  1.00  0.00    -0.130 Cl
ENDBRANCH   1   4
TORSDOF 1
ENDMDL
MODEL 5
REMARK VINA RESULT:      -3.3      5.689      5.994
REMARK  1 active torsions:
REMARK  status: ('A' for Active; 'I' for Inactive)
REMARK    1  A    between atoms: C_2  and  C_3 
ROOT
HETATM    1  C   LIG     1      18.980  37.098  19.679  1.00  0.00     0.139 C 
HETATM    2  C   LIG     1      19.755  38.332  19.496  1.00  0.00     0.060 C 
HETATM    3  N   LIG     1      20.366  39.305  19.351  1.00  0.00    -0.197 NA
ENDROOT
BRANCH   1   4
HETATM    4  C   LIG     1      17.975  37.243  20.821  1.00  0.00     0.128 C 
HETATM    5 CL   LIG     1      17.267  35.664  21.260  1.00  0.00    -0.130 Cl
ENDBRANCH   1   4
TORSDOF 1
ENDMDL
MODEL 6
REMARK VINA RESULT:      -3.3      2.813      3.300
REMARK  1 active torsions:
REMARK  status: ('A' for Active; 'I' for Inactive)
REMARK    1  A    between atoms: C_2  and  C_3 
ROOT
HETATM    1  C   LIG     1      17.309  37.770  22.135  1.00  0.00     0.139 C 
HETATM    2  C   LIG     1      16.837  37.909  23.518  1.00  0.00     0.060 C 
HETATM    3  N   LIG     1      16.466  38.018  24.609  1.00  0.00    -0.197 NA
ENDROOT
BRANCH   1   4
HETATM    4  C   LIG     1      16.862  36.440  21.531  1.00  0.00     0.128 C 
HETATM    5 CL   LIG     1      17.038  35.107  22.705  1.00  0.00    -0.130 Cl
ENDBRANCH   1   4
TORSDOF 1
ENDMDL
MODEL 7
REMARK VINA RESULT:      -3.2      4.946      5.369
REMARK  1 active torsions:
REMARK  status: ('A' for Active; 'I' for Inactive)
REMARK    1  A    between atoms: C_2  and  C_3 
ROOT
HETATM    1  C   LIG     1      18.365  39.238  21.727  1.00  0.00     0.139 C 
HETATM    2  C   LIG     1      19.157  39.318  20.493  1.00  0.00     0.060 C 
HETATM    3  N   LIG     1      19.782  39.382  19.521  1.00  0.00    -0.197 NA
ENDROOT
BRANCH   1   4
HETATM    4  C   LIG     1      17.556  37.943  21.780  1.00  0.00     0.128 C 
HETATM    5 CL   LIG     1      16.078  38.145  22.761  1.00  0.00    -0.130 Cl
ENDBRANCH   1   4
TORSDOF 1
ENDMDL
MODEL 8
REMARK VINA RESULT:      -3.2     10.213     10.361
REMARK  1 active torsions:
REMARK  status: ('A' for Active; 'I' for Inactive)
REMARK    1  A    between atoms: C_2  and  C_3 
ROOT
HETATM    1  C   LIG     1      14.538  32.221  17.436  1.00  0.00     0.139 C 
HETATM    2  C   LIG     1      15.103  33.476  16.925  1.00  0.00     0.060 C 
HETATM    3  N   LIG     1      15.549  34.465  16.523  1.00  0.00    -0.197 NA
ENDROOT
BRANCH   1   4
HETATM    4  C   LIG     1      13.136  31.980  16.877  1.00  0.00     0.128 C 
HETATM    5 CL   LIG     1      13.117  30.584  15.765  1.00  0.00    -0.130 Cl
ENDBRANCH   1   4
TORSDOF 1
ENDMDL
MODEL 9
REMARK VINA RESULT:      -3.0      5.031      5.285
REMARK  1 active torsions:
REMARK  status: ('A' for Active; 'I' for Inactive)
REMARK    1  A    between atoms: C_2  and  C_3 
ROOT
HETATM    1  C   LIG     1      17.322  38.323  22.186  1.00  0.00     0.139 C 
HETATM    2  C   LIG     1      17.414  37.096  21.385  1.00  0.00     0.060 C 
HETATM    3  N   LIG     1      17.486  36.128  20.754  1.00  0.00    -0.197 NA
ENDROOT
BRANCH   1   4
HETATM    4  C   LIG     1      18.573  39.184  22.021  1.00  0.00     0.128 C 
HETATM    5 CL   LIG     1      18.943  39.460  20.297  1.00  0.00    -0.130 Cl
ENDBRANCH   1   4
TORSDOF 1
ENDMDL
MODEL 10
REMARK VINA RESULT:      -3.0     12.506     12.756
REMARK  1 active torsions:
REMARK  status: ('A' for Active; 'I' for Inactive)
REMARK    1  A    between atoms: C_2  and  C_3 
ROOT
HETATM    1  C   LIG     1      13.292  30.017  14.958  1.00  0.00     0.139 C 
HETATM    2  C   LIG     1      13.073  30.855  16.144  1.00  0.00     0.060 C 
HETATM    3  N   LIG     1      12.898  31.516  17.078  1.00  0.00    -0.197 NA
ENDROOT
BRANCH   1   4
HETATM    4  C   LIG     1      14.747  30.087  14.496  1.00  0.00     0.128 C 
HETATM    5 CL   LIG     1      15.299  28.512  13.862  1.00  0.00    -0.130 Cl
ENDBRANCH   1   4
TORSDOF 1
ENDMDL
MODEL 11
REMARK VINA RESULT:      -2.9      5.210      5.499
REMARK  1 active torsions:
REMARK  status: ('A' for Active; 'I' for Inactive)
REMARK    1  A    between atoms: C_2  and  C_3 
ROOT
HETATM    1  C   LIG     1      15.276  35.603  21.201  1.00  0.00     0.139 C 
HETATM    2  C   LIG     1      15.572  34.297  20.597  1.00  0.00     0.060 C 
HETATM    3  N   LIG     1      15.804  33.268  20.121  1.00  0.00    -0.197 NA
ENDROOT
BRANCH   1   4
HETATM    4  C   LIG     1      16.510  36.182  21.891  1.00  0.00     0.128 C 
HETATM    5 CL   LIG     1      17.069  35.120  23.212  1.00  0.00    -0.130 Cl
ENDBRANCH   1   4
TORSDOF 1
ENDMDL
MODEL 12
REMARK VINA RESULT:      -2.9     12.662     12.868
REMARK  1 active torsions:
REMARK  status: ('A' for Active; 'I' for Inactive)
REMARK    1  A    between atoms: C_2  and  C_3 
ROOT
HETATM    1  C   LIG     1      15.306  30.017  14.028  1.00  0.00     0.139 C 
HETATM    2  C   LIG     1      15.717  31.422  13.908  1.00  0.00     0.060 C 
HETATM    3  N   LIG     1      16.042  32.529  13.813  1.00  0.00    -0.197 NA
ENDROOT
BRANCH   1   4
HETATM    4  C   LIG     1      13.874  29.905  14.548  1.00  0.00     0.128 C 
HETATM    5 CL   LIG     1      13.644  30.887  16.021  1.00  0.00    -0.130 Cl
ENDBRANCH   1   4
TORSDOF 1
ENDMDL
MODEL 13
REMARK VINA RESULT:      -2.9     13.541     13.828
REMARK  1 active torsions:
REMARK  status: ('A' for Active; 'I' for Inactive)
REMARK    1  A    between atoms: C_2  and  C_3 
ROOT
HETATM    1  C   LIG     1      14.807  29.947  14.166  1.00  0.00     0.139 C 
HETATM    2  C   LIG     1      15.196  28.568  13.843  1.00  0.00     0.060 C 
HETATM    3  N   LIG     1      15.505  27.482  13.587  1.00  0.00    -0.197 NA
ENDROOT
BRANCH   1   4
HETATM    4  C   LIG     1      13.435  29.988  14.839  1.00  0.00     0.128 C 
HETATM    5 CL   LIG     1      13.521  30.796  16.429  1.00  0.00    -0.130 Cl
ENDBRANCH   1   4
TORSDOF 1
ENDMDL
MODEL 14
REMARK VINA RESULT:      -2.9      3.328      3.742
REMARK  1 active torsions:
REMARK  status: ('A' for Active; 'I' for Inactive)
REMARK    1  A    between atoms: C_2  and  C_3 
ROOT
HETATM    1  C   LIG     1      16.700  37.757  22.693  1.00  0.00     0.139 C 
HETATM    2  C   LIG     1      16.815  36.293  22.689  1.00  0.00     0.060 C 
HETATM    3  N   LIG     1      16.904  35.139  22.686  1.00  0.00    -0.197 NA
ENDROOT
BRANCH   1   4
HETATM    4  C   LIG     1      17.662  38.382  23.702  1.00  0.00     0.128 C 
HETATM    5 CL   LIG     1      17.230  37.928  25.373  1.00  0.00    -0.130 Cl
ENDBRANCH   1   4
TORSDOF 1
ENDMDL
MODEL 15
REMARK VINA RESULT:      -2.9      4.880      5.194
REMARK  1 active torsions:
REMARK  status: ('A' for Active; 'I' for Inactive)
REMARK    1  A    between atoms: C_2  and  C_3 
ROOT
HETATM    1  C   LIG     1      16.972  35.940  21.965  1.00  0.00     0.139 C 
HETATM    2  C   LIG     1      16.441  35.455  20.685  1.00  0.00     0.060 C 
HETATM    3  N   LIG     1      16.024  35.072  19.675  1.00  0.00    -0.197 NA
ENDROOT
BRANCH   1   4
HETATM    4  C   LIG     1      16.317  37.261  22.368  1.00  0.00     0.128 C 
HETATM    5 CL   LIG     1      17.361  38.649  21.956  1.00  0.00    -0.130 Cl
ENDBRANCH   1   4
TORSDOF 1
ENDMDL
MODEL 16
REMARK VINA RESULT:      -2.9      3.655      3.904
REMARK  1 active torsions:
REMARK  status: ('A' for Active; 'I' for Inactive)
REMARK    1  A    between atoms: C_2  and  C_3 
ROOT
HETATM    1  C   LIG     1      17.152  38.019  22.863  1.00  0.00     0.139 C 
HETATM    2  C   LIG     1      17.945  38.814  21.917  1.00  0.00     0.060 C 
HETATM    3  N   LIG     1      18.571  39.442  21.172  1.00  0.00    -0.197 NA
ENDROOT
BRANCH   1   4
HETATM    4  C   LIG     1      16.437  36.871  22.153  1.00  0.00     0.128 C 
HETATM    5 CL   LIG     1      16.996  35.289  22.762  1.00  0.00    -0.130 Cl
ENDBRANCH   1   4
TORSDOF 1
ENDMDL
MODEL 17
REMARK VINA RESULT:      -2.9      5.341      5.531
REMARK  1 active torsions:
REMARK  status: ('A' for Active; 'I' for Inactive)
REMARK    1  A    between atoms: C_2  and  C_3 
ROOT
HETATM    1  C   LIG     1      17.414  36.187  21.161  1.00  0.00     0.139 C 
HETATM    2  C   LIG     1      18.326  36.696  20.129  1.00  0.00     0.060 C 
HETATM    3  N   LIG     1      19.045  37.099  19.316  1.00  0.00    -0.197 NA
ENDROOT
BRANCH   1   4
HETATM    4  C   LIG     1      16.272  35.385  20.540  1.00  0.00     0.128 C 
HETATM    5 CL   LIG     1      14.712  35.778  21.315  1.00  0.00    -0.130 Cl
ENDBRANCH   1   4
TORSDOF 1
ENDMDL
MODEL 18
REMARK VINA RESULT:      -2.8     11.026     11.150
REMARK  1 active torsions:
REMARK  status: ('A' for Active; 'I' for Inactive)
REMARK    1  A    between atoms: C_2  and  C_3 
ROOT
HETATM    1  C   LIG     1      16.629  32.185  15.239  1.00  0.00     0.139 C 
HETATM    2  C   LIG     1      16.074  33.382  15.884  1.00  0.00     0.060 C 
HETATM    3  N   LIG     1      15.638  34.326  16.393  1.00  0.00    -0.197 NA
ENDROOT
BRANCH   1   4
HETATM    4  C   LIG     1      15.563  31.457  14.421  1.00  0.00     0.128 C 
HETATM    5 CL   LIG     1      14.288  30.787  15.475  1.00  0.00    -0.130 Cl
ENDBRANCH   1   4
TORSDOF 1
ENDMDL
MODEL 19
REMARK VINA RESULT:      -2.8     12.254     12.516
REMARK  1 active torsions:
REMARK  status: ('A' for Active; 'I' for Inactive)
REMARK    1  A    between atoms: C_2  and  C_3 
ROOT
HETATM    1  C   LIG     1      13.482  30.314  15.196  1.00  0.00     0.139 C 
HETATM    2  C   LIG     1      14.683  30.243  14.354  1.00  0.00     0.060 C 
HETATM    3  N   LIG     1      15.629  30.186  13.690  1.00  0.00    -0.197 NA
ENDROOT
BRANCH   1   4
HETATM    4  C   LIG     1      13.787  30.982  16.536  1.00  0.00     0.128 C 
HETATM    5 CL   LIG     1      14.896  32.366  16.328  1.00  0.00    -0.130 Cl
ENDBRANCH   1   4
TORSDOF 1
ENDMDL
MODEL 20
REMARK VINA RESULT:      -2.8     11.085     11.263
REMARK  1 active torsions:
REMARK  status: ('A' for Active; 'I' for Inactive)
REMARK    1  A    between atoms: C_2  and  C_3 
ROOT
HETATM    1  C   LIG     1      15.054  32.337  16.715  1.00  0.00     0.139 C 
HETATM    2  C   LIG     1      13.675  31.850  16.850  1.00  0.00     0.060 C 
HETATM    3  N   LIG     1      12.588  31.467  16.958  1.00  0.00    -0.197 NA
ENDROOT
BRANCH   1   4
HETATM    4  C   LIG     1      15.585  32.099  15.302  1.00  0.00     0.128 C 
HETATM    5 CL   LIG     1      15.065  30.509  14.677  1.00  0.00    -0.130 Cl
ENDBRANCH   1   4
TORSDOF 1
ENDMDL
