REMARK  2 active torsions:
REMARK  status: ('A' for Active; 'I' for Inactive)
REMARK    1  A    between atoms: C_2  and  C_3 
REMARK    2  A    between atoms: C_3  and  C_4 
ROOT
HETATM    1  C   LIG     1      -0.542   0.212   0.513  1.00  0.00     0.010 C 
ENDROOT
BRANCH   1   2
HETATM    2  C   LIG     1       0.636  -0.675   0.075  1.00  0.00    -0.004 C 
HETATM    3  C   LIG     1       1.607   0.046  -0.859  1.00  0.00     0.005 C 
ENDBRANCH   1   2
BRANCH   1   4
HETATM    4  C   LIG     1      -1.545   0.507  -0.608  1.00  0.00     0.079 C 
HETATM    5  I   LIG     1      -2.641  -1.239  -1.192  1.00  0.00    -0.090 I 
ENDBRANCH   1   4
TORSDOF 2
