REMARK  5 active torsions:
REMARK  status: ('A' for Active; 'I' for Inactive)
REMARK    1  A    between atoms: C_2  and  C_3 
REMARK    2  A    between atoms: C_3  and  C_4 
REMARK    3  A    between atoms: C_4  and  C_5 
REMARK    4  A    between atoms: C_5  and  C_6 
REMARK    5  A    between atoms: C_6  and  O_7 
ROOT
HETATM    1  C   LIG     1       1.110  -0.583   0.603  1.00  0.00     0.031 C 
ENDROOT
BRANCH   1   2
HETATM    2  C   LIG     1       0.036   0.307  -0.042  1.00  0.00     0.002 C 
BRANCH   2   3
HETATM    3  C   LIG     1      -1.361  -0.299   0.140  1.00  0.00    -0.000 C 
BRANCH   3   4
HETATM    4  C   LIG     1      -2.432   0.581  -0.515  1.00  0.00    -0.005 C 
HETATM    5  C   LIG     1      -3.824  -0.018  -0.335  1.00  0.00     0.005 C 
ENDBRANCH   3   4
ENDBRANCH   2   3
ENDBRANCH   1   2
BRANCH   1   6
HETATM    6  C   LIG     1       2.514   0.055   0.569  1.00  0.00     0.114 C 
HETATM    7  C   LIG     1       3.077   0.126  -0.853  1.00  0.00     0.039 C 
BRANCH   6   8
HETATM    8  O   LIG     1       3.391  -0.708   1.356  1.00  0.00    -0.396 OA
HETATM    9  H   LIG     1       3.202  -0.479   2.304  1.00  0.00     0.210 HD
ENDBRANCH   6   8
ENDBRANCH   1   6
TORSDOF 5
