MODEL 1
REMARK VINA RESULT:      -5.3      0.000      0.000
REMARK  5 active torsions:
REMARK  status: ('A' for Active; 'I' for Inactive)
REMARK    1  A    between atoms: C_2  and  C_3 
REMARK    2  A    between atoms: C_3  and  C_4 
REMARK    3  A    between atoms: C_4  and  C_5 
REMARK    4  A    between atoms: C_5  and  C_6 
REMARK    5  A    between atoms: C_6  and  O_7 
ROOT
HETATM    1  C   LIG     1      17.361  38.223  24.044  1.00  0.00     0.031 C 
ENDROOT
BRANCH   1   2
HETATM    2  C   LIG     1      17.377  37.879  25.542  1.00  0.00     0.002 C 
BRANCH   2   3
HETATM    3  C   LIG     1      18.624  37.063  25.904  1.00  0.00    -0.000 C 
BRANCH   3   4
HETATM    4  C   LIG     1      18.241  35.766  26.626  1.00  0.00    -0.005 C 
HETATM    5  C   LIG     1      17.455  34.834  25.707  1.00  0.00     0.005 C 
ENDBRANCH   3   4
ENDBRANCH   2   3
ENDBRANCH   1   2
BRANCH   1   6
HETATM    6  C   LIG     1      16.328  37.396  23.252  1.00  0.00     0.114 C 
HETATM    7  C   LIG     1      16.873  36.947  21.894  1.00  0.00     0.039 C 
BRANCH   6   8
HETATM    8  O   LIG     1      15.178  38.172  23.034  1.00  0.00    -0.396 OA
HETATM    9  H   LIG     1      15.209  38.476  22.089  1.00  0.00     0.210 HD
ENDBRANCH   6   8
ENDBRANCH   1   6
TORSDOF 5
ENDMDL
MODEL 2
REMARK VINA RESULT:      -5.0      2.400      4.453
REMARK  5 active torsions:
REMARK  status: ('A' for Active; 'I' for Inactive)
REMARK    1  A    between atoms: C_2  and  C_3 
REMARK    2  A    between atoms: C_3  and  C_4 
REMARK    3  A    between atoms: C_4  and  C_5 
REMARK    4  A    between atoms: C_5  and  C_6 
REMARK    5  A    between atoms: C_6  and  O_7 
ROOT
HETATM    1  C   LIG     1      17.344  38.875  22.787  1.00  0.00     0.031 C 
ENDROOT
BRANCH   1   2
HETATM    2  C   LIG     1      17.832  38.413  21.406  1.00  0.00     0.002 C 
BRANCH   2   3
HETATM    3  C   LIG     1      18.837  39.410  20.816  1.00  0.00    -0.000 C 
BRANCH   3   4
HETATM    4  C   LIG     1      19.788  38.717  19.834  1.00  0.00    -0.005 C 
HETATM    5  C   LIG     1      19.288  37.321  19.474  1.00  0.00     0.005 C 
ENDBRANCH   3   4
ENDBRANCH   2   3
ENDBRANCH   1   2
BRANCH   1   6
HETATM    6  C   LIG     1      16.602  37.766  23.561  1.00  0.00     0.114 C 
HETATM    7  C   LIG     1      16.775  36.394  22.904  1.00  0.00     0.039 C 
BRANCH   6   8
HETATM    8  O   LIG     1      15.231  38.067  23.605  1.00  0.00    -0.396 OA
HETATM    9  H   LIG     1      15.017  38.562  22.771  1.00  0.00     0.210 HD
ENDBRANCH   6   8
ENDBRANCH   1   6
TORSDOF 5
ENDMDL
MODEL 3
REMARK VINA RESULT:      -4.9      2.183      4.416
REMARK  5 active torsions:
REMARK  status: ('A' for Active; 'I' for Inactive)
REMARK    1  A    between atoms: C_2  and  C_3 
REMARK    2  A    between atoms: C_3  and  C_4 
REMARK    3  A    between atoms: C_4  and  C_5 
REMARK    4  A    between atoms: C_5  and  C_6 
REMARK    5  A    between atoms: C_6  and  O_7 
ROOT
HETATM    1  C   LIG     1      16.884  37.221  24.044  1.00  0.00     0.031 C 
ENDROOT
BRANCH   1   2
HETATM    2  C   LIG     1      16.566  38.186  22.891  1.00  0.00     0.002 C 
BRANCH   2   3
HETATM    3  C   LIG     1      17.584  38.037  21.753  1.00  0.00    -0.000 C 
BRANCH   3   4
HETATM    4  C   LIG     1      18.464  39.286  21.635  1.00  0.00    -0.005 C 
HETATM    5  C   LIG     1      19.169  39.339  20.283  1.00  0.00     0.005 C 
ENDBRANCH   3   4
ENDBRANCH   2   3
ENDBRANCH   1   2
BRANCH   1   6
HETATM    6  C   LIG     1      17.882  37.813  25.061  1.00  0.00     0.114 C 
HETATM    7  C   LIG     1      18.388  36.758  26.048  1.00  0.00     0.039 C 
BRANCH   6   8
HETATM    8  O   LIG     1      17.252  38.835  25.788  1.00  0.00    -0.396 OA
HETATM    9  H   LIG     1      16.734  39.377  25.136  1.00  0.00     0.210 HD
ENDBRANCH   6   8
ENDBRANCH   1   6
TORSDOF 5
ENDMDL
MODEL 4
REMARK VINA RESULT:      -4.9      3.395      4.370
REMARK  5 active torsions:
REMARK  status: ('A' for Active; 'I' for Inactive)
REMARK    1  A    between atoms: C_2  and  C_3 
REMARK    2  A    between atoms: C_3  and  C_4 
REMARK    3  A    between atoms: C_4  and  C_5 
REMARK    4  A    between atoms: C_5  and  C_6 
REMARK    5  A    between atoms: C_6  and  O_7 
ROOT
HETATM    1  C   LIG     1      18.793  39.427  20.682  1.00  0.00     0.031 C 
ENDROOT
BRANCH   1   2
HETATM    2  C   LIG     1      17.962  38.411  21.481  1.00  0.00     0.002 C 
BRANCH   2   3
HETATM    3  C   LIG     1      17.959  38.757  22.975  1.00  0.00    -0.000 C 
BRANCH   3   4
HETATM    4  C   LIG     1      16.955  37.887  23.739  1.00  0.00    -0.005 C 
HETATM    5  C   LIG     1      17.305  37.815  25.223  1.00  0.00     0.005 C 
ENDBRANCH   3   4
ENDBRANCH   2   3
ENDBRANCH   1   2
BRANCH   1   6
HETATM    6  C   LIG     1      19.373  38.834  19.381  1.00  0.00     0.114 C 
HETATM    7  C   LIG     1      19.416  37.304  19.418  1.00  0.00     0.039 C 
BRANCH   6   8
HETATM    8  O   LIG     1      20.680  39.311  19.195  1.00  0.00    -0.396 OA
HETATM    9  H   LIG     1      20.895  39.195  18.232  1.00  0.00     0.210 HD
ENDBRANCH   6   8
ENDBRANCH   1   6
TORSDOF 5
ENDMDL
MODEL 5
REMARK VINA RESULT:      -4.8      3.613      4.480
REMARK  5 active torsions:
REMARK  status: ('A' for Active; 'I' for Inactive)
REMARK    1  A    between atoms: C_2  and  C_3 
REMARK    2  A    between atoms: C_3  and  C_4 
REMARK    3  A    between atoms: C_4  and  C_5 
REMARK    4  A    between atoms: C_5  and  C_6 
REMARK    5  A    between atoms: C_6  and  O_7 
ROOT
HETATM    1  C   LIG     1      19.103  39.134  21.182  1.00  0.00     0.031 C 
ENDROOT
BRANCH   1   2
HETATM    2  C   LIG     1      17.639  38.982  21.623  1.00  0.00     0.002 C 
BRANCH   2   3
HETATM    3  C   LIG     1      17.468  37.773  22.551  1.00  0.00    -0.000 C 
BRANCH   3   4
HETATM    4  C   LIG     1      16.541  36.725  21.925  1.00  0.00    -0.005 C 
HETATM    5  C   LIG     1      17.023  35.309  22.230  1.00  0.00     0.005 C 
ENDBRANCH   3   4
ENDBRANCH   2   3
ENDBRANCH   1   2
BRANCH   1   6
HETATM    6  C   LIG     1      19.314  38.814  19.688  1.00  0.00     0.114 C 
HETATM    7  C   LIG     1      19.362  37.306  19.427  1.00  0.00     0.039 C 
BRANCH   6   8
HETATM    8  O   LIG     1      20.525  39.377  19.258  1.00  0.00    -0.396 OA
HETATM    9  H   LIG     1      20.304  40.249  18.836  1.00  0.00     0.210 HD
ENDBRANCH   6   8
ENDBRANCH   1   6
TORSDOF 5
ENDMDL
MODEL 6
REMARK VINA RESULT:      -4.7      2.063      2.751
REMARK  5 active torsions:
REMARK  status: ('A' for Active; 'I' for Inactive)
REMARK    1  A    between atoms: C_2  and  C_3 
REMARK    2  A    between atoms: C_3  and  C_4 
REMARK    3  A    between atoms: C_4  and  C_5 
REMARK    4  A    between atoms: C_5  and  C_6 
REMARK    5  A    between atoms: C_6  and  O_7 
ROOT
HETATM    1  C   LIG     1      16.404  35.960  22.151  1.00  0.00     0.031 C 
ENDROOT
BRANCH   1   2
HETATM    2  C   LIG     1      17.028  35.141  23.291  1.00  0.00     0.002 C 
BRANCH   2   3
HETATM    3  C   LIG     1      17.255  36.012  24.533  1.00  0.00    -0.000 C 
BRANCH   3   4
HETATM    4  C   LIG     1      17.677  35.158  25.734  1.00  0.00    -0.005 C 
HETATM    5  C   LIG     1      18.429  35.992  26.767  1.00  0.00     0.005 C 
ENDBRANCH   3   4
ENDBRANCH   2   3
ENDBRANCH   1   2
BRANCH   1   6
HETATM    6  C   LIG     1      15.411  35.141  21.300  1.00  0.00     0.114 C 
HETATM    7  C   LIG     1      15.891  34.982  19.855  1.00  0.00     0.039 C 
BRANCH   6   8
HETATM    8  O   LIG     1      14.166  35.789  21.285  1.00  0.00    -0.396 OA
HETATM    9  H   LIG     1      14.305  36.692  21.675  1.00  0.00     0.210 HD
ENDBRANCH   6   8
ENDBRANCH   1   6
TORSDOF 5
ENDMDL
MODEL 7
REMARK VINA RESULT:      -4.6      2.124      2.518
REMARK  5 active torsions:
REMARK  status: ('A' for Active; 'I' for Inactive)
REMARK    1  A    between atoms: C_2  and  C_3 
REMARK    2  A    between atoms: C_3  and  C_4 
REMARK    3  A    between atoms: C_4  and  C_5 
REMARK    4  A    between atoms: C_5  and  C_6 
REMARK    5  A    between atoms: C_6  and  O_7 
ROOT
HETATM    1  C   LIG     1      17.252  39.005  22.677  1.00  0.00     0.031 C 
ENDROOT
BRANCH   1   2
HETATM    2  C   LIG     1      17.909  38.247  23.840  1.00  0.00     0.002 C 
BRANCH   2   3
HETATM    3  C   LIG     1      16.870  37.433  24.622  1.00  0.00    -0.000 C 
BRANCH   3   4
HETATM    4  C   LIG     1      17.515  36.212  25.287  1.00  0.00    -0.005 C 
HETATM    5  C   LIG     1      18.459  36.630  26.411  1.00  0.00     0.005 C 
ENDBRANCH   3   4
ENDBRANCH   2   3
ENDBRANCH   1   2
BRANCH   1   6
HETATM    6  C   LIG     1      18.058  38.902  21.365  1.00  0.00     0.114 C 
HETATM    7  C   LIG     1      18.137  37.462  20.853  1.00  0.00     0.039 C 
BRANCH   6   8
HETATM    8  O   LIG     1      19.364  39.368  21.584  1.00  0.00    -0.396 OA
HETATM    9  H   LIG     1      19.689  38.936  22.418  1.00  0.00     0.210 HD
ENDBRANCH   6   8
ENDBRANCH   1   6
TORSDOF 5
ENDMDL
MODEL 8
REMARK VINA RESULT:      -4.6      1.497      2.256
REMARK  5 active torsions:
REMARK  status: ('A' for Active; 'I' for Inactive)
REMARK    1  A    between atoms: C_2  and  C_3 
REMARK    2  A    between atoms: C_3  and  C_4 
REMARK    3  A    between atoms: C_4  and  C_5 
REMARK    4  A    between atoms: C_5  and  C_6 
REMARK    5  A    between atoms: C_6  and  O_7 
ROOT
HETATM    1  C   LIG     1      16.121  37.613  22.982  1.00  0.00     0.031 C 
ENDROOT
BRANCH   1   2
HETATM    2  C   LIG     1      17.252  38.643  23.130  1.00  0.00     0.002 C 
BRANCH   2   3
HETATM    3  C   LIG     1      18.191  38.265  24.282  1.00  0.00    -0.000 C 
BRANCH   3   4
HETATM    4  C   LIG     1      17.405  37.703  25.472  1.00  0.00    -0.005 C 
HETATM    5  C   LIG     1      18.259  36.742  26.294  1.00  0.00     0.005 C 
ENDBRANCH   3   4
ENDBRANCH   2   3
ENDBRANCH   1   2
BRANCH   1   6
HETATM    6  C   LIG     1      16.457  36.498  21.970  1.00  0.00     0.114 C 
HETATM    7  C   LIG     1      16.917  35.213  22.664  1.00  0.00     0.039 C 
BRANCH   6   8
HETATM    8  O   LIG     1      17.486  36.936  21.121  1.00  0.00    -0.396 OA
HETATM    9  H   LIG     1      17.644  36.210  20.461  1.00  0.00     0.210 HD
ENDBRANCH   6   8
ENDBRANCH   1   6
TORSDOF 5
ENDMDL
MODEL 9
REMARK VINA RESULT:      -4.5      3.624      4.794
REMARK  5 active torsions:
REMARK  status: ('A' for Active; 'I' for Inactive)
REMARK    1  A    between atoms: C_2  and  C_3 
REMARK    2  A    between atoms: C_3  and  C_4 
REMARK    3  A    between atoms: C_4  and  C_5 
REMARK    4  A    between atoms: C_5  and  C_6 
REMARK    5  A    between atoms: C_6  and  O_7 
ROOT
HETATM    1  C   LIG     1      15.184  35.795  21.342  1.00  0.00     0.031 C 
ENDROOT
BRANCH   1   2
HETATM    2  C   LIG     1      16.317  36.410  22.178  1.00  0.00     0.002 C 
BRANCH   2   3
HETATM    3  C   LIG     1      17.373  37.063  21.278  1.00  0.00    -0.000 C 
BRANCH   3   4
HETATM    4  C   LIG     1      17.700  38.483  21.754  1.00  0.00    -0.005 C 
HETATM    5  C   LIG     1      18.735  39.144  20.849  1.00  0.00     0.005 C 
ENDBRANCH   3   4
ENDBRANCH   2   3
ENDBRANCH   1   2
BRANCH   1   6
HETATM    6  C   LIG     1      15.167  34.253  21.400  1.00  0.00     0.114 C 
HETATM    7  C   LIG     1      15.607  33.625  20.075  1.00  0.00     0.039 C 
BRANCH   6   8
HETATM    8  O   LIG     1      13.866  33.813  21.690  1.00  0.00    -0.396 OA
HETATM    9  H   LIG     1      13.760  33.853  22.677  1.00  0.00     0.210 HD
ENDBRANCH   6   8
ENDBRANCH   1   6
TORSDOF 5
ENDMDL
MODEL 10
REMARK VINA RESULT:      -4.5      3.194      4.031
REMARK  5 active torsions:
REMARK  status: ('A' for Active; 'I' for Inactive)
REMARK    1  A    between atoms: C_2  and  C_3 
REMARK    2  A    between atoms: C_3  and  C_4 
REMARK    3  A    between atoms: C_4  and  C_5 
REMARK    4  A    between atoms: C_5  and  C_6 
REMARK    5  A    between atoms: C_6  and  O_7 
ROOT
HETATM    1  C   LIG     1      18.130  38.463  21.941  1.00  0.00     0.031 C 
ENDROOT
BRANCH   1   2
HETATM    2  C   LIG     1      16.768  37.776  22.125  1.00  0.00     0.002 C 
BRANCH   2   3
HETATM    3  C   LIG     1      16.913  36.477  22.927  1.00  0.00    -0.000 C 
BRANCH   3   4
HETATM    4  C   LIG     1      17.005  35.262  21.995  1.00  0.00    -0.005 C 
HETATM    5  C   LIG     1      16.059  35.406  20.806  1.00  0.00     0.005 C 
ENDBRANCH   3   4
ENDBRANCH   2   3
ENDBRANCH   1   2
BRANCH   1   6
HETATM    6  C   LIG     1      18.477  38.714  20.459  1.00  0.00     0.114 C 
HETATM    7  C   LIG     1      19.076  37.473  19.792  1.00  0.00     0.039 C 
BRANCH   6   8
HETATM    8  O   LIG     1      19.409  39.760  20.370  1.00  0.00    -0.396 OA
HETATM    9  H   LIG     1      19.870  39.663  19.495  1.00  0.00     0.210 HD
ENDBRANCH   6   8
ENDBRANCH   1   6
TORSDOF 5
ENDMDL
MODEL 11
REMARK VINA RESULT:      -4.4      2.248      3.743
REMARK  5 active torsions:
REMARK  status: ('A' for Active; 'I' for Inactive)
REMARK    1  A    between atoms: C_2  and  C_3 
REMARK    2  A    between atoms: C_3  and  C_4 
REMARK    3  A    between atoms: C_4  and  C_5 
REMARK    4  A    between atoms: C_5  and  C_6 
REMARK    5  A    between atoms: C_6  and  O_7 
ROOT
HETATM    1  C   LIG     1      16.540  35.307  22.108  1.00  0.00     0.031 C 
ENDROOT
BRANCH   1   2
HETATM    2  C   LIG     1      17.280  36.442  21.383  1.00  0.00     0.002 C 
BRANCH   2   3
HETATM    3  C   LIG     1      17.306  37.715  22.238  1.00  0.00    -0.000 C 
BRANCH   3   4
HETATM    4  C   LIG     1      16.431  37.557  23.487  1.00  0.00    -0.005 C 
HETATM    5  C   LIG     1      17.197  37.941  24.749  1.00  0.00     0.005 C 
ENDBRANCH   3   4
ENDBRANCH   2   3
ENDBRANCH   1   2
BRANCH   1   6
HETATM    6  C   LIG     1      15.564  34.547  21.188  1.00  0.00     0.114 C 
HETATM    7  C   LIG     1      15.712  34.967  19.723  1.00  0.00     0.039 C 
BRANCH   6   8
HETATM    8  O   LIG     1      14.245  34.807  21.593  1.00  0.00    -0.396 OA
HETATM    9  H   LIG     1      13.653  34.245  21.027  1.00  0.00     0.210 HD
ENDBRANCH   6   8
ENDBRANCH   1   6
TORSDOF 5
ENDMDL
MODEL 12
REMARK VINA RESULT:      -4.4      1.881      4.119
REMARK  5 active torsions:
REMARK  status: ('A' for Active; 'I' for Inactive)
REMARK    1  A    between atoms: C_2  and  C_3 
REMARK    2  A    between atoms: C_3  and  C_4 
REMARK    3  A    between atoms: C_4  and  C_5 
REMARK    4  A    between atoms: C_5  and  C_6 
REMARK    5  A    between atoms: C_6  and  O_7 
ROOT
HETATM    1  C   LIG     1      17.144  36.194  24.059  1.00  0.00     0.031 C 
ENDROOT
BRANCH   1   2
HETATM    2  C   LIG     1      16.731  36.698  22.667  1.00  0.00     0.002 C 
BRANCH   2   3
HETATM    3  C   LIG     1      17.212  35.739  21.572  1.00  0.00    -0.000 C 
BRANCH   3   4
HETATM    4  C   LIG     1      16.061  35.349  20.637  1.00  0.00    -0.005 C 
HETATM    5  C   LIG     1      15.097  34.385  21.322  1.00  0.00     0.005 C 
ENDBRANCH   3   4
ENDBRANCH   2   3
ENDBRANCH   1   2
BRANCH   1   6
HETATM    6  C   LIG     1      17.730  37.310  24.949  1.00  0.00     0.114 C 
HETATM    7  C   LIG     1      18.237  36.769  26.288  1.00  0.00     0.039 C 
BRANCH   6   8
HETATM    8  O   LIG     1      16.738  38.270  25.205  1.00  0.00    -0.396 OA
HETATM    9  H   LIG     1      17.028  39.110  24.760  1.00  0.00     0.210 HD
ENDBRANCH   6   8
ENDBRANCH   1   6
TORSDOF 5
ENDMDL
MODEL 13
REMARK VINA RESULT:      -4.3      3.879      5.112
REMARK  5 active torsions:
REMARK  status: ('A' for Active; 'I' for Inactive)
REMARK    1  A    between atoms: C_2  and  C_3 
REMARK    2  A    between atoms: C_3  and  C_4 
REMARK    3  A    between atoms: C_4  and  C_5 
REMARK    4  A    between atoms: C_5  and  C_6 
REMARK    5  A    between atoms: C_6  and  O_7 
ROOT
HETATM    1  C   LIG     1      19.333  37.336  19.607  1.00  0.00     0.031 C 
ENDROOT
BRANCH   1   2
HETATM    2  C   LIG     1      18.090  36.534  20.023  1.00  0.00     0.002 C 
BRANCH   2   3
HETATM    3  C   LIG     1      17.537  37.033  21.364  1.00  0.00    -0.000 C 
BRANCH   3   4
HETATM    4  C   LIG     1      16.816  35.908  22.115  1.00  0.00    -0.005 C 
HETATM    5  C   LIG     1      15.607  35.407  21.329  1.00  0.00     0.005 C 
ENDBRANCH   3   4
ENDBRANCH   2   3
ENDBRANCH   1   2
BRANCH   1   6
HETATM    6  C   LIG     1      19.033  38.834  19.395  1.00  0.00     0.114 C 
HETATM    7  C   LIG     1      18.911  39.190  17.911  1.00  0.00     0.039 C 
BRANCH   6   8
HETATM    8  O   LIG     1      20.071  39.599  19.951  1.00  0.00    -0.396 OA
HETATM    9  H   LIG     1      20.220  39.259  20.872  1.00  0.00     0.210 HD
ENDBRANCH   6   8
ENDBRANCH   1   6
TORSDOF 5
ENDMDL
MODEL 14
REMARK VINA RESULT:      -4.3      8.288     10.544
REMARK  5 active torsions:
REMARK  status: ('A' for Active; 'I' for Inactive)
REMARK    1  A    between atoms: C_2  and  C_3 
REMARK    2  A    between atoms: C_3  and  C_4 
REMARK    3  A    between atoms: C_4  and  C_5 
REMARK    4  A    between atoms: C_5  and  C_6 
REMARK    5  A    between atoms: C_6  and  O_7 
ROOT
HETATM    1  C   LIG     1      14.534  32.388  16.758  1.00  0.00     0.031 C 
ENDROOT
BRANCH   1   2
HETATM    2  C   LIG     1      13.479  31.273  16.834  1.00  0.00     0.002 C 
BRANCH   2   3
HETATM    3  C   LIG     1      13.396  30.505  15.510  1.00  0.00    -0.000 C 
BRANCH   3   4
HETATM    4  C   LIG     1      14.708  30.615  14.726  1.00  0.00    -0.005 C 
HETATM    5  C   LIG     1      15.082  29.282  14.085  1.00  0.00     0.005 C 
ENDBRANCH   3   4
ENDBRANCH   2   3
ENDBRANCH   1   2
BRANCH   1   6
HETATM    6  C   LIG     1      15.304  32.575  18.081  1.00  0.00     0.114 C 
HETATM    7  C   LIG     1      14.722  31.717  19.208  1.00  0.00     0.039 C 
BRANCH   6   8
HETATM    8  O   LIG     1      15.240  33.922  18.471  1.00  0.00    -0.396 OA
HETATM    9  H   LIG     1      16.161  34.287  18.402  1.00  0.00     0.210 HD
ENDBRANCH   6   8
ENDBRANCH   1   6
TORSDOF 5
ENDMDL
MODEL 15
REMARK VINA RESULT:      -4.3      8.979     10.585
REMARK  5 active torsions:
REMARK  status: ('A' for Active; 'I' for Inactive)
REMARK    1  A    between atoms: C_2  and  C_3 
REMARK    2  A    between atoms: C_3  and  C_4 
REMARK    3  A    between atoms: C_4  and  C_5 
REMARK    4  A    between atoms: C_5  and  C_6 
REMARK    5  A    between atoms: C_6  and  O_7 
ROOT
HETATM    1  C   LIG     1      14.851  32.668  17.292  1.00  0.00     0.031 C 
ENDROOT
BRANCH   1   2
HETATM    2  C   LIG     1      13.454  32.098  17.003  1.00  0.00     0.002 C 
BRANCH   2   3
HETATM    3  C   LIG     1      13.528  30.603  16.670  1.00  0.00    -0.000 C 
BRANCH   3   4
HETATM    4  C   LIG     1      13.116  30.342  15.217  1.00  0.00    -0.005 C 
HETATM    5  C   LIG     1      14.277  29.771  14.408  1.00  0.00     0.005 C 
ENDBRANCH   3   4
ENDBRANCH   2   3
ENDBRANCH   1   2
BRANCH   1   6
HETATM    6  C   LIG     1      15.525  33.261  16.038  1.00  0.00     0.114 C 
HETATM    7  C   LIG     1      16.683  32.390  15.542  1.00  0.00     0.039 C 
BRANCH   6   8
HETATM    8  O   LIG     1      16.028  34.537  16.340  1.00  0.00    -0.396 OA
HETATM    9  H   LIG     1      16.838  34.404  16.900  1.00  0.00     0.210 HD
ENDBRANCH   6   8
ENDBRANCH   1   6
TORSDOF 5
ENDMDL
MODEL 16
REMARK VINA RESULT:      -4.2      3.048      4.508
REMARK  5 active torsions:
REMARK  status: ('A' for Active; 'I' for Inactive)
REMARK    1  A    between atoms: C_2  and  C_3 
REMARK    2  A    between atoms: C_3  and  C_4 
REMARK    3  A    between atoms: C_4  and  C_5 
REMARK    4  A    between atoms: C_5  and  C_6 
REMARK    5  A    between atoms: C_6  and  O_7 
ROOT
HETATM    1  C   LIG     1      17.139  36.922  21.451  1.00  0.00     0.031 C 
ENDROOT
BRANCH   1   2
HETATM    2  C   LIG     1      17.456  37.947  22.551  1.00  0.00     0.002 C 
BRANCH   2   3
HETATM    3  C   LIG     1      18.498  38.964  22.069  1.00  0.00    -0.000 C 
BRANCH   3   4
HETATM    4  C   LIG     1      18.507  39.059  20.539  1.00  0.00    -0.005 C 
HETATM    5  C   LIG     1      19.929  38.977  19.990  1.00  0.00     0.005 C 
ENDBRANCH   3   4
ENDBRANCH   2   3
ENDBRANCH   1   2
BRANCH   1   6
HETATM    6  C   LIG     1      17.083  35.474  21.982  1.00  0.00     0.114 C 
HETATM    7  C   LIG     1      15.830  34.736  21.504  1.00  0.00     0.039 C 
BRANCH   6   8
HETATM    8  O   LIG     1      17.078  35.494  23.386  1.00  0.00    -0.396 OA
HETATM    9  H   LIG     1      16.301  36.047  23.665  1.00  0.00     0.210 HD
ENDBRANCH   6   8
ENDBRANCH   1   6
TORSDOF 5
ENDMDL
MODEL 17
REMARK VINA RESULT:      -4.2     10.541     11.785
REMARK  5 active torsions:
REMARK  status: ('A' for Active; 'I' for Inactive)
REMARK    1  A    between atoms: C_2  and  C_3 
REMARK    2  A    between atoms: C_3  and  C_4 
REMARK    3  A    between atoms: C_4  and  C_5 
REMARK    4  A    between atoms: C_5  and  C_6 
REMARK    5  A    between atoms: C_6  and  O_7 
ROOT
HETATM    1  C   LIG     1      15.393  31.129  13.492  1.00  0.00     0.031 C 
ENDROOT
BRANCH   1   2
HETATM    2  C   LIG     1      15.037  30.369  14.780  1.00  0.00     0.002 C 
BRANCH   2   3
HETATM    3  C   LIG     1      13.517  30.255  14.947  1.00  0.00    -0.000 C 
BRANCH   3   4
HETATM    4  C   LIG     1      13.106  30.479  16.407  1.00  0.00    -0.005 C 
HETATM    5  C   LIG     1      13.277  31.941  16.810  1.00  0.00     0.005 C 
ENDBRANCH   3   4
ENDBRANCH   2   3
ENDBRANCH   1   2
BRANCH   1   6
HETATM    6  C   LIG     1      16.494  32.187  13.708  1.00  0.00     0.114 C 
HETATM    7  C   LIG     1      16.483  32.744  15.135  1.00  0.00     0.039 C 
BRANCH   6   8
HETATM    8  O   LIG     1      16.298  33.252  12.815  1.00  0.00    -0.396 OA
HETATM    9  H   LIG     1      15.528  33.007  12.238  1.00  0.00     0.210 HD
ENDBRANCH   6   8
ENDBRANCH   1   6
TORSDOF 5
ENDMDL
MODEL 18
REMARK VINA RESULT:      -4.1      4.056      4.897
REMARK  5 active torsions:
REMARK  status: ('A' for Active; 'I' for Inactive)
REMARK    1  A    between atoms: C_2  and  C_3 
REMARK    2  A    between atoms: C_3  and  C_4 
REMARK    3  A    between atoms: C_4  and  C_5 
REMARK    4  A    between atoms: C_5  and  C_6 
REMARK    5  A    between atoms: C_6  and  O_7 
ROOT
HETATM    1  C   LIG     1      17.896  37.303  20.900  1.00  0.00     0.031 C 
ENDROOT
BRANCH   1   2
HETATM    2  C   LIG     1      17.312  36.034  21.540  1.00  0.00     0.002 C 
BRANCH   2   3
HETATM    3  C   LIG     1      15.843  36.241  21.929  1.00  0.00    -0.000 C 
BRANCH   3   4
HETATM    4  C   LIG     1      14.930  35.274  21.167  1.00  0.00    -0.005 C 
HETATM    5  C   LIG     1      15.733  34.147  20.525  1.00  0.00     0.005 C 
ENDBRANCH   3   4
ENDBRANCH   2   3
ENDBRANCH   1   2
BRANCH   1   6
HETATM    6  C   LIG     1      18.880  36.994  19.753  1.00  0.00     0.114 C 
HETATM    7  C   LIG     1      19.737  38.210  19.391  1.00  0.00     0.039 C 
BRANCH   6   8
HETATM    8  O   LIG     1      18.159  36.604  18.613  1.00  0.00    -0.396 OA
HETATM    9  H   LIG     1      18.821  36.265  17.955  1.00  0.00     0.210 HD
ENDBRANCH   6   8
ENDBRANCH   1   6
TORSDOF 5
ENDMDL
MODEL 19
REMARK VINA RESULT:      -4.1      9.320     11.075
REMARK  5 active torsions:
REMARK  status: ('A' for Active; 'I' for Inactive)
REMARK    1  A    between atoms: C_2  and  C_3 
REMARK    2  A    between atoms: C_3  and  C_4 
REMARK    3  A    between atoms: C_4  and  C_5 
REMARK    4  A    between atoms: C_5  and  C_6 
REMARK    5  A    between atoms: C_6  and  O_7 
ROOT
HETATM    1  C   LIG     1      13.019  30.717  15.585  1.00  0.00     0.031 C 
ENDROOT
BRANCH   1   2
HETATM    2  C   LIG     1      13.702  30.985  16.935  1.00  0.00     0.002 C 
BRANCH   2   3
HETATM    3  C   LIG     1      14.690  32.153  16.828  1.00  0.00    -0.000 C 
BRANCH   3   4
HETATM    4  C   LIG     1      15.023  32.721  18.213  1.00  0.00    -0.005 C 
HETATM    5  C   LIG     1      14.813  31.674  19.303  1.00  0.00     0.005 C 
ENDBRANCH   3   4
ENDBRANCH   2   3
ENDBRANCH   1   2
BRANCH   1   6
HETATM    6  C   LIG     1      13.672  29.558  14.804  1.00  0.00     0.114 C 
HETATM    7  C   LIG     1      14.795  30.047  13.886  1.00  0.00     0.039 C 
BRANCH   6   8
HETATM    8  O   LIG     1      12.700  28.921  14.017  1.00  0.00    -0.396 OA
HETATM    9  H   LIG     1      12.660  27.975  14.316  1.00  0.00     0.210 HD
ENDBRANCH   6   8
ENDBRANCH   1   6
TORSDOF 5
ENDMDL
MODEL 20
REMARK VINA RESULT:      -4.1      9.365     10.909
REMARK  5 active torsions:
REMARK  status: ('A' for Active; 'I' for Inactive)
REMARK    1  A    between atoms: C_2  and  C_3 
REMARK    2  A    between atoms: C_3  and  C_4 
REMARK    3  A    between atoms: C_4  and  C_5 
REMARK    4  A    between atoms: C_5  and  C_6 
REMARK    5  A    between atoms: C_6  and  O_7 
ROOT
HETATM    1  C   LIG     1      15.185  32.912  16.383  1.00  0.00     0.031 C 
ENDROOT
BRANCH   1   2
HETATM    2  C   LIG     1      16.222  32.146  15.546  1.00  0.00     0.002 C 
BRANCH   2   3
HETATM    3  C   LIG     1      15.600  31.629  14.242  1.00  0.00    -0.000 C 
BRANCH   3   4
HETATM    4  C   LIG     1      15.510  30.099  14.245  1.00  0.00    -0.005 C 
HETATM    5  C   LIG     1      14.058  29.632  14.281  1.00  0.00     0.005 C 
ENDBRANCH   3   4
ENDBRANCH   2   3
ENDBRANCH   1   2
BRANCH   1   6
HETATM    6  C   LIG     1      14.320  31.983  17.259  1.00  0.00     0.114 C 
HETATM    7  C   LIG     1      12.859  31.960  16.800  1.00  0.00     0.039 C 
BRANCH   6   8
HETATM    8  O   LIG     1      14.360  32.428  18.590  1.00  0.00    -0.396 OA
HETATM    9  H   LIG     1      13.537  32.091  19.032  1.00  0.00     0.210 HD
ENDBRANCH   6   8
ENDBRANCH   1   6
TORSDOF 5
ENDMDL
