REMARK  3 active torsions:
REMARK  status: ('A' for Active; 'I' for Inactive)
REMARK    1  A    between atoms: C_2  and  C_3 
REMARK    2  A    between atoms: C_3  and  C_4 
REMARK    3  A    between atoms: C_4  and  C_5 
ROOT
HETATM    1  C   LIG     1       0.016  -0.517   0.540  1.00  0.00     0.001 C 
ENDROOT
BRANCH   1   2
HETATM    2  C   LIG     1      -1.440  -0.028   0.598  1.00  0.00    -0.005 C 
HETATM    3  C   LIG     1      -2.115  -0.016  -0.774  1.00  0.00     0.005 C 
ENDBRANCH   1   2
BRANCH   1   4
HETATM    4  C   LIG     1       0.953   0.500  -0.133  1.00  0.00     0.015 C 
BRANCH   4   5
HETATM    5  C   LIG     1       2.413   0.043  -0.097  1.00  0.00     0.114 C 
HETATM    6 CL   LIG     1       3.082   0.131   1.555  1.00  0.00    -0.130 Cl
ENDBRANCH   4   5
ENDBRANCH   1   4
TORSDOF 3
