MODEL 1
REMARK VINA RESULT:      -4.3      0.000      0.000
REMARK  3 active torsions:
REMARK  status: ('A' for Active; 'I' for Inactive)
REMARK    1  A    between atoms: C_2  and  C_3 
REMARK    2  A    between atoms: C_3  and  C_4 
REMARK    3  A    between atoms: C_4  and  C_5 
ROOT
HETATM    1  C   LIG     1      18.607  36.977  26.094  1.00  0.00     0.001 C 
ENDROOT
BRANCH   1   2
HETATM    2  C   LIG     1      18.330  35.517  26.485  1.00  0.00    -0.005 C 
HETATM    3  C   LIG     1      17.335  34.832  25.548  1.00  0.00     0.005 C 
ENDBRANCH   1   2
BRANCH   1   4
HETATM    4  C   LIG     1      17.387  37.656  25.449  1.00  0.00     0.015 C 
BRANCH   4   5
HETATM    5  C   LIG     1      17.714  38.227  24.068  1.00  0.00     0.114 C 
HETATM    6 CL   LIG     1      17.018  37.223  22.767  1.00  0.00    -0.130 Cl
ENDBRANCH   4   5
ENDBRANCH   1   4
TORSDOF 3
ENDMDL
MODEL 2
REMARK VINA RESULT:      -4.3      1.501      2.009
REMARK  3 active torsions:
REMARK  status: ('A' for Active; 'I' for Inactive)
REMARK    1  A    between atoms: C_2  and  C_3 
REMARK    2  A    between atoms: C_3  and  C_4 
REMARK    3  A    between atoms: C_4  and  C_5 
ROOT
HETATM    1  C   LIG     1      17.378  35.026  24.957  1.00  0.00     0.001 C 
ENDROOT
BRANCH   1   2
HETATM    2  C   LIG     1      18.194  34.899  26.253  1.00  0.00    -0.005 C 
HETATM    3  C   LIG     1      18.537  36.255  26.870  1.00  0.00     0.005 C 
ENDBRANCH   1   2
BRANCH   1   4
HETATM    4  C   LIG     1      17.214  36.487  24.504  1.00  0.00     0.015 C 
BRANCH   4   5
HETATM    5  C   LIG     1      16.833  36.587  23.025  1.00  0.00     0.114 C 
HETATM    6 CL   LIG     1      17.128  35.048  22.171  1.00  0.00    -0.130 Cl
ENDBRANCH   4   5
ENDBRANCH   1   4
TORSDOF 3
ENDMDL
MODEL 3
REMARK VINA RESULT:      -3.9      2.102      3.675
REMARK  3 active torsions:
REMARK  status: ('A' for Active; 'I' for Inactive)
REMARK    1  A    between atoms: C_2  and  C_3 
REMARK    2  A    between atoms: C_3  and  C_4 
REMARK    3  A    between atoms: C_4  and  C_5 
ROOT
HETATM    1  C   LIG     1      18.031  38.208  24.425  1.00  0.00     0.001 C 
ENDROOT
BRANCH   1   2
HETATM    2  C   LIG     1      17.346  38.001  23.065  1.00  0.00    -0.005 C 
HETATM    3  C   LIG     1      17.934  38.886  21.966  1.00  0.00     0.005 C 
ENDBRANCH   1   2
BRANCH   1   4
HETATM    4  C   LIG     1      17.385  37.374  25.544  1.00  0.00     0.015 C 
BRANCH   4   5
HETATM    5  C   LIG     1      18.432  36.653  26.397  1.00  0.00     0.114 C 
HETATM    6 CL   LIG     1      18.251  34.881  26.291  1.00  0.00    -0.130 Cl
ENDBRANCH   4   5
ENDBRANCH   1   4
TORSDOF 3
ENDMDL
MODEL 4
REMARK VINA RESULT:      -3.9      2.591      3.568
REMARK  3 active torsions:
REMARK  status: ('A' for Active; 'I' for Inactive)
REMARK    1  A    between atoms: C_2  and  C_3 
REMARK    2  A    between atoms: C_3  and  C_4 
REMARK    3  A    between atoms: C_4  and  C_5 
ROOT
HETATM    1  C   LIG     1      17.160  36.432  24.311  1.00  0.00     0.001 C 
ENDROOT
BRANCH   1   2
HETATM    2  C   LIG     1      16.828  36.514  22.812  1.00  0.00    -0.005 C 
HETATM    3  C   LIG     1      16.969  35.168  22.101  1.00  0.00     0.005 C 
ENDBRANCH   1   2
BRANCH   1   4
HETATM    4  C   LIG     1      17.369  34.986  24.790  1.00  0.00     0.015 C 
BRANCH   4   5
HETATM    5  C   LIG     1      17.860  34.929  26.238  1.00  0.00     0.114 C 
HETATM    6 CL   LIG     1      18.542  36.494  26.757  1.00  0.00    -0.130 Cl
ENDBRANCH   4   5
ENDBRANCH   1   4
TORSDOF 3
ENDMDL
MODEL 5
REMARK VINA RESULT:      -3.9      3.951      4.862
REMARK  3 active torsions:
REMARK  status: ('A' for Active; 'I' for Inactive)
REMARK    1  A    between atoms: C_2  and  C_3 
REMARK    2  A    between atoms: C_3  and  C_4 
REMARK    3  A    between atoms: C_4  and  C_5 
ROOT
HETATM    1  C   LIG     1      18.704  39.139  21.896  1.00  0.00     0.001 C 
ENDROOT
BRANCH   1   2
HETATM    2  C   LIG     1      17.242  38.807  22.237  1.00  0.00    -0.005 C 
HETATM    3  C   LIG     1      16.924  37.319  22.092  1.00  0.00     0.005 C 
ENDBRANCH   1   2
BRANCH   1   4
HETATM    4  C   LIG     1      18.900  39.480  20.410  1.00  0.00     0.015 C 
BRANCH   4   5
HETATM    5  C   LIG     1      19.970  38.601  19.758  1.00  0.00     0.114 C 
HETATM    6 CL   LIG     1      19.378  36.937  19.501  1.00  0.00    -0.130 Cl
ENDBRANCH   4   5
ENDBRANCH   1   4
TORSDOF 3
ENDMDL
MODEL 6
REMARK VINA RESULT:      -3.9      2.457      4.204
REMARK  3 active torsions:
REMARK  status: ('A' for Active; 'I' for Inactive)
REMARK    1  A    between atoms: C_2  and  C_3 
REMARK    2  A    between atoms: C_3  and  C_4 
REMARK    3  A    between atoms: C_4  and  C_5 
ROOT
HETATM    1  C   LIG     1      16.988  38.687  22.902  1.00  0.00     0.001 C 
ENDROOT
BRANCH   1   2
HETATM    2  C   LIG     1      17.758  38.247  21.646  1.00  0.00    -0.005 C 
HETATM    3  C   LIG     1      18.682  39.339  21.105  1.00  0.00     0.005 C 
ENDBRANCH   1   2
BRANCH   1   4
HETATM    4  C   LIG     1      16.875  37.565  23.947  1.00  0.00     0.015 C 
BRANCH   4   5
HETATM    5  C   LIG     1      17.360  38.017  25.326  1.00  0.00     0.114 C 
HETATM    6 CL   LIG     1      18.557  36.879  26.001  1.00  0.00    -0.130 Cl
ENDBRANCH   4   5
ENDBRANCH   1   4
TORSDOF 3
ENDMDL
MODEL 7
REMARK VINA RESULT:      -3.8      3.661      5.098
REMARK  3 active torsions:
REMARK  status: ('A' for Active; 'I' for Inactive)
REMARK    1  A    between atoms: C_2  and  C_3 
REMARK    2  A    between atoms: C_3  and  C_4 
REMARK    3  A    between atoms: C_4  and  C_5 
ROOT
HETATM    1  C   LIG     1      18.733  39.304  20.866  1.00  0.00     0.001 C 
ENDROOT
BRANCH   1   2
HETATM    2  C   LIG     1      19.654  38.630  19.837  1.00  0.00    -0.005 C 
HETATM    3  C   LIG     1      19.225  37.200  19.507  1.00  0.00     0.005 C 
ENDBRANCH   1   2
BRANCH   1   4
HETATM    4  C   LIG     1      17.818  38.300  21.586  1.00  0.00     0.015 C 
BRANCH   4   5
HETATM    5  C   LIG     1      17.203  38.894  22.855  1.00  0.00     0.114 C 
HETATM    6 CL   LIG     1      17.923  38.180  24.323  1.00  0.00    -0.130 Cl
ENDBRANCH   4   5
ENDBRANCH   1   4
TORSDOF 3
ENDMDL
MODEL 8
REMARK VINA RESULT:      -3.6      4.258      5.125
REMARK  3 active torsions:
REMARK  status: ('A' for Active; 'I' for Inactive)
REMARK    1  A    between atoms: C_2  and  C_3 
REMARK    2  A    between atoms: C_3  and  C_4 
REMARK    3  A    between atoms: C_4  and  C_5 
ROOT
HETATM    1  C   LIG     1      18.022  36.922  20.722  1.00  0.00     0.001 C 
ENDROOT
BRANCH   1   2
HETATM    2  C   LIG     1      16.957  35.821  20.593  1.00  0.00    -0.005 C 
HETATM    3  C   LIG     1      16.687  35.102  21.915  1.00  0.00     0.005 C 
ENDBRANCH   1   2
BRANCH   1   4
HETATM    4  C   LIG     1      18.882  37.061  19.454  1.00  0.00     0.015 C 
BRANCH   4   5
HETATM    5  C   LIG     1      19.657  38.381  19.431  1.00  0.00     0.114 C 
HETATM    6 CL   LIG     1      18.938  39.577  20.543  1.00  0.00    -0.130 Cl
ENDBRANCH   4   5
ENDBRANCH   1   4
TORSDOF 3
ENDMDL
MODEL 9
REMARK VINA RESULT:      -3.6     10.639     11.496
REMARK  3 active torsions:
REMARK  status: ('A' for Active; 'I' for Inactive)
REMARK    1  A    between atoms: C_2  and  C_3 
REMARK    2  A    between atoms: C_3  and  C_4 
REMARK    3  A    between atoms: C_4  and  C_5 
ROOT
HETATM    1  C   LIG     1      13.245  30.531  15.617  1.00  0.00     0.001 C 
ENDROOT
BRANCH   1   2
HETATM    2  C   LIG     1      14.637  30.719  14.994  1.00  0.00    -0.005 C 
HETATM    3  C   LIG     1      15.013  29.588  14.036  1.00  0.00     0.005 C 
ENDBRANCH   1   2
BRANCH   1   4
HETATM    4  C   LIG     1      12.953  31.555  16.727  1.00  0.00     0.015 C 
BRANCH   4   5
HETATM    5  C   LIG     1      14.229  32.235  17.227  1.00  0.00     0.114 C 
HETATM    6 CL   LIG     1      14.628  31.729  18.891  1.00  0.00    -0.130 Cl
ENDBRANCH   4   5
ENDBRANCH   1   4
TORSDOF 3
ENDMDL
MODEL 10
REMARK VINA RESULT:      -3.5      3.874      5.048
REMARK  3 active torsions:
REMARK  status: ('A' for Active; 'I' for Inactive)
REMARK    1  A    between atoms: C_2  and  C_3 
REMARK    2  A    between atoms: C_3  and  C_4 
REMARK    3  A    between atoms: C_4  and  C_5 
ROOT
HETATM    1  C   LIG     1      17.419  37.256  21.414  1.00  0.00     0.001 C 
ENDROOT
BRANCH   1   2
HETATM    2  C   LIG     1      18.521  37.895  20.555  1.00  0.00    -0.005 C 
HETATM    3  C   LIG     1      18.772  39.361  20.908  1.00  0.00     0.005 C 
ENDBRANCH   1   2
BRANCH   1   4
HETATM    4  C   LIG     1      17.113  35.807  20.999  1.00  0.00     0.015 C 
BRANCH   4   5
HETATM    5  C   LIG     1      16.320  35.060  22.074  1.00  0.00     0.114 C 
HETATM    6 CL   LIG     1      17.159  35.101  23.648  1.00  0.00    -0.130 Cl
ENDBRANCH   4   5
ENDBRANCH   1   4
TORSDOF 3
ENDMDL
MODEL 11
REMARK VINA RESULT:      -3.5      3.630      4.762
REMARK  3 active torsions:
REMARK  status: ('A' for Active; 'I' for Inactive)
REMARK    1  A    between atoms: C_2  and  C_3 
REMARK    2  A    between atoms: C_3  and  C_4 
REMARK    3  A    between atoms: C_4  and  C_5 
ROOT
HETATM    1  C   LIG     1      16.991  37.342  22.317  1.00  0.00     0.001 C 
ENDROOT
BRANCH   1   2
HETATM    2  C   LIG     1      17.361  38.826  22.167  1.00  0.00    -0.005 C 
HETATM    3  C   LIG     1      18.399  39.069  21.070  1.00  0.00     0.005 C 
ENDBRANCH   1   2
BRANCH   1   4
HETATM    4  C   LIG     1      17.461  36.494  21.123  1.00  0.00     0.015 C 
BRANCH   4   5
HETATM    5  C   LIG     1      16.375  35.526  20.647  1.00  0.00     0.114 C 
HETATM    6 CL   LIG     1      14.806  35.877  21.421  1.00  0.00    -0.130 Cl
ENDBRANCH   4   5
ENDBRANCH   1   4
TORSDOF 3
ENDMDL
MODEL 12
REMARK VINA RESULT:      -3.5     11.753     12.597
REMARK  3 active torsions:
REMARK  status: ('A' for Active; 'I' for Inactive)
REMARK    1  A    between atoms: C_2  and  C_3 
REMARK    2  A    between atoms: C_3  and  C_4 
REMARK    3  A    between atoms: C_4  and  C_5 
ROOT
HETATM    1  C   LIG     1      13.403  30.257  15.173  1.00  0.00     0.001 C 
ENDROOT
BRANCH   1   2
HETATM    2  C   LIG     1      12.852  30.980  16.412  1.00  0.00    -0.005 C 
HETATM    3  C   LIG     1      13.917  31.801  17.140  1.00  0.00     0.005 C 
ENDBRANCH   1   2
BRANCH   1   4
HETATM    4  C   LIG     1      14.824  30.715  14.806  1.00  0.00     0.015 C 
BRANCH   4   5
HETATM    5  C   LIG     1      15.358  29.988  13.571  1.00  0.00     0.114 C 
HETATM    6 CL   LIG     1      15.259  28.216  13.764  1.00  0.00    -0.130 Cl
ENDBRANCH   4   5
ENDBRANCH   1   4
TORSDOF 3
ENDMDL
MODEL 13
REMARK VINA RESULT:      -3.4      4.580      5.288
REMARK  3 active torsions:
REMARK  status: ('A' for Active; 'I' for Inactive)
REMARK    1  A    between atoms: C_2  and  C_3 
REMARK    2  A    between atoms: C_3  and  C_4 
REMARK    3  A    between atoms: C_4  and  C_5 
ROOT
HETATM    1  C   LIG     1      15.987  35.154  20.127  1.00  0.00     0.001 C 
ENDROOT
BRANCH   1   2
HETATM    2  C   LIG     1      15.384  33.891  20.762  1.00  0.00    -0.005 C 
HETATM    3  C   LIG     1      15.439  32.678  19.832  1.00  0.00     0.005 C 
ENDBRANCH   1   2
BRANCH   1   4
HETATM    4  C   LIG     1      17.089  35.783  20.996  1.00  0.00     0.015 C 
BRANCH   4   5
HETATM    5  C   LIG     1      16.563  36.203  22.370  1.00  0.00     0.114 C 
HETATM    6 CL   LIG     1      17.142  35.106  23.653  1.00  0.00    -0.130 Cl
ENDBRANCH   4   5
ENDBRANCH   1   4
TORSDOF 3
ENDMDL
MODEL 14
REMARK VINA RESULT:      -3.4      9.732     10.617
REMARK  3 active torsions:
REMARK  status: ('A' for Active; 'I' for Inactive)
REMARK    1  A    between atoms: C_2  and  C_3 
REMARK    2  A    between atoms: C_3  and  C_4 
REMARK    3  A    between atoms: C_4  and  C_5 
ROOT
HETATM    1  C   LIG     1      13.126  31.778  16.811  1.00  0.00     0.001 C 
ENDROOT
BRANCH   1   2
HETATM    2  C   LIG     1      13.059  30.617  15.806  1.00  0.00    -0.005 C 
HETATM    3  C   LIG     1      14.363  30.432  15.029  1.00  0.00     0.005 C 
ENDBRANCH   1   2
BRANCH   1   4
HETATM    4  C   LIG     1      14.159  31.536  17.924  1.00  0.00     0.015 C 
BRANCH   4   5
HETATM    5  C   LIG     1      15.135  32.706  18.062  1.00  0.00     0.114 C 
HETATM    6 CL   LIG     1      14.826  33.960  16.831  1.00  0.00    -0.130 Cl
ENDBRANCH   4   5
ENDBRANCH   1   4
TORSDOF 3
ENDMDL
MODEL 15
REMARK VINA RESULT:      -3.4      9.222      9.984
REMARK  3 active torsions:
REMARK  status: ('A' for Active; 'I' for Inactive)
REMARK    1  A    between atoms: C_2  and  C_3 
REMARK    2  A    between atoms: C_3  and  C_4 
REMARK    3  A    between atoms: C_4  and  C_5 
ROOT
HETATM    1  C   LIG     1      14.310  32.250  17.659  1.00  0.00     0.001 C 
ENDROOT
BRANCH   1   2
HETATM    2  C   LIG     1      15.198  32.375  18.908  1.00  0.00    -0.005 C 
HETATM    3  C   LIG     1      14.842  31.356  19.991  1.00  0.00     0.005 C 
ENDBRANCH   1   2
BRANCH   1   4
HETATM    4  C   LIG     1      15.124  32.245  16.355  1.00  0.00     0.015 C 
BRANCH   4   5
HETATM    5  C   LIG     1      14.624  31.183  15.373  1.00  0.00     0.114 C 
HETATM    6 CL   LIG     1      13.091  30.456  15.926  1.00  0.00    -0.130 Cl
ENDBRANCH   4   5
ENDBRANCH   1   4
TORSDOF 3
ENDMDL
MODEL 16
REMARK VINA RESULT:      -3.2     12.947     13.802
REMARK  3 active torsions:
REMARK  status: ('A' for Active; 'I' for Inactive)
REMARK    1  A    between atoms: C_2  and  C_3 
REMARK    2  A    between atoms: C_3  and  C_4 
REMARK    3  A    between atoms: C_4  and  C_5 
ROOT
HETATM    1  C   LIG     1      15.343  29.106  13.740  1.00  0.00     0.001 C 
ENDROOT
BRANCH   1   2
HETATM    2  C   LIG     1      15.337  27.576  13.586  1.00  0.00    -0.005 C 
HETATM    3  C   LIG     1      15.852  27.117  12.222  1.00  0.00     0.005 C 
ENDBRANCH   1   2
BRANCH   1   4
HETATM    4  C   LIG     1      14.027  29.645  14.326  1.00  0.00     0.015 C 
BRANCH   4   5
HETATM    5  C   LIG     1      14.272  30.715  15.393  1.00  0.00     0.114 C 
HETATM    6 CL   LIG     1      12.806  31.012  16.365  1.00  0.00    -0.130 Cl
ENDBRANCH   4   5
ENDBRANCH   1   4
TORSDOF 3
ENDMDL
MODEL 17
REMARK VINA RESULT:      -3.2     11.593     12.453
REMARK  3 active torsions:
REMARK  status: ('A' for Active; 'I' for Inactive)
REMARK    1  A    between atoms: C_2  and  C_3 
REMARK    2  A    between atoms: C_3  and  C_4 
REMARK    3  A    between atoms: C_4  and  C_5 
ROOT
HETATM    1  C   LIG     1      15.629  31.395  13.969  1.00  0.00     0.001 C 
ENDROOT
BRANCH   1   2
HETATM    2  C   LIG     1      16.215  32.169  15.160  1.00  0.00    -0.005 C 
HETATM    3  C   LIG     1      17.405  33.045  14.768  1.00  0.00     0.005 C 
ENDBRANCH   1   2
BRANCH   1   4
HETATM    4  C   LIG     1      15.302  29.933  14.319  1.00  0.00     0.015 C 
BRANCH   4   5
HETATM    5  C   LIG     1      13.794  29.682  14.374  1.00  0.00     0.114 C 
HETATM    6 CL   LIG     1      13.044  30.521  15.759  1.00  0.00    -0.130 Cl
ENDBRANCH   4   5
ENDBRANCH   1   4
TORSDOF 3
ENDMDL
MODEL 18
REMARK VINA RESULT:      -3.2      6.353      7.251
REMARK  3 active torsions:
REMARK  status: ('A' for Active; 'I' for Inactive)
REMARK    1  A    between atoms: C_2  and  C_3 
REMARK    2  A    between atoms: C_3  and  C_4 
REMARK    3  A    between atoms: C_4  and  C_5 
ROOT
HETATM    1  C   LIG     1      15.194  32.259  19.982  1.00  0.00     0.001 C 
ENDROOT
BRANCH   1   2
HETATM    2  C   LIG     1      14.617  31.872  18.611  1.00  0.00    -0.005 C 
HETATM    3  C   LIG     1      15.010  32.852  17.505  1.00  0.00     0.005 C 
ENDBRANCH   1   2
BRANCH   1   4
HETATM    4  C   LIG     1      15.623  33.735  20.045  1.00  0.00     0.015 C 
BRANCH   4   5
HETATM    5  C   LIG     1      15.222  34.391  21.368  1.00  0.00     0.114 C 
HETATM    6 CL   LIG     1      16.642  35.042  22.229  1.00  0.00    -0.130 Cl
ENDBRANCH   4   5
ENDBRANCH   1   4
TORSDOF 3
ENDMDL
MODEL 19
REMARK VINA RESULT:      -3.1     11.462     12.185
REMARK  3 active torsions:
REMARK  status: ('A' for Active; 'I' for Inactive)
REMARK    1  A    between atoms: C_2  and  C_3 
REMARK    2  A    between atoms: C_3  and  C_4 
REMARK    3  A    between atoms: C_4  and  C_5 
ROOT
HETATM    1  C   LIG     1      15.364  30.768  14.460  1.00  0.00     0.001 C 
ENDROOT
BRANCH   1   2
HETATM    2  C   LIG     1      14.473  29.549  14.170  1.00  0.00    -0.005 C 
HETATM    3  C   LIG     1      15.275  28.319  13.741  1.00  0.00     0.005 C 
ENDBRANCH   1   2
BRANCH   1   4
HETATM    4  C   LIG     1      14.866  31.588  15.662  1.00  0.00     0.015 C 
BRANCH   4   5
HETATM    5  C   LIG     1      15.755  32.805  15.931  1.00  0.00     0.114 C 
HETATM    6 CL   LIG     1      17.322  32.664  15.089  1.00  0.00    -0.130 Cl
ENDBRANCH   4   5
ENDBRANCH   1   4
TORSDOF 3
ENDMDL
MODEL 20
REMARK VINA RESULT:      -3.0     11.521     12.056
REMARK  3 active torsions:
REMARK  status: ('A' for Active; 'I' for Inactive)
REMARK    1  A    between atoms: C_2  and  C_3 
REMARK    2  A    between atoms: C_3  and  C_4 
REMARK    3  A    between atoms: C_4  and  C_5 
ROOT
HETATM    1  C   LIG     1      15.387  30.890  13.781  1.00  0.00     0.001 C 
ENDROOT
BRANCH   1   2
HETATM    2  C   LIG     1      14.514  29.880  14.542  1.00  0.00    -0.005 C 
HETATM    3  C   LIG     1      13.587  30.547  15.558  1.00  0.00     0.005 C 
ENDBRANCH   1   2
BRANCH   1   4
HETATM    4  C   LIG     1      16.006  31.950  14.708  1.00  0.00     0.015 C 
BRANCH   4   5
HETATM    5  C   LIG     1      17.023  32.827  13.974  1.00  0.00     0.114 C 
HETATM    6 CL   LIG     1      17.409  34.297  14.909  1.00  0.00    -0.130 Cl
ENDBRANCH   4   5
ENDBRANCH   1   4
TORSDOF 3
ENDMDL
