REMARK  4 active torsions:
REMARK  status: ('A' for Active; 'I' for Inactive)
REMARK    1  A    between atoms: C_2  and  C_3 
REMARK    2  A    between atoms: C_3  and  C_4 
REMARK    3  A    between atoms: C_4  and  C_5 
REMARK    4  A    between atoms: C_5  and  C_6 
ROOT
HETATM    1  C   LIG     1      -0.674  -0.468   0.545  1.00  0.00     0.001 C 
ENDROOT
BRANCH   1   2
HETATM    2  C   LIG     1      -1.255   0.697  -0.275  1.00  0.00     0.015 C 
BRANCH   2   3
HETATM    3  C   LIG     1      -2.487   0.276  -1.079  1.00  0.00     0.114 C 
HETATM    4 CL   LIG     1      -3.876  -0.065  -0.011  1.00  0.00    -0.130 Cl
ENDBRANCH   2   3
ENDBRANCH   1   2
BRANCH   1   5
HETATM    5  C   LIG     1       0.622  -0.071   1.283  1.00  0.00    -0.000 C 
BRANCH   5   6
HETATM    6  C   LIG     1       1.901  -0.581   0.599  1.00  0.00    -0.005 C 
HETATM    7  C   LIG     1       2.159   0.078  -0.754  1.00  0.00     0.005 C 
ENDBRANCH   5   6
ENDBRANCH   1   5
TORSDOF 4
