REMARK  0 active torsions:
REMARK  status: ('A' for Active; 'I' for Inactive)
ROOT
HETATM    1  C   LIG     1      -1.222   0.901   0.247  1.00  0.00    -0.023 C 
HETATM    2  C   LIG     1      -0.072   1.564   0.399  1.00  0.00    -0.004 C 
HETATM    3  C   LIG     1       1.241   1.090  -0.089  1.00  0.00    -0.000 C 
HETATM    4  C   LIG     1       1.636  -0.191  -0.155  1.00  0.00    -0.000 C 
HETATM    5  C   LIG     1       0.830  -1.364   0.249  1.00  0.00    -0.004 C 
HETATM    6  C   LIG     1      -0.498  -1.450   0.127  1.00  0.00    -0.023 C 
HETATM    7  C   LIG     1      -1.324  -0.381  -0.516  1.00  0.00     0.053 C 
ENDROOT
TORSDOF 0
