MODEL 1
REMARK VINA RESULT:      -6.0      0.000      0.000
REMARK  0 active torsions:
REMARK  status: ('A' for Active; 'I' for Inactive)
ROOT
HETATM    1  C   LIG     1      18.385  35.499  26.467  1.00  0.00    -0.023 C 
HETATM    2  C   LIG     1      18.493  36.831  26.443  1.00  0.00    -0.004 C 
HETATM    3  C   LIG     1      17.566  37.735  25.728  1.00  0.00    -0.000 C 
HETATM    4  C   LIG     1      16.939  37.460  24.573  1.00  0.00    -0.000 C 
HETATM    5  C   LIG     1      17.061  36.202  23.804  1.00  0.00    -0.004 C 
HETATM    6  C   LIG     1      17.236  34.994  24.348  1.00  0.00    -0.023 C 
HETATM    7  C   LIG     1      17.251  34.766  25.826  1.00  0.00     0.053 C 
ENDROOT
TORSDOF 0
ENDMDL
MODEL 2
REMARK VINA RESULT:      -6.0      0.269      2.275
REMARK  0 active torsions:
REMARK  status: ('A' for Active; 'I' for Inactive)
ROOT
HETATM    1  C   LIG     1      18.054  35.667  26.529  1.00  0.00    -0.023 C 
HETATM    2  C   LIG     1      17.468  34.805  25.692  1.00  0.00    -0.004 C 
HETATM    3  C   LIG     1      17.237  35.058  24.254  1.00  0.00    -0.000 C 
HETATM    4  C   LIG     1      16.963  36.250  23.702  1.00  0.00    -0.000 C 
HETATM    5  C   LIG     1      16.842  37.531  24.432  1.00  0.00    -0.004 C 
HETATM    6  C   LIG     1      17.551  37.855  25.518  1.00  0.00    -0.023 C 
HETATM    7  C   LIG     1      18.622  36.975  26.079  1.00  0.00     0.053 C 
ENDROOT
TORSDOF 0
ENDMDL
MODEL 3
REMARK VINA RESULT:      -5.8      0.368      3.029
REMARK  0 active torsions:
REMARK  status: ('A' for Active; 'I' for Inactive)
ROOT
HETATM    1  C   LIG     1      16.990  36.238  23.677  1.00  0.00    -0.023 C 
HETATM    2  C   LIG     1      17.210  35.038  24.222  1.00  0.00    -0.004 C 
HETATM    3  C   LIG     1      17.435  34.799  25.664  1.00  0.00    -0.000 C 
HETATM    4  C   LIG     1      18.062  35.634  26.507  1.00  0.00    -0.000 C 
HETATM    5  C   LIG     1      18.643  36.947  26.149  1.00  0.00    -0.004 C 
HETATM    6  C   LIG     1      18.141  37.771  25.224  1.00  0.00    -0.023 C 
HETATM    7  C   LIG     1      16.869  37.488  24.490  1.00  0.00     0.053 C 
ENDROOT
TORSDOF 0
ENDMDL
MODEL 4
REMARK VINA RESULT:      -5.5      4.124      5.804
REMARK  0 active torsions:
REMARK  status: ('A' for Active; 'I' for Inactive)
ROOT
HETATM    1  C   LIG     1      19.557  38.110  19.538  1.00  0.00    -0.023 C 
HETATM    2  C   LIG     1      19.130  36.856  19.711  1.00  0.00    -0.004 C 
HETATM    3  C   LIG     1      17.882  36.484  20.413  1.00  0.00    -0.000 C 
HETATM    4  C   LIG     1      17.349  37.133  21.459  1.00  0.00    -0.000 C 
HETATM    5  C   LIG     1      17.911  38.341  22.103  1.00  0.00    -0.004 C 
HETATM    6  C   LIG     1      18.579  39.302  21.458  1.00  0.00    -0.023 C 
HETATM    7  C   LIG     1      18.768  39.303  19.974  1.00  0.00     0.053 C 
ENDROOT
TORSDOF 0
ENDMDL
MODEL 5
REMARK VINA RESULT:      -5.4      0.556      2.300
REMARK  0 active torsions:
REMARK  status: ('A' for Active; 'I' for Inactive)
ROOT
HETATM    1  C   LIG     1      16.651  36.703  23.885  1.00  0.00    -0.023 C 
HETATM    2  C   LIG     1      17.155  37.739  24.560  1.00  0.00    -0.004 C 
HETATM    3  C   LIG     1      18.316  37.662  25.473  1.00  0.00    -0.000 C 
HETATM    4  C   LIG     1      18.636  36.612  26.245  1.00  0.00    -0.000 C 
HETATM    5  C   LIG     1      17.886  35.339  26.325  1.00  0.00    -0.004 C 
HETATM    6  C   LIG     1      17.237  34.776  25.302  1.00  0.00    -0.023 C 
HETATM    7  C   LIG     1      17.264  35.339  23.916  1.00  0.00     0.053 C 
ENDROOT
TORSDOF 0
ENDMDL
MODEL 6
REMARK VINA RESULT:      -5.4      4.073      5.544
REMARK  0 active torsions:
REMARK  status: ('A' for Active; 'I' for Inactive)
ROOT
HETATM    1  C   LIG     1      17.515  38.381  22.058  1.00  0.00    -0.023 C 
HETATM    2  C   LIG     1      17.210  37.199  21.515  1.00  0.00    -0.004 C 
HETATM    3  C   LIG     1      18.072  36.466  20.562  1.00  0.00    -0.000 C 
HETATM    4  C   LIG     1      18.875  37.024  19.643  1.00  0.00    -0.000 C 
HETATM    5  C   LIG     1      19.044  38.476  19.414  1.00  0.00    -0.004 C 
HETATM    6  C   LIG     1      18.987  39.407  20.371  1.00  0.00    -0.023 C 
HETATM    7  C   LIG     1      18.820  39.071  21.819  1.00  0.00     0.053 C 
ENDROOT
TORSDOF 0
ENDMDL
MODEL 7
REMARK VINA RESULT:      -5.3      4.252      5.554
REMARK  0 active torsions:
REMARK  status: ('A' for Active; 'I' for Inactive)
ROOT
HETATM    1  C   LIG     1      19.086  38.237  19.095  1.00  0.00    -0.023 C 
HETATM    2  C   LIG     1      18.861  39.339  19.817  1.00  0.00    -0.004 C 
HETATM    3  C   LIG     1      18.616  39.351  21.275  1.00  0.00    -0.000 C 
HETATM    4  C   LIG     1      17.977  38.398  21.970  1.00  0.00    -0.000 C 
HETATM    5  C   LIG     1      17.399  37.159  21.405  1.00  0.00    -0.004 C 
HETATM    6  C   LIG     1      17.912  36.487  20.370  1.00  0.00    -0.023 C 
HETATM    7  C   LIG     1      19.195  36.876  19.706  1.00  0.00     0.053 C 
ENDROOT
TORSDOF 0
ENDMDL
MODEL 8
REMARK VINA RESULT:      -5.3      4.367      5.603
REMARK  0 active torsions:
REMARK  status: ('A' for Active; 'I' for Inactive)
ROOT
HETATM    1  C   LIG     1      18.009  36.540  20.529  1.00  0.00    -0.023 C 
HETATM    2  C   LIG     1      17.618  37.360  21.509  1.00  0.00    -0.004 C 
HETATM    3  C   LIG     1      17.751  38.832  21.476  1.00  0.00    -0.000 C 
HETATM    4  C   LIG     1      18.746  39.515  20.889  1.00  0.00    -0.000 C 
HETATM    5  C   LIG     1      19.893  38.920  20.168  1.00  0.00    -0.004 C 
HETATM    6  C   LIG     1      19.836  37.792  19.452  1.00  0.00    -0.023 C 
HETATM    7  C   LIG     1      18.565  37.035  19.232  1.00  0.00     0.053 C 
ENDROOT
TORSDOF 0
ENDMDL
MODEL 9
REMARK VINA RESULT:      -5.2      4.214      5.553
REMARK  0 active torsions:
REMARK  status: ('A' for Active; 'I' for Inactive)
ROOT
HETATM    1  C   LIG     1      18.949  39.262  21.436  1.00  0.00    -0.023 C 
HETATM    2  C   LIG     1      19.727  38.990  20.384  1.00  0.00    -0.004 C 
HETATM    3  C   LIG     1      19.344  38.105  19.263  1.00  0.00    -0.000 C 
HETATM    4  C   LIG     1      18.569  37.013  19.357  1.00  0.00    -0.000 C 
HETATM    5  C   LIG     1      17.956  36.495  20.599  1.00  0.00    -0.004 C 
HETATM    6  C   LIG     1      17.527  37.258  21.609  1.00  0.00    -0.023 C 
HETATM    7  C   LIG     1      17.548  38.753  21.561  1.00  0.00     0.053 C 
ENDROOT
TORSDOF 0
ENDMDL
MODEL 10
REMARK VINA RESULT:      -5.0      3.083      4.734
REMARK  0 active torsions:
REMARK  status: ('A' for Active; 'I' for Inactive)
ROOT
HETATM    1  C   LIG     1      16.598  36.252  21.925  1.00  0.00    -0.023 C 
HETATM    2  C   LIG     1      17.170  36.026  20.739  1.00  0.00    -0.004 C 
HETATM    3  C   LIG     1      18.367  36.732  20.236  1.00  0.00    -0.000 C 
HETATM    4  C   LIG     1      18.684  38.012  20.486  1.00  0.00    -0.000 C 
HETATM    5  C   LIG     1      17.893  38.952  21.311  1.00  0.00    -0.004 C 
HETATM    6  C   LIG     1      17.178  38.601  22.384  1.00  0.00    -0.023 C 
HETATM    7  C   LIG     1      17.162  37.208  22.928  1.00  0.00     0.053 C 
ENDROOT
TORSDOF 0
ENDMDL
MODEL 11
REMARK VINA RESULT:      -4.9      3.489      4.625
REMARK  0 active torsions:
REMARK  status: ('A' for Active; 'I' for Inactive)
ROOT
HETATM    1  C   LIG     1      16.964  38.887  22.469  1.00  0.00    -0.023 C 
HETATM    2  C   LIG     1      16.183  37.808  22.574  1.00  0.00    -0.004 C 
HETATM    3  C   LIG     1      16.607  36.430  22.246  1.00  0.00    -0.000 C 
HETATM    4  C   LIG     1      17.470  36.086  21.277  1.00  0.00    -0.000 C 
HETATM    5  C   LIG     1      18.155  37.023  20.360  1.00  0.00    -0.004 C 
HETATM    6  C   LIG     1      18.547  38.257  20.690  1.00  0.00    -0.023 C 
HETATM    7  C   LIG     1      18.404  38.810  22.073  1.00  0.00     0.053 C 
ENDROOT
TORSDOF 0
ENDMDL
MODEL 12
REMARK VINA RESULT:      -4.9      2.874      4.601
REMARK  0 active torsions:
REMARK  status: ('A' for Active; 'I' for Inactive)
ROOT
HETATM    1  C   LIG     1      18.108  38.920  21.666  1.00  0.00    -0.023 C 
HETATM    2  C   LIG     1      18.586  38.056  20.767  1.00  0.00    -0.004 C 
HETATM    3  C   LIG     1      17.938  36.777  20.404  1.00  0.00    -0.000 C 
HETATM    4  C   LIG     1      17.235  35.992  21.236  1.00  0.00    -0.000 C 
HETATM    5  C   LIG     1      16.981  36.262  22.668  1.00  0.00    -0.004 C 
HETATM    6  C   LIG     1      16.820  37.480  23.193  1.00  0.00    -0.023 C 
HETATM    7  C   LIG     1      16.800  38.725  22.363  1.00  0.00     0.053 C 
ENDROOT
TORSDOF 0
ENDMDL
MODEL 13
REMARK VINA RESULT:      -4.9      1.408      3.027
REMARK  0 active torsions:
REMARK  status: ('A' for Active; 'I' for Inactive)
ROOT
HETATM    1  C   LIG     1      16.868  35.382  22.678  1.00  0.00    -0.023 C 
HETATM    2  C   LIG     1      17.283  35.161  23.928  1.00  0.00    -0.004 C 
HETATM    3  C   LIG     1      17.240  36.161  25.016  1.00  0.00    -0.000 C 
HETATM    4  C   LIG     1      17.410  37.485  24.870  1.00  0.00    -0.000 C 
HETATM    5  C   LIG     1      17.671  38.185  23.593  1.00  0.00    -0.004 C 
HETATM    6  C   LIG     1      17.180  37.810  22.408  1.00  0.00    -0.023 C 
HETATM    7  C   LIG     1      16.230  36.665  22.250  1.00  0.00     0.053 C 
ENDROOT
TORSDOF 0
ENDMDL
MODEL 14
REMARK VINA RESULT:      -4.9      1.537      3.370
REMARK  0 active torsions:
REMARK  status: ('A' for Active; 'I' for Inactive)
ROOT
HETATM    1  C   LIG     1      17.490  38.199  23.296  1.00  0.00    -0.023 C 
HETATM    2  C   LIG     1      17.445  37.701  22.057  1.00  0.00    -0.004 C 
HETATM    3  C   LIG     1      16.764  36.443  21.682  1.00  0.00    -0.000 C 
HETATM    4  C   LIG     1      16.661  35.349  22.452  1.00  0.00    -0.000 C 
HETATM    5  C   LIG     1      17.211  35.201  23.818  1.00  0.00    -0.004 C 
HETATM    6  C   LIG     1      17.303  36.191  24.710  1.00  0.00    -0.023 C 
HETATM    7  C   LIG     1      16.778  37.568  24.450  1.00  0.00     0.053 C 
ENDROOT
TORSDOF 0
ENDMDL
MODEL 15
REMARK VINA RESULT:      -4.9      3.539      4.466
REMARK  0 active torsions:
REMARK  status: ('A' for Active; 'I' for Inactive)
ROOT
HETATM    1  C   LIG     1      17.542  38.611  22.842  1.00  0.00    -0.023 C 
HETATM    2  C   LIG     1      18.560  39.094  22.124  1.00  0.00    -0.004 C 
HETATM    3  C   LIG     1      18.799  38.790  20.697  1.00  0.00    -0.000 C 
HETATM    4  C   LIG     1      18.524  37.627  20.087  1.00  0.00    -0.000 C 
HETATM    5  C   LIG     1      17.930  36.435  20.731  1.00  0.00    -0.004 C 
HETATM    6  C   LIG     1      17.037  36.475  21.724  1.00  0.00    -0.023 C 
HETATM    7  C   LIG     1      16.468  37.755  22.251  1.00  0.00     0.053 C 
ENDROOT
TORSDOF 0
ENDMDL
MODEL 16
REMARK VINA RESULT:      -4.8     10.816     12.245
REMARK  0 active torsions:
REMARK  status: ('A' for Active; 'I' for Inactive)
ROOT
HETATM    1  C   LIG     1      15.423  30.691  13.624  1.00  0.00    -0.023 C 
HETATM    2  C   LIG     1      15.634  31.774  14.378  1.00  0.00    -0.004 C 
HETATM    3  C   LIG     1      15.217  31.908  15.790  1.00  0.00    -0.000 C 
HETATM    4  C   LIG     1      14.116  31.368  16.336  1.00  0.00    -0.000 C 
HETATM    5  C   LIG     1      13.117  30.541  15.624  1.00  0.00    -0.004 C 
HETATM    6  C   LIG     1      13.402  29.701  14.624  1.00  0.00    -0.023 C 
HETATM    7  C   LIG     1      14.799  29.441  14.157  1.00  0.00     0.053 C 
ENDROOT
TORSDOF 0
ENDMDL
MODEL 17
REMARK VINA RESULT:      -4.8      3.112      4.370
REMARK  0 active torsions:
REMARK  status: ('A' for Active; 'I' for Inactive)
ROOT
HETATM    1  C   LIG     1      17.087  35.668  21.759  1.00  0.00    -0.023 C 
HETATM    2  C   LIG     1      16.984  36.587  22.723  1.00  0.00    -0.004 C 
HETATM    3  C   LIG     1      17.026  38.048  22.498  1.00  0.00    -0.000 C 
HETATM    4  C   LIG     1      17.749  38.675  21.557  1.00  0.00    -0.000 C 
HETATM    5  C   LIG     1      18.638  38.019  20.572  1.00  0.00    -0.004 C 
HETATM    6  C   LIG     1      18.415  36.817  20.032  1.00  0.00    -0.023 C 
HETATM    7  C   LIG     1      17.179  36.021  20.309  1.00  0.00     0.053 C 
ENDROOT
TORSDOF 0
ENDMDL
MODEL 18
REMARK VINA RESULT:      -4.8      1.778      3.420
REMARK  0 active torsions:
REMARK  status: ('A' for Active; 'I' for Inactive)
ROOT
HETATM    1  C   LIG     1      16.849  38.188  22.776  1.00  0.00    -0.023 C 
HETATM    2  C   LIG     1      16.736  37.681  24.006  1.00  0.00    -0.004 C 
HETATM    3  C   LIG     1      17.172  36.323  24.398  1.00  0.00    -0.000 C 
HETATM    4  C   LIG     1      17.134  35.233  23.616  1.00  0.00    -0.000 C 
HETATM    5  C   LIG     1      16.650  35.190  22.218  1.00  0.00    -0.004 C 
HETATM    6  C   LIG     1      16.780  36.189  21.340  1.00  0.00    -0.023 C 
HETATM    7  C   LIG     1      17.512  37.455  21.654  1.00  0.00     0.053 C 
ENDROOT
TORSDOF 0
ENDMDL
MODEL 19
REMARK VINA RESULT:      -4.7      9.886     11.491
REMARK  0 active torsions:
REMARK  status: ('A' for Active; 'I' for Inactive)
ROOT
HETATM    1  C   LIG     1      13.045  31.297  16.599  1.00  0.00    -0.023 C 
HETATM    2  C   LIG     1      13.042  30.531  15.504  1.00  0.00    -0.004 C 
HETATM    3  C   LIG     1      14.256  30.098  14.780  1.00  0.00    -0.000 C 
HETATM    4  C   LIG     1      15.386  30.810  14.648  1.00  0.00    -0.000 C 
HETATM    5  C   LIG     1      15.623  32.161  15.204  1.00  0.00    -0.004 C 
HETATM    6  C   LIG     1      15.117  32.606  16.358  1.00  0.00    -0.023 C 
HETATM    7  C   LIG     1      14.304  31.745  17.272  1.00  0.00     0.053 C 
ENDROOT
TORSDOF 0
ENDMDL
MODEL 20
REMARK VINA RESULT:      -4.7     12.064     12.559
REMARK  0 active torsions:
REMARK  status: ('A' for Active; 'I' for Inactive)
ROOT
HETATM    1  C   LIG     1      15.355  44.084  34.860  1.00  0.00    -0.023 C 
HETATM    2  C   LIG     1      16.608  43.690  34.612  1.00  0.00    -0.004 C 
HETATM    3  C   LIG     1      17.670  44.564  34.068  1.00  0.00    -0.000 C 
HETATM    4  C   LIG     1      17.489  45.566  33.195  1.00  0.00    -0.000 C 
HETATM    5  C   LIG     1      16.192  45.981  32.615  1.00  0.00    -0.004 C 
HETATM    6  C   LIG     1      15.021  45.923  33.256  1.00  0.00    -0.023 C 
HETATM    7  C   LIG     1      14.900  45.498  34.685  1.00  0.00     0.053 C 
ENDROOT
TORSDOF 0
ENDMDL
