MODEL 1
REMARK VINA RESULT:      -6.6      0.000      0.000
REMARK  13 active torsions:
REMARK  status: ('A' for Active; 'I' for Inactive)
REMARK    1  A    between atoms: C_2  and  C_4 
REMARK    2  A    between atoms: C_2  and  O_3 
REMARK    3  A    between atoms: C_4  and  C_5 
REMARK    4  A    between atoms: C_5  and  C_6 
REMARK    5  A    between atoms: C_6  and  C_7 
REMARK    6  A    between atoms: C_7  and  C_8 
REMARK    7  A    between atoms: C_8  and  C_9 
REMARK    8  A    between atoms: C_9  and  C_10 
REMARK    9  A    between atoms: C_10  and  C_11 
REMARK   10  A    between atoms: C_11  and  C_12 
REMARK   11  A    between atoms: C_12  and  C_13 
REMARK   12  A    between atoms: C_13  and  C_14 
REMARK   13  A    between atoms: C_14  and  C_15 
ROOT
HETATM    1  C   LIG     1      18.106  36.074  26.313  1.00  0.00     0.000 C 
ENDROOT
BRANCH   1   2
HETATM    2  C   LIG     1      18.010  34.854  25.388  1.00  0.00     0.000 C 
BRANCH   2   3
HETATM    3  C   LIG     1      16.791  34.964  24.459  1.00  0.00     0.001 C 
BRANCH   3   4
HETATM    4  C   LIG     1      17.178  34.953  22.972  1.00  0.00     0.010 C 
BRANCH   4   5
HETATM    5  C   LIG     1      16.083  35.543  22.073  1.00  0.00     0.110 C 
BRANCH   5   6
HETATM    6  C   LIG     1      15.418  34.459  21.280  1.00  0.00     0.139 C 
HETATM    7  O   LIG     1      16.031  33.911  20.327  1.00  0.00    -0.650 OA
BRANCH   6   8
HETATM    8  O   LIG     1      14.108  34.081  21.559  1.00  0.00    -0.776 OA
HETATM    9  H   LIG     1      13.324  34.544  21.116  1.00  0.00     0.167 HD
ENDBRANCH   6   8
ENDBRANCH   5   6
ENDBRANCH   4   5
ENDBRANCH   3   4
ENDBRANCH   2   3
ENDBRANCH   1   2
BRANCH   1  10
HETATM   10  C   LIG     1      18.508  37.329  25.529  1.00  0.00     0.000 C 
BRANCH  10  11
HETATM   11  C   LIG     1      17.321  38.287  25.376  1.00  0.00     0.000 C 
BRANCH  11  12
HETATM   12  C   LIG     1      17.079  38.632  23.899  1.00  0.00     0.000 C 
BRANCH  12  13
HETATM   13  C   LIG     1      18.381  38.626  23.078  1.00  0.00     0.000 C 
BRANCH  13  14
HETATM   14  C   LIG     1      18.143  38.492  21.558  1.00  0.00     0.000 C 
BRANCH  14  15
HETATM   15  C   LIG     1      19.232  39.165  20.705  1.00  0.00    -0.000 C 
BRANCH  15  16
HETATM   16  C   LIG     1      19.542  38.389  19.418  1.00  0.00    -0.005 C 
HETATM   17  C   LIG     1      19.080  36.939  19.524  1.00  0.00     0.005 C 
ENDBRANCH  15  16
ENDBRANCH  14  15
ENDBRANCH  13  14
ENDBRANCH  12  13
ENDBRANCH  11  12
ENDBRANCH  10  11
ENDBRANCH   1  10
TORSDOF 13
ENDMDL
MODEL 2
REMARK VINA RESULT:      -6.6      3.016      5.855
REMARK  13 active torsions:
REMARK  status: ('A' for Active; 'I' for Inactive)
REMARK    1  A    between atoms: C_2  and  C_4 
REMARK    2  A    between atoms: C_2  and  O_3 
REMARK    3  A    between atoms: C_4  and  C_5 
REMARK    4  A    between atoms: C_5  and  C_6 
REMARK    5  A    between atoms: C_6  and  C_7 
REMARK    6  A    between atoms: C_7  and  C_8 
REMARK    7  A    between atoms: C_8  and  C_9 
REMARK    8  A    between atoms: C_9  and  C_10 
REMARK    9  A    between atoms: C_10  and  C_11 
REMARK   10  A    between atoms: C_11  and  C_12 
REMARK   11  A    between atoms: C_12  and  C_13 
REMARK   12  A    between atoms: C_13  and  C_14 
REMARK   13  A    between atoms: C_14  and  C_15 
ROOT
HETATM    1  C   LIG     1      17.411  36.226  20.361  1.00  0.00     0.000 C 
ENDROOT
BRANCH   1   2
HETATM    2  C   LIG     1      18.716  36.875  19.884  1.00  0.00     0.000 C 
BRANCH   2   3
HETATM    3  C   LIG     1      18.885  38.277  20.488  1.00  0.00     0.001 C 
BRANCH   3   4
HETATM    4  C   LIG     1      18.816  39.390  19.430  1.00  0.00     0.010 C 
BRANCH   4   5
HETATM    5  C   LIG     1      19.273  38.917  18.044  1.00  0.00     0.110 C 
BRANCH   5   6
HETATM    6  C   LIG     1      18.535  39.655  16.970  1.00  0.00     0.139 C 
HETATM    7  O   LIG     1      18.310  39.098  15.864  1.00  0.00    -0.650 OA
BRANCH   6   8
HETATM    8  O   LIG     1      18.133  40.973  17.165  1.00  0.00    -0.776 OA
HETATM    9  H   LIG     1      17.759  41.525  16.403  1.00  0.00     0.167 HD
ENDBRANCH   6   8
ENDBRANCH   5   6
ENDBRANCH   4   5
ENDBRANCH   3   4
ENDBRANCH   2   3
ENDBRANCH   1   2
BRANCH   1  10
HETATM   10  C   LIG     1      17.442  35.975  21.873  1.00  0.00     0.000 C 
BRANCH  10  11
HETATM   11  C   LIG     1      16.118  36.385  22.528  1.00  0.00     0.000 C 
BRANCH  11  12
HETATM   12  C   LIG     1      16.125  37.876  22.896  1.00  0.00     0.000 C 
BRANCH  12  13
HETATM   13  C   LIG     1      17.350  38.261  23.746  1.00  0.00     0.000 C 
BRANCH  13  14
HETATM   14  C   LIG     1      17.226  37.830  25.224  1.00  0.00     0.000 C 
BRANCH  14  15
HETATM   15  C   LIG     1      18.495  37.158  25.775  1.00  0.00    -0.000 C 
BRANCH  15  16
HETATM   16  C   LIG     1      18.192  35.888  26.581  1.00  0.00    -0.005 C 
HETATM   17  C   LIG     1      17.452  34.859  25.731  1.00  0.00     0.005 C 
ENDBRANCH  15  16
ENDBRANCH  14  15
ENDBRANCH  13  14
ENDBRANCH  12  13
ENDBRANCH  11  12
ENDBRANCH  10  11
ENDBRANCH   1  10
TORSDOF 13
ENDMDL
MODEL 3
REMARK VINA RESULT:      -6.6      1.807      4.407
REMARK  13 active torsions:
REMARK  status: ('A' for Active; 'I' for Inactive)
REMARK    1  A    between atoms: C_2  and  C_4 
REMARK    2  A    between atoms: C_2  and  O_3 
REMARK    3  A    between atoms: C_4  and  C_5 
REMARK    4  A    between atoms: C_5  and  C_6 
REMARK    5  A    between atoms: C_6  and  C_7 
REMARK    6  A    between atoms: C_7  and  C_8 
REMARK    7  A    between atoms: C_8  and  C_9 
REMARK    8  A    between atoms: C_9  and  C_10 
REMARK    9  A    between atoms: C_10  and  C_11 
REMARK   10  A    between atoms: C_11  and  C_12 
REMARK   11  A    between atoms: C_12  and  C_13 
REMARK   12  A    between atoms: C_13  and  C_14 
REMARK   13  A    between atoms: C_14  and  C_15 
ROOT
HETATM    1  C   LIG     1      17.398  36.223  21.015  1.00  0.00     0.000 C 
ENDROOT
BRANCH   1   2
HETATM    2  C   LIG     1      16.716  35.385  22.104  1.00  0.00     0.000 C 
BRANCH   2   3
HETATM    3  C   LIG     1      15.483  34.658  21.545  1.00  0.00     0.001 C 
BRANCH   3   4
HETATM    4  C   LIG     1      15.688  34.167  20.104  1.00  0.00     0.010 C 
BRANCH   4   5
HETATM    5  C   LIG     1      15.508  32.650  19.965  1.00  0.00     0.110 C 
BRANCH   5   6
HETATM    6  C   LIG     1      14.985  32.308  18.603  1.00  0.00     0.139 C 
HETATM    7  O   LIG     1      15.509  32.823  17.581  1.00  0.00    -0.650 OA
BRANCH   6   8
HETATM    8  O   LIG     1      13.892  31.458  18.457  1.00  0.00    -0.776 OA
HETATM    9  H   LIG     1      13.835  30.808  17.683  1.00  0.00     0.167 HD
ENDBRANCH   6   8
ENDBRANCH   5   6
ENDBRANCH   4   5
ENDBRANCH   3   4
ENDBRANCH   2   3
ENDBRANCH   1   2
BRANCH   1  10
HETATM   10  C   LIG     1      17.642  37.658  21.497  1.00  0.00     0.000 C 
BRANCH  10  11
HETATM   11  C   LIG     1      16.618  38.063  22.564  1.00  0.00     0.000 C 
BRANCH  11  12
HETATM   12  C   LIG     1      17.288  38.854  23.697  1.00  0.00     0.000 C 
BRANCH  12  13
HETATM   13  C   LIG     1      17.237  38.105  25.041  1.00  0.00     0.000 C 
BRANCH  13  14
HETATM   14  C   LIG     1      18.540  37.339  25.361  1.00  0.00     0.000 C 
BRANCH  14  15
HETATM   15  C   LIG     1      18.481  36.556  26.683  1.00  0.00    -0.000 C 
BRANCH  15  16
HETATM   16  C   LIG     1      18.396  35.038  26.472  1.00  0.00    -0.005 C 
HETATM   17  C   LIG     1      17.234  34.675  25.552  1.00  0.00     0.005 C 
ENDBRANCH  15  16
ENDBRANCH  14  15
ENDBRANCH  13  14
ENDBRANCH  12  13
ENDBRANCH  11  12
ENDBRANCH  10  11
ENDBRANCH   1  10
TORSDOF 13
ENDMDL
MODEL 4
REMARK VINA RESULT:      -6.5      2.712      5.373
REMARK  13 active torsions:
REMARK  status: ('A' for Active; 'I' for Inactive)
REMARK    1  A    between atoms: C_2  and  C_4 
REMARK    2  A    between atoms: C_2  and  O_3 
REMARK    3  A    between atoms: C_4  and  C_5 
REMARK    4  A    between atoms: C_5  and  C_6 
REMARK    5  A    between atoms: C_6  and  C_7 
REMARK    6  A    between atoms: C_7  and  C_8 
REMARK    7  A    between atoms: C_8  and  C_9 
REMARK    8  A    between atoms: C_9  and  C_10 
REMARK    9  A    between atoms: C_10  and  C_11 
REMARK   10  A    between atoms: C_11  and  C_12 
REMARK   11  A    between atoms: C_12  and  C_13 
REMARK   12  A    between atoms: C_13  and  C_14 
REMARK   13  A    between atoms: C_14  and  C_15 
ROOT
HETATM    1  C   LIG     1      15.649  36.131  21.690  1.00  0.00     0.000 C 
ENDROOT
BRANCH   1   2
HETATM    2  C   LIG     1      17.101  35.764  21.361  1.00  0.00     0.000 C 
BRANCH   2   3
HETATM    3  C   LIG     1      17.435  36.103  19.901  1.00  0.00     0.001 C 
BRANCH   3   4
HETATM    4  C   LIG     1      18.864  36.643  19.730  1.00  0.00     0.010 C 
BRANCH   4   5
HETATM    5  C   LIG     1      18.904  37.980  18.978  1.00  0.00     0.110 C 
BRANCH   5   6
HETATM    6  C   LIG     1      19.874  38.917  19.629  1.00  0.00     0.139 C 
HETATM    7  O   LIG     1      19.786  39.157  20.862  1.00  0.00    -0.650 OA
BRANCH   6   8
HETATM    8  O   LIG     1      20.850  39.563  18.875  1.00  0.00    -0.776 OA
HETATM    9  H   LIG     1      21.520  40.186  19.309  1.00  0.00     0.167 HD
ENDBRANCH   6   8
ENDBRANCH   5   6
ENDBRANCH   4   5
ENDBRANCH   3   4
ENDBRANCH   2   3
ENDBRANCH   1   2
BRANCH   1  10
HETATM   10  C   LIG     1      15.584  37.376  22.583  1.00  0.00     0.000 C 
BRANCH  10  11
HETATM   11  C   LIG     1      16.848  38.230  22.431  1.00  0.00     0.000 C 
BRANCH  11  12
HETATM   12  C   LIG     1      17.194  38.940  23.748  1.00  0.00     0.000 C 
BRANCH  12  13
HETATM   13  C   LIG     1      18.211  38.147  24.588  1.00  0.00     0.000 C 
BRANCH  13  14
HETATM   14  C   LIG     1      17.575  37.435  25.803  1.00  0.00     0.000 C 
BRANCH  14  15
HETATM   15  C   LIG     1      18.522  36.439  26.494  1.00  0.00    -0.000 C 
BRANCH  15  16
HETATM   16  C   LIG     1      18.144  34.976  26.227  1.00  0.00    -0.005 C 
HETATM   17  C   LIG     1      17.250  34.855  24.996  1.00  0.00     0.005 C 
ENDBRANCH  15  16
ENDBRANCH  14  15
ENDBRANCH  13  14
ENDBRANCH  12  13
ENDBRANCH  11  12
ENDBRANCH  10  11
ENDBRANCH   1  10
TORSDOF 13
ENDMDL
MODEL 5
REMARK VINA RESULT:      -6.2      2.724      5.103
REMARK  13 active torsions:
REMARK  status: ('A' for Active; 'I' for Inactive)
REMARK    1  A    between atoms: C_2  and  C_4 
REMARK    2  A    between atoms: C_2  and  O_3 
REMARK    3  A    between atoms: C_4  and  C_5 
REMARK    4  A    between atoms: C_5  and  C_6 
REMARK    5  A    between atoms: C_6  and  C_7 
REMARK    6  A    between atoms: C_7  and  C_8 
REMARK    7  A    between atoms: C_8  and  C_9 
REMARK    8  A    between atoms: C_9  and  C_10 
REMARK    9  A    between atoms: C_10  and  C_11 
REMARK   10  A    between atoms: C_11  and  C_12 
REMARK   11  A    between atoms: C_12  and  C_13 
REMARK   12  A    between atoms: C_13  and  C_14 
REMARK   13  A    between atoms: C_14  and  C_15 
ROOT
HETATM    1  C   LIG     1      15.296  35.274  21.081  1.00  0.00     0.000 C 
ENDROOT
BRANCH   1   2
HETATM    2  C   LIG     1      15.839  34.152  20.188  1.00  0.00     0.000 C 
BRANCH   2   3
HETATM    3  C   LIG     1      15.058  32.848  20.408  1.00  0.00     0.001 C 
BRANCH   3   4
HETATM    4  C   LIG     1      15.155  31.890  19.210  1.00  0.00     0.010 C 
BRANCH   4   5
HETATM    5  C   LIG     1      15.001  32.610  17.864  1.00  0.00     0.110 C 
BRANCH   5   6
HETATM    6  C   LIG     1      13.964  31.930  17.023  1.00  0.00     0.139 C 
HETATM    7  O   LIG     1      14.314  31.229  16.038  1.00  0.00    -0.650 OA
BRANCH   6   8
HETATM    8  O   LIG     1      12.610  32.101  17.294  1.00  0.00    -0.776 OA
HETATM    9  H   LIG     1      12.161  31.604  18.053  1.00  0.00     0.167 HD
ENDBRANCH   6   8
ENDBRANCH   5   6
ENDBRANCH   4   5
ENDBRANCH   3   4
ENDBRANCH   2   3
ENDBRANCH   1   2
BRANCH   1  10
HETATM   10  C   LIG     1      16.270  35.588  22.224  1.00  0.00     0.000 C 
BRANCH  10  11
HETATM   11  C   LIG     1      17.148  36.798  21.883  1.00  0.00     0.000 C 
BRANCH  11  12
HETATM   12  C   LIG     1      16.800  37.998  22.777  1.00  0.00     0.000 C 
BRANCH  12  13
HETATM   13  C   LIG     1      17.805  38.176  23.930  1.00  0.00     0.000 C 
BRANCH  13  14
HETATM   14  C   LIG     1      17.357  37.491  25.240  1.00  0.00     0.000 C 
BRANCH  14  15
HETATM   15  C   LIG     1      18.527  36.945  26.077  1.00  0.00    -0.000 C 
BRANCH  15  16
HETATM   16  C   LIG     1      18.370  35.458  26.418  1.00  0.00    -0.005 C 
HETATM   17  C   LIG     1      17.227  34.829  25.626  1.00  0.00     0.005 C 
ENDBRANCH  15  16
ENDBRANCH  14  15
ENDBRANCH  13  14
ENDBRANCH  12  13
ENDBRANCH  11  12
ENDBRANCH  10  11
ENDBRANCH   1  10
TORSDOF 13
ENDMDL
MODEL 6
REMARK VINA RESULT:      -6.0      2.644      4.039
REMARK  13 active torsions:
REMARK  status: ('A' for Active; 'I' for Inactive)
REMARK    1  A    between atoms: C_2  and  C_4 
REMARK    2  A    between atoms: C_2  and  O_3 
REMARK    3  A    between atoms: C_4  and  C_5 
REMARK    4  A    between atoms: C_5  and  C_6 
REMARK    5  A    between atoms: C_6  and  C_7 
REMARK    6  A    between atoms: C_7  and  C_8 
REMARK    7  A    between atoms: C_8  and  C_9 
REMARK    8  A    between atoms: C_9  and  C_10 
REMARK    9  A    between atoms: C_10  and  C_11 
REMARK   10  A    between atoms: C_11  and  C_12 
REMARK   11  A    between atoms: C_12  and  C_13 
REMARK   12  A    between atoms: C_13  and  C_14 
REMARK   13  A    between atoms: C_14  and  C_15 
ROOT
HETATM    1  C   LIG     1      15.853  35.741  20.655  1.00  0.00     0.000 C 
ENDROOT
BRANCH   1   2
HETATM    2  C   LIG     1      15.683  34.616  19.626  1.00  0.00     0.000 C 
BRANCH   2   3
HETATM    3  C   LIG     1      15.643  33.244  20.315  1.00  0.00     0.001 C 
BRANCH   3   4
HETATM    4  C   LIG     1      15.375  32.095  19.330  1.00  0.00     0.010 C 
BRANCH   4   5
HETATM    5  C   LIG     1      15.024  32.594  17.922  1.00  0.00     0.110 C 
BRANCH   5   6
HETATM    6  C   LIG     1      13.772  31.934  17.431  1.00  0.00     0.139 C 
HETATM    7  O   LIG     1      13.688  30.678  17.414  1.00  0.00    -0.650 OA
BRANCH   6   8
HETATM    8  O   LIG     1      12.712  32.697  16.949  1.00  0.00    -0.776 OA
HETATM    9  H   LIG     1      12.528  33.625  17.311  1.00  0.00     0.167 HD
ENDBRANCH   6   8
ENDBRANCH   5   6
ENDBRANCH   4   5
ENDBRANCH   3   4
ENDBRANCH   2   3
ENDBRANCH   1   2
BRANCH   1  10
HETATM   10  C   LIG     1      16.351  35.190  21.997  1.00  0.00     0.000 C 
BRANCH  10  11
HETATM   11  C   LIG     1      17.015  36.290  22.833  1.00  0.00     0.000 C 
BRANCH  11  12
HETATM   12  C   LIG     1      16.400  37.663  22.522  1.00  0.00     0.000 C 
BRANCH  12  13
HETATM   13  C   LIG     1      17.297  38.823  22.992  1.00  0.00     0.000 C 
BRANCH  13  14
HETATM   14  C   LIG     1      18.610  38.942  22.188  1.00  0.00     0.000 C 
BRANCH  14  15
HETATM   15  C   LIG     1      18.391  39.085  20.672  1.00  0.00    -0.000 C 
BRANCH  15  16
HETATM   16  C   LIG     1      19.479  38.387  19.846  1.00  0.00    -0.005 C 
HETATM   17  C   LIG     1      19.102  36.939  19.548  1.00  0.00     0.005 C 
ENDBRANCH  15  16
ENDBRANCH  14  15
ENDBRANCH  13  14
ENDBRANCH  12  13
ENDBRANCH  11  12
ENDBRANCH  10  11
ENDBRANCH   1  10
TORSDOF 13
ENDMDL
MODEL 7
REMARK VINA RESULT:      -5.9      4.802      7.780
REMARK  13 active torsions:
REMARK  status: ('A' for Active; 'I' for Inactive)
REMARK    1  A    between atoms: C_2  and  C_4 
REMARK    2  A    between atoms: C_2  and  O_3 
REMARK    3  A    between atoms: C_4  and  C_5 
REMARK    4  A    between atoms: C_5  and  C_6 
REMARK    5  A    between atoms: C_6  and  C_7 
REMARK    6  A    between atoms: C_7  and  C_8 
REMARK    7  A    between atoms: C_8  and  C_9 
REMARK    8  A    between atoms: C_9  and  C_10 
REMARK    9  A    between atoms: C_10  and  C_11 
REMARK   10  A    between atoms: C_11  and  C_12 
REMARK   11  A    between atoms: C_12  and  C_13 
REMARK   12  A    between atoms: C_13  and  C_14 
REMARK   13  A    between atoms: C_14  and  C_15 
ROOT
HETATM    1  C   LIG     1      15.650  34.466  20.224  1.00  0.00     0.000 C 
ENDROOT
BRANCH   1   2
HETATM    2  C   LIG     1      15.711  34.684  21.741  1.00  0.00     0.000 C 
BRANCH   2   3
HETATM    3  C   LIG     1      17.018  35.385  22.143  1.00  0.00     0.001 C 
BRANCH   3   4
HETATM    4  C   LIG     1      17.176  36.764  21.483  1.00  0.00     0.010 C 
BRANCH   4   5
HETATM    5  C   LIG     1      17.385  37.888  22.506  1.00  0.00     0.110 C 
BRANCH   5   6
HETATM    6  C   LIG     1      16.231  37.948  23.460  1.00  0.00     0.139 C 
HETATM    7  O   LIG     1      16.433  37.844  24.699  1.00  0.00    -0.650 OA
BRANCH   6   8
HETATM    8  O   LIG     1      14.928  38.073  22.988  1.00  0.00    -0.776 OA
HETATM    9  H   LIG     1      14.710  38.682  22.208  1.00  0.00     0.167 HD
ENDBRANCH   6   8
ENDBRANCH   5   6
ENDBRANCH   4   5
ENDBRANCH   3   4
ENDBRANCH   2   3
ENDBRANCH   1   2
BRANCH   1  10
HETATM   10  C   LIG     1      15.456  32.983  19.888  1.00  0.00     0.000 C 
BRANCH  10  11
HETATM   11  C   LIG     1      15.257  32.780  18.382  1.00  0.00     0.000 C 
BRANCH  11  12
HETATM   12  C   LIG     1      14.274  31.633  18.106  1.00  0.00     0.000 C 
BRANCH  12  13
HETATM   13  C   LIG     1      13.554  31.795  16.755  1.00  0.00     0.000 C 
BRANCH  13  14
HETATM   14  C   LIG     1      12.916  30.484  16.243  1.00  0.00     0.000 C 
BRANCH  14  15
HETATM   15  C   LIG     1      13.301  30.141  14.794  1.00  0.00    -0.000 C 
BRANCH  15  16
HETATM   16  C   LIG     1      14.801  29.866  14.627  1.00  0.00    -0.005 C 
HETATM   17  C   LIG     1      15.474  30.963  13.807  1.00  0.00     0.005 C 
ENDBRANCH  15  16
ENDBRANCH  14  15
ENDBRANCH  13  14
ENDBRANCH  12  13
ENDBRANCH  11  12
ENDBRANCH  10  11
ENDBRANCH   1  10
TORSDOF 13
ENDMDL
MODEL 8
REMARK VINA RESULT:      -5.8      5.345      8.261
REMARK  13 active torsions:
REMARK  status: ('A' for Active; 'I' for Inactive)
REMARK    1  A    between atoms: C_2  and  C_4 
REMARK    2  A    between atoms: C_2  and  O_3 
REMARK    3  A    between atoms: C_4  and  C_5 
REMARK    4  A    between atoms: C_5  and  C_6 
REMARK    5  A    between atoms: C_6  and  C_7 
REMARK    6  A    between atoms: C_7  and  C_8 
REMARK    7  A    between atoms: C_8  and  C_9 
REMARK    8  A    between atoms: C_9  and  C_10 
REMARK    9  A    between atoms: C_10  and  C_11 
REMARK   10  A    between atoms: C_11  and  C_12 
REMARK   11  A    between atoms: C_12  and  C_13 
REMARK   12  A    between atoms: C_13  and  C_14 
REMARK   13  A    between atoms: C_14  and  C_15 
ROOT
HETATM    1  C   LIG     1      13.566  32.162  16.901  1.00  0.00     0.000 C 
ENDROOT
BRANCH   1   2
HETATM    2  C   LIG     1      13.354  30.670  16.620  1.00  0.00     0.000 C 
BRANCH   2   3
HETATM    3  C   LIG     1      13.508  30.366  15.122  1.00  0.00     0.001 C 
BRANCH   3   4
HETATM    4  C   LIG     1      14.972  30.143  14.712  1.00  0.00     0.010 C 
BRANCH   4   5
HETATM    5  C   LIG     1      15.346  30.892  13.426  1.00  0.00     0.110 C 
BRANCH   5   6
HETATM    6  C   LIG     1      16.217  32.069  13.742  1.00  0.00     0.139 C 
HETATM    7  O   LIG     1      16.870  32.098  14.819  1.00  0.00    -0.650 OA
BRANCH   6   8
HETATM    8  O   LIG     1      16.279  33.157  12.876  1.00  0.00    -0.776 OA
HETATM    9  H   LIG     1      17.145  33.410  12.415  1.00  0.00     0.167 HD
ENDBRANCH   6   8
ENDBRANCH   5   6
ENDBRANCH   4   5
ENDBRANCH   3   4
ENDBRANCH   2   3
ENDBRANCH   1   2
BRANCH   1  10
HETATM   10  C   LIG     1      14.866  32.397  17.680  1.00  0.00     0.000 C 
BRANCH  10  11
HETATM   11  C   LIG     1      14.760  31.849  19.108  1.00  0.00     0.000 C 
BRANCH  11  12
HETATM   12  C   LIG     1      15.740  32.567  20.047  1.00  0.00     0.000 C 
BRANCH  12  13
HETATM   13  C   LIG     1      15.118  33.820  20.691  1.00  0.00     0.000 C 
BRANCH  13  14
HETATM   14  C   LIG     1      15.745  35.139  20.187  1.00  0.00     0.000 C 
BRANCH  14  15
HETATM   15  C   LIG     1      17.019  35.542  20.949  1.00  0.00    -0.000 C 
BRANCH  15  16
HETATM   16  C   LIG     1      16.722  36.125  22.337  1.00  0.00    -0.005 C 
HETATM   17  C   LIG     1      17.057  35.124  23.438  1.00  0.00     0.005 C 
ENDBRANCH  15  16
ENDBRANCH  14  15
ENDBRANCH  13  14
ENDBRANCH  12  13
ENDBRANCH  11  12
ENDBRANCH  10  11
ENDBRANCH   1  10
TORSDOF 13
ENDMDL
MODEL 9
REMARK VINA RESULT:      -5.4      4.289      6.895
REMARK  13 active torsions:
REMARK  status: ('A' for Active; 'I' for Inactive)
REMARK    1  A    between atoms: C_2  and  C_4 
REMARK    2  A    between atoms: C_2  and  O_3 
REMARK    3  A    between atoms: C_4  and  C_5 
REMARK    4  A    between atoms: C_5  and  C_6 
REMARK    5  A    between atoms: C_6  and  C_7 
REMARK    6  A    between atoms: C_7  and  C_8 
REMARK    7  A    between atoms: C_8  and  C_9 
REMARK    8  A    between atoms: C_9  and  C_10 
REMARK    9  A    between atoms: C_10  and  C_11 
REMARK   10  A    between atoms: C_11  and  C_12 
REMARK   11  A    between atoms: C_12  and  C_13 
REMARK   12  A    between atoms: C_13  and  C_14 
REMARK   13  A    between atoms: C_14  and  C_15 
ROOT
HETATM    1  C   LIG     1      15.035  32.916  17.955  1.00  0.00     0.000 C 
ENDROOT
BRANCH   1   2
HETATM    2  C   LIG     1      14.262  31.948  17.051  1.00  0.00     0.000 C 
BRANCH   2   3
HETATM    3  C   LIG     1      14.998  31.734  15.720  1.00  0.00     0.001 C 
BRANCH   3   4
HETATM    4  C   LIG     1      16.434  32.283  15.743  1.00  0.00     0.010 C 
BRANCH   4   5
HETATM    5  C   LIG     1      16.891  32.800  14.373  1.00  0.00     0.110 C 
BRANCH   5   6
HETATM    6  C   LIG     1      17.454  34.182  14.497  1.00  0.00     0.139 C 
HETATM    7  O   LIG     1      18.313  34.588  13.672  1.00  0.00    -0.650 OA
BRANCH   6   8
HETATM    8  O   LIG     1      17.069  35.012  15.547  1.00  0.00    -0.776 OA
HETATM    9  H   LIG     1      16.493  34.664  16.304  1.00  0.00     0.167 HD
ENDBRANCH   6   8
ENDBRANCH   5   6
ENDBRANCH   4   5
ENDBRANCH   3   4
ENDBRANCH   2   3
ENDBRANCH   1   2
BRANCH   1  10
HETATM   10  C   LIG     1      15.390  32.256  19.293  1.00  0.00     0.000 C 
BRANCH  10  11
HETATM   11  C   LIG     1      15.127  33.208  20.465  1.00  0.00     0.000 C 
BRANCH  11  12
HETATM   12  C   LIG     1      15.865  34.540  20.268  1.00  0.00     0.000 C 
BRANCH  12  13
HETATM   13  C   LIG     1      16.640  34.969  21.527  1.00  0.00     0.000 C 
BRANCH  13  14
HETATM   14  C   LIG     1      17.310  36.354  21.388  1.00  0.00     0.000 C 
BRANCH  14  15
HETATM   15  C   LIG     1      16.615  37.456  22.205  1.00  0.00    -0.000 C 
BRANCH  15  16
HETATM   16  C   LIG     1      17.439  38.748  22.282  1.00  0.00    -0.005 C 
HETATM   17  C   LIG     1      18.350  38.893  21.066  1.00  0.00     0.005 C 
ENDBRANCH  15  16
ENDBRANCH  14  15
ENDBRANCH  13  14
ENDBRANCH  12  13
ENDBRANCH  11  12
ENDBRANCH  10  11
ENDBRANCH   1  10
TORSDOF 13
ENDMDL
MODEL 10
REMARK VINA RESULT:      -5.3      4.943      7.740
REMARK  13 active torsions:
REMARK  status: ('A' for Active; 'I' for Inactive)
REMARK    1  A    between atoms: C_2  and  C_4 
REMARK    2  A    between atoms: C_2  and  O_3 
REMARK    3  A    between atoms: C_4  and  C_5 
REMARK    4  A    between atoms: C_5  and  C_6 
REMARK    5  A    between atoms: C_6  and  C_7 
REMARK    6  A    between atoms: C_7  and  C_8 
REMARK    7  A    between atoms: C_8  and  C_9 
REMARK    8  A    between atoms: C_9  and  C_10 
REMARK    9  A    between atoms: C_10  and  C_11 
REMARK   10  A    between atoms: C_11  and  C_12 
REMARK   11  A    between atoms: C_12  and  C_13 
REMARK   12  A    between atoms: C_13  and  C_14 
REMARK   13  A    between atoms: C_14  and  C_15 
ROOT
HETATM    1  C   LIG     1      15.365  32.860  19.810  1.00  0.00     0.000 C 
ENDROOT
BRANCH   1   2
HETATM    2  C   LIG     1      15.973  34.214  20.196  1.00  0.00     0.000 C 
BRANCH   2   3
HETATM    3  C   LIG     1      15.502  34.651  21.591  1.00  0.00     0.001 C 
BRANCH   3   4
HETATM    4  C   LIG     1      16.628  35.279  22.426  1.00  0.00     0.010 C 
BRANCH   4   5
HETATM    5  C   LIG     1      16.772  36.788  22.185  1.00  0.00     0.110 C 
BRANCH   5   6
HETATM    6  C   LIG     1      16.427  37.551  23.427  1.00  0.00     0.139 C 
HETATM    7  O   LIG     1      17.281  37.677  24.344  1.00  0.00    -0.650 OA
BRANCH   6   8
HETATM    8  O   LIG     1      15.154  38.086  23.599  1.00  0.00    -0.776 OA
HETATM    9  H   LIG     1      15.012  39.087  23.667  1.00  0.00     0.167 HD
ENDBRANCH   6   8
ENDBRANCH   5   6
ENDBRANCH   4   5
ENDBRANCH   3   4
ENDBRANCH   2   3
ENDBRANCH   1   2
BRANCH   1  10
HETATM   10  C   LIG     1      15.075  32.794  18.306  1.00  0.00     0.000 C 
BRANCH  10  11
HETATM   11  C   LIG     1      14.201  31.582  17.965  1.00  0.00     0.000 C 
BRANCH  11  12
HETATM   12  C   LIG     1      13.607  31.712  16.555  1.00  0.00     0.000 C 
BRANCH  12  13
HETATM   13  C   LIG     1      13.964  30.512  15.659  1.00  0.00     0.000 C 
BRANCH  13  14
HETATM   14  C   LIG     1      14.902  30.882  14.489  1.00  0.00     0.000 C 
BRANCH  14  15
HETATM   15  C   LIG     1      15.785  32.109  14.775  1.00  0.00    -0.000 C 
BRANCH  15  16
HETATM   16  C   LIG     1      16.604  32.550  13.555  1.00  0.00    -0.005 C 
HETATM   17  C   LIG     1      17.797  33.404  13.972  1.00  0.00     0.005 C 
ENDBRANCH  15  16
ENDBRANCH  14  15
ENDBRANCH  13  14
ENDBRANCH  12  13
ENDBRANCH  11  12
ENDBRANCH  10  11
ENDBRANCH   1  10
TORSDOF 13
ENDMDL
MODEL 11
REMARK VINA RESULT:      -5.1      2.087      3.803
REMARK  13 active torsions:
REMARK  status: ('A' for Active; 'I' for Inactive)
REMARK    1  A    between atoms: C_2  and  C_4 
REMARK    2  A    between atoms: C_2  and  O_3 
REMARK    3  A    between atoms: C_4  and  C_5 
REMARK    4  A    between atoms: C_5  and  C_6 
REMARK    5  A    between atoms: C_6  and  C_7 
REMARK    6  A    between atoms: C_7  and  C_8 
REMARK    7  A    between atoms: C_8  and  C_9 
REMARK    8  A    between atoms: C_9  and  C_10 
REMARK    9  A    between atoms: C_10  and  C_11 
REMARK   10  A    between atoms: C_11  and  C_12 
REMARK   11  A    between atoms: C_12  and  C_13 
REMARK   12  A    between atoms: C_13  and  C_14 
REMARK   13  A    between atoms: C_14  and  C_15 
ROOT
HETATM    1  C   LIG     1      16.698  35.906  22.536  1.00  0.00     0.000 C 
ENDROOT
BRANCH   1   2
HETATM    2  C   LIG     1      16.589  35.457  21.074  1.00  0.00     0.000 C 
BRANCH   2   3
HETATM    3  C   LIG     1      15.737  34.185  20.952  1.00  0.00     0.001 C 
BRANCH   3   4
HETATM    4  C   LIG     1      15.429  33.816  19.493  1.00  0.00     0.010 C 
BRANCH   4   5
HETATM    5  C   LIG     1      15.260  32.305  19.288  1.00  0.00     0.110 C 
BRANCH   5   6
HETATM    6  C   LIG     1      14.388  32.033  18.100  1.00  0.00     0.139 C 
HETATM    7  O   LIG     1      13.934  30.875  17.906  1.00  0.00    -0.650 OA
BRANCH   6   8
HETATM    8  O   LIG     1      14.110  33.040  17.181  1.00  0.00    -0.776 OA
HETATM    9  H   LIG     1      13.156  33.284  16.944  1.00  0.00     0.167 HD
ENDBRANCH   6   8
ENDBRANCH   5   6
ENDBRANCH   4   5
ENDBRANCH   3   4
ENDBRANCH   2   3
ENDBRANCH   1   2
BRANCH   1  10
HETATM   10  C   LIG     1      17.203  34.764  23.427  1.00  0.00     0.000 C 
BRANCH  10  11
HETATM   11  C   LIG     1      16.816  34.995  24.892  1.00  0.00     0.000 C 
BRANCH  11  12
HETATM   12  C   LIG     1      17.986  35.601  25.681  1.00  0.00     0.000 C 
BRANCH  12  13
HETATM   13  C   LIG     1      17.881  37.133  25.794  1.00  0.00     0.000 C 
BRANCH  13  14
HETATM   14  C   LIG     1      18.740  37.881  24.751  1.00  0.00     0.000 C 
BRANCH  14  15
HETATM   15  C   LIG     1      17.909  38.581  23.662  1.00  0.00    -0.000 C 
BRANCH  15  16
HETATM   16  C   LIG     1      18.764  39.069  22.485  1.00  0.00    -0.005 C 
HETATM   17  C   LIG     1      17.957  39.088  21.190  1.00  0.00     0.005 C 
ENDBRANCH  15  16
ENDBRANCH  14  15
ENDBRANCH  13  14
ENDBRANCH  12  13
ENDBRANCH  11  12
ENDBRANCH  10  11
ENDBRANCH   1  10
TORSDOF 13
ENDMDL
MODEL 12
REMARK VINA RESULT:      -5.0      5.892      8.316
REMARK  13 active torsions:
REMARK  status: ('A' for Active; 'I' for Inactive)
REMARK    1  A    between atoms: C_2  and  C_4 
REMARK    2  A    between atoms: C_2  and  O_3 
REMARK    3  A    between atoms: C_4  and  C_5 
REMARK    4  A    between atoms: C_5  and  C_6 
REMARK    5  A    between atoms: C_6  and  C_7 
REMARK    6  A    between atoms: C_7  and  C_8 
REMARK    7  A    between atoms: C_8  and  C_9 
REMARK    8  A    between atoms: C_9  and  C_10 
REMARK    9  A    between atoms: C_10  and  C_11 
REMARK   10  A    between atoms: C_11  and  C_12 
REMARK   11  A    between atoms: C_12  and  C_13 
REMARK   12  A    between atoms: C_13  and  C_14 
REMARK   13  A    between atoms: C_14  and  C_15 
ROOT
HETATM    1  C   LIG     1      14.539  32.496  17.612  1.00  0.00     0.000 C 
ENDROOT
BRANCH   1   2
HETATM    2  C   LIG     1      13.840  31.650  16.540  1.00  0.00     0.000 C 
BRANCH   2   3
HETATM    3  C   LIG     1      14.772  31.398  15.346  1.00  0.00     0.001 C 
BRANCH   3   4
HETATM    4  C   LIG     1      14.335  30.193  14.498  1.00  0.00     0.010 C 
BRANCH   4   5
HETATM    5  C   LIG     1      15.475  29.196  14.256  1.00  0.00     0.110 C 
BRANCH   5   6
HETATM    6  C   LIG     1      14.940  27.918  13.685  1.00  0.00     0.139 C 
HETATM    7  O   LIG     1      15.728  27.077  13.178  1.00  0.00    -0.650 OA
BRANCH   6   8
HETATM    8  O   LIG     1      13.571  27.668  13.670  1.00  0.00    -0.776 OA
HETATM    9  H   LIG     1      13.196  26.785  13.996  1.00  0.00     0.167 HD
ENDBRANCH   6   8
ENDBRANCH   5   6
ENDBRANCH   4   5
ENDBRANCH   3   4
ENDBRANCH   2   3
ENDBRANCH   1   2
BRANCH   1  10
HETATM   10  C   LIG     1      14.779  31.680  18.888  1.00  0.00     0.000 C 
BRANCH  10  11
HETATM   11  C   LIG     1      15.804  32.367  19.798  1.00  0.00     0.000 C 
BRANCH  11  12
HETATM   12  C   LIG     1      15.140  33.462  20.646  1.00  0.00     0.000 C 
BRANCH  12  13
HETATM   13  C   LIG     1      15.748  34.852  20.383  1.00  0.00     0.000 C 
BRANCH  13  14
HETATM   14  C   LIG     1      15.612  35.814  21.583  1.00  0.00     0.000 C 
BRANCH  14  15
HETATM   15  C   LIG     1      16.963  36.261  22.167  1.00  0.00    -0.000 C 
BRANCH  15  16
HETATM   16  C   LIG     1      17.164  37.781  22.104  1.00  0.00    -0.005 C 
HETATM   17  C   LIG     1      15.997  38.518  22.754  1.00  0.00     0.005 C 
ENDBRANCH  15  16
ENDBRANCH  14  15
ENDBRANCH  13  14
ENDBRANCH  12  13
ENDBRANCH  11  12
ENDBRANCH  10  11
ENDBRANCH   1  10
TORSDOF 13
ENDMDL
MODEL 13
REMARK VINA RESULT:      -5.0      5.570      8.549
REMARK  13 active torsions:
REMARK  status: ('A' for Active; 'I' for Inactive)
REMARK    1  A    between atoms: C_2  and  C_4 
REMARK    2  A    between atoms: C_2  and  O_3 
REMARK    3  A    between atoms: C_4  and  C_5 
REMARK    4  A    between atoms: C_5  and  C_6 
REMARK    5  A    between atoms: C_6  and  C_7 
REMARK    6  A    between atoms: C_7  and  C_8 
REMARK    7  A    between atoms: C_8  and  C_9 
REMARK    8  A    between atoms: C_9  and  C_10 
REMARK    9  A    between atoms: C_10  and  C_11 
REMARK   10  A    between atoms: C_11  and  C_12 
REMARK   11  A    between atoms: C_12  and  C_13 
REMARK   12  A    between atoms: C_13  and  C_14 
REMARK   13  A    between atoms: C_14  and  C_15 
ROOT
HETATM    1  C   LIG     1      15.265  33.001  19.412  1.00  0.00     0.000 C 
ENDROOT
BRANCH   1   2
HETATM    2  C   LIG     1      15.841  33.811  20.580  1.00  0.00     0.000 C 
BRANCH   2   3
HETATM    3  C   LIG     1      15.629  35.316  20.362  1.00  0.00     0.001 C 
BRANCH   3   4
HETATM    4  C   LIG     1      15.308  36.064  21.666  1.00  0.00     0.010 C 
BRANCH   4   5
HETATM    5  C   LIG     1      16.565  36.394  22.482  1.00  0.00     0.110 C 
BRANCH   5   6
HETATM    6  C   LIG     1      16.491  37.793  23.014  1.00  0.00     0.139 C 
HETATM    7  O   LIG     1      15.977  38.010  24.142  1.00  0.00    -0.650 OA
BRANCH   6   8
HETATM    8  O   LIG     1      16.945  38.865  22.251  1.00  0.00    -0.776 OA
HETATM    9  H   LIG     1      17.051  39.787  22.656  1.00  0.00     0.167 HD
ENDBRANCH   6   8
ENDBRANCH   5   6
ENDBRANCH   4   5
ENDBRANCH   3   4
ENDBRANCH   2   3
ENDBRANCH   1   2
BRANCH   1  10
HETATM   10  C   LIG     1      15.179  33.854  18.140  1.00  0.00     0.000 C 
BRANCH  10  11
HETATM   11  C   LIG     1      15.010  32.974  16.896  1.00  0.00     0.000 C 
BRANCH  11  12
HETATM   12  C   LIG     1      13.644  32.273  16.900  1.00  0.00     0.000 C 
BRANCH  12  13
HETATM   13  C   LIG     1      13.711  30.862  16.287  1.00  0.00     0.000 C 
BRANCH  13  14
HETATM   14  C   LIG     1      14.412  30.828  14.911  1.00  0.00     0.000 C 
BRANCH  14  15
HETATM   15  C   LIG     1      14.250  29.488  14.174  1.00  0.00    -0.000 C 
BRANCH  15  16
HETATM   16  C   LIG     1      15.534  28.649  14.178  1.00  0.00    -0.005 C 
HETATM   17  C   LIG     1      15.451  27.509  13.167  1.00  0.00     0.005 C 
ENDBRANCH  15  16
ENDBRANCH  14  15
ENDBRANCH  13  14
ENDBRANCH  12  13
ENDBRANCH  11  12
ENDBRANCH  10  11
ENDBRANCH   1  10
TORSDOF 13
ENDMDL
MODEL 14
REMARK VINA RESULT:      -4.9      8.753     11.043
REMARK  13 active torsions:
REMARK  status: ('A' for Active; 'I' for Inactive)
REMARK    1  A    between atoms: C_2  and  C_4 
REMARK    2  A    between atoms: C_2  and  O_3 
REMARK    3  A    between atoms: C_4  and  C_5 
REMARK    4  A    between atoms: C_5  and  C_6 
REMARK    5  A    between atoms: C_6  and  C_7 
REMARK    6  A    between atoms: C_7  and  C_8 
REMARK    7  A    between atoms: C_8  and  C_9 
REMARK    8  A    between atoms: C_9  and  C_10 
REMARK    9  A    between atoms: C_10  and  C_11 
REMARK   10  A    between atoms: C_11  and  C_12 
REMARK   11  A    between atoms: C_12  and  C_13 
REMARK   12  A    between atoms: C_13  and  C_14 
REMARK   13  A    between atoms: C_14  and  C_15 
ROOT
HETATM    1  C   LIG     1      16.248  32.261  15.533  1.00  0.00     0.000 C 
ENDROOT
BRANCH   1   2
HETATM    2  C   LIG     1      17.608  32.867  15.165  1.00  0.00     0.000 C 
BRANCH   2   3
HETATM    3  C   LIG     1      17.449  34.315  14.677  1.00  0.00     0.001 C 
BRANCH   3   4
HETATM    4  C   LIG     1      18.042  34.536  13.277  1.00  0.00     0.010 C 
BRANCH   4   5
HETATM    5  C   LIG     1      19.125  33.507  12.925  1.00  0.00     0.110 C 
BRANCH   5   6
HETATM    6  C   LIG     1      19.097  33.199  11.459  1.00  0.00     0.139 C 
HETATM    7  O   LIG     1      19.440  32.059  11.050  1.00  0.00    -0.650 OA
BRANCH   6   8
HETATM    8  O   LIG     1      18.736  34.177  10.537  1.00  0.00    -0.776 OA
HETATM    9  H   LIG     1      19.018  34.111   9.566  1.00  0.00     0.167 HD
ENDBRANCH   6   8
ENDBRANCH   5   6
ENDBRANCH   4   5
ENDBRANCH   3   4
ENDBRANCH   2   3
ENDBRANCH   1   2
BRANCH   1  10
HETATM   10  C   LIG     1      15.389  33.265  16.311  1.00  0.00     0.000 C 
BRANCH  10  11
HETATM   11  C   LIG     1      14.204  32.568  16.990  1.00  0.00     0.000 C 
BRANCH  11  12
HETATM   12  C   LIG     1      14.178  31.071  16.648  1.00  0.00     0.000 C 
BRANCH  12  13
HETATM   13  C   LIG     1      12.921  30.678  15.850  1.00  0.00     0.000 C 
BRANCH  13  14
HETATM   14  C   LIG     1      13.216  29.698  14.693  1.00  0.00     0.000 C 
BRANCH  14  15
HETATM   15  C   LIG     1      14.528  30.003  13.951  1.00  0.00    -0.000 C 
BRANCH  15  16
HETATM   16  C   LIG     1      15.546  28.858  14.048  1.00  0.00    -0.005 C 
HETATM   17  C   LIG     1      14.946  27.545  13.552  1.00  0.00     0.005 C 
ENDBRANCH  15  16
ENDBRANCH  14  15
ENDBRANCH  13  14
ENDBRANCH  12  13
ENDBRANCH  11  12
ENDBRANCH  10  11
ENDBRANCH   1  10
TORSDOF 13
ENDMDL
MODEL 15
REMARK VINA RESULT:      -4.8      4.833      7.687
REMARK  13 active torsions:
REMARK  status: ('A' for Active; 'I' for Inactive)
REMARK    1  A    between atoms: C_2  and  C_4 
REMARK    2  A    between atoms: C_2  and  O_3 
REMARK    3  A    between atoms: C_4  and  C_5 
REMARK    4  A    between atoms: C_5  and  C_6 
REMARK    5  A    between atoms: C_6  and  C_7 
REMARK    6  A    between atoms: C_7  and  C_8 
REMARK    7  A    between atoms: C_8  and  C_9 
REMARK    8  A    between atoms: C_9  and  C_10 
REMARK    9  A    between atoms: C_10  and  C_11 
REMARK   10  A    between atoms: C_11  and  C_12 
REMARK   11  A    between atoms: C_12  and  C_13 
REMARK   12  A    between atoms: C_13  and  C_14 
REMARK   13  A    between atoms: C_14  and  C_15 
ROOT
HETATM    1  C   LIG     1      15.507  34.214  20.058  1.00  0.00     0.000 C 
ENDROOT
BRANCH   1   2
HETATM    2  C   LIG     1      15.565  35.293  21.147  1.00  0.00     0.000 C 
BRANCH   2   3
HETATM    3  C   LIG     1      16.993  35.446  21.692  1.00  0.00     0.001 C 
BRANCH   3   4
HETATM    4  C   LIG     1      17.106  35.059  23.175  1.00  0.00     0.010 C 
BRANCH   4   5
HETATM    5  C   LIG     1      17.081  36.278  24.107  1.00  0.00     0.110 C 
BRANCH   5   6
HETATM    6  C   LIG     1      17.574  35.902  25.471  1.00  0.00     0.139 C 
HETATM    7  O   LIG     1      18.564  36.499  25.968  1.00  0.00    -0.650 OA
BRANCH   6   8
HETATM    8  O   LIG     1      16.973  34.866  26.180  1.00  0.00    -0.776 OA
HETATM    9  H   LIG     1      17.261  34.642  27.125  1.00  0.00     0.167 HD
ENDBRANCH   6   8
ENDBRANCH   5   6
ENDBRANCH   4   5
ENDBRANCH   3   4
ENDBRANCH   2   3
ENDBRANCH   1   2
BRANCH   1  10
HETATM   10  C   LIG     1      15.818  34.807  18.679  1.00  0.00     0.000 C 
BRANCH  10  11
HETATM   11  C   LIG     1      15.024  34.092  17.579  1.00  0.00     0.000 C 
BRANCH  11  12
HETATM   12  C   LIG     1      15.267  32.576  17.623  1.00  0.00     0.000 C 
BRANCH  12  13
HETATM   13  C   LIG     1      13.973  31.787  17.893  1.00  0.00     0.000 C 
BRANCH  13  14
HETATM   14  C   LIG     1      13.538  30.904  16.702  1.00  0.00     0.000 C 
BRANCH  14  15
HETATM   15  C   LIG     1      14.422  31.077  15.455  1.00  0.00    -0.000 C 
BRANCH  15  16
HETATM   16  C   LIG     1      14.248  29.939  14.441  1.00  0.00    -0.005 C 
HETATM   17  C   LIG     1      15.460  29.832  13.521  1.00  0.00     0.005 C 
ENDBRANCH  15  16
ENDBRANCH  14  15
ENDBRANCH  13  14
ENDBRANCH  12  13
ENDBRANCH  11  12
ENDBRANCH  10  11
ENDBRANCH   1  10
TORSDOF 13
ENDMDL
MODEL 16
REMARK VINA RESULT:      -4.5      6.184      9.437
REMARK  13 active torsions:
REMARK  status: ('A' for Active; 'I' for Inactive)
REMARK    1  A    between atoms: C_2  and  C_4 
REMARK    2  A    between atoms: C_2  and  O_3 
REMARK    3  A    between atoms: C_4  and  C_5 
REMARK    4  A    between atoms: C_5  and  C_6 
REMARK    5  A    between atoms: C_6  and  C_7 
REMARK    6  A    between atoms: C_7  and  C_8 
REMARK    7  A    between atoms: C_8  and  C_9 
REMARK    8  A    between atoms: C_9  and  C_10 
REMARK    9  A    between atoms: C_10  and  C_11 
REMARK   10  A    between atoms: C_11  and  C_12 
REMARK   11  A    between atoms: C_12  and  C_13 
REMARK   12  A    between atoms: C_13  and  C_14 
REMARK   13  A    between atoms: C_14  and  C_15 
ROOT
HETATM    1  C   LIG     1      16.022  32.156  15.710  1.00  0.00     0.000 C 
ENDROOT
BRANCH   1   2
HETATM    2  C   LIG     1      16.538  32.636  14.347  1.00  0.00     0.000 C 
BRANCH   2   3
HETATM    3  C   LIG     1      17.583  33.749  14.517  1.00  0.00     0.001 C 
BRANCH   3   4
HETATM    4  C   LIG     1      18.800  33.562  13.597  1.00  0.00     0.010 C 
BRANCH   4   5
HETATM    5  C   LIG     1      18.484  33.874  12.128  1.00  0.00     0.110 C 
BRANCH   5   6
HETATM    6  C   LIG     1      19.593  33.393  11.242  1.00  0.00     0.139 C 
HETATM    7  O   LIG     1      20.581  34.138  11.011  1.00  0.00    -0.650 OA
BRANCH   6   8
HETATM    8  O   LIG     1      19.520  32.144  10.633  1.00  0.00    -0.776 OA
HETATM    9  H   LIG     1      19.280  32.053   9.653  1.00  0.00     0.167 HD
ENDBRANCH   6   8
ENDBRANCH   5   6
ENDBRANCH   4   5
ENDBRANCH   3   4
ENDBRANCH   2   3
ENDBRANCH   1   2
BRANCH   1  10
HETATM   10  C   LIG     1      15.421  33.318  16.511  1.00  0.00     0.000 C 
BRANCH  10  11
HETATM   11  C   LIG     1      14.146  32.882  17.241  1.00  0.00     0.000 C 
BRANCH  11  12
HETATM   12  C   LIG     1      14.438  31.736  18.221  1.00  0.00     0.000 C 
BRANCH  12  13
HETATM   13  C   LIG     1      15.516  32.111  19.253  1.00  0.00     0.000 C 
BRANCH  13  14
HETATM   14  C   LIG     1      15.034  33.154  20.286  1.00  0.00     0.000 C 
BRANCH  14  15
HETATM   15  C   LIG     1      15.892  34.429  20.317  1.00  0.00    -0.000 C 
BRANCH  15  16
HETATM   16  C   LIG     1      15.719  35.231  21.613  1.00  0.00    -0.005 C 
HETATM   17  C   LIG     1      16.979  35.170  22.471  1.00  0.00     0.005 C 
ENDBRANCH  15  16
ENDBRANCH  14  15
ENDBRANCH  13  14
ENDBRANCH  12  13
ENDBRANCH  11  12
ENDBRANCH  10  11
ENDBRANCH   1  10
TORSDOF 13
ENDMDL
MODEL 17
REMARK VINA RESULT:      -4.4      8.443     10.211
REMARK  13 active torsions:
REMARK  status: ('A' for Active; 'I' for Inactive)
REMARK    1  A    between atoms: C_2  and  C_4 
REMARK    2  A    between atoms: C_2  and  O_3 
REMARK    3  A    between atoms: C_4  and  C_5 
REMARK    4  A    between atoms: C_5  and  C_6 
REMARK    5  A    between atoms: C_6  and  C_7 
REMARK    6  A    between atoms: C_7  and  C_8 
REMARK    7  A    between atoms: C_8  and  C_9 
REMARK    8  A    between atoms: C_9  and  C_10 
REMARK    9  A    between atoms: C_10  and  C_11 
REMARK   10  A    between atoms: C_11  and  C_12 
REMARK   11  A    between atoms: C_12  and  C_13 
REMARK   12  A    between atoms: C_13  and  C_14 
REMARK   13  A    between atoms: C_14  and  C_15 
ROOT
HETATM    1  C   LIG     1      13.639  32.212  16.695  1.00  0.00     0.000 C 
ENDROOT
BRANCH   1   2
HETATM    2  C   LIG     1      13.341  30.723  16.476  1.00  0.00     0.000 C 
BRANCH   2   3
HETATM    3  C   LIG     1      13.605  30.319  15.018  1.00  0.00     0.001 C 
BRANCH   3   4
HETATM    4  C   LIG     1      15.021  29.762  14.805  1.00  0.00     0.010 C 
BRANCH   4   5
HETATM    5  C   LIG     1      15.333  29.489  13.328  1.00  0.00     0.110 C 
BRANCH   5   6
HETATM    6  C   LIG     1      15.352  28.014  13.062  1.00  0.00     0.139 C 
HETATM    7  O   LIG     1      14.999  27.208  13.961  1.00  0.00    -0.650 OA
BRANCH   6   8
HETATM    8  O   LIG     1      15.801  27.522  11.840  1.00  0.00    -0.776 OA
HETATM    9  H   LIG     1      15.182  27.010  11.222  1.00  0.00     0.167 HD
ENDBRANCH   6   8
ENDBRANCH   5   6
ENDBRANCH   4   5
ENDBRANCH   3   4
ENDBRANCH   2   3
ENDBRANCH   1   2
BRANCH   1  10
HETATM   10  C   LIG     1      15.115  32.432  17.049  1.00  0.00     0.000 C 
BRANCH  10  11
HETATM   11  C   LIG     1      15.735  33.527  16.172  1.00  0.00     0.000 C 
BRANCH  11  12
HETATM   12  C   LIG     1      16.731  32.929  15.167  1.00  0.00     0.000 C 
BRANCH  12  13
HETATM   13  C   LIG     1      17.674  33.993  14.578  1.00  0.00     0.000 C 
BRANCH  13  14
HETATM   14  C   LIG     1      17.627  34.062  13.036  1.00  0.00     0.000 C 
BRANCH  14  15
HETATM   15  C   LIG     1      18.846  33.416  12.355  1.00  0.00    -0.000 C 
BRANCH  15  16
HETATM   16  C   LIG     1      20.169  34.087  12.745  1.00  0.00    -0.005 C 
HETATM   17  C   LIG     1      21.030  34.362  11.516  1.00  0.00     0.005 C 
ENDBRANCH  15  16
ENDBRANCH  14  15
ENDBRANCH  13  14
ENDBRANCH  12  13
ENDBRANCH  11  12
ENDBRANCH  10  11
ENDBRANCH   1  10
TORSDOF 13
ENDMDL
MODEL 18
REMARK VINA RESULT:      -3.7     16.158     17.551
REMARK  13 active torsions:
REMARK  status: ('A' for Active; 'I' for Inactive)
REMARK    1  A    between atoms: C_2  and  C_4 
REMARK    2  A    between atoms: C_2  and  O_3 
REMARK    3  A    between atoms: C_4  and  C_5 
REMARK    4  A    between atoms: C_5  and  C_6 
REMARK    5  A    between atoms: C_6  and  C_7 
REMARK    6  A    between atoms: C_7  and  C_8 
REMARK    7  A    between atoms: C_8  and  C_9 
REMARK    8  A    between atoms: C_9  and  C_10 
REMARK    9  A    between atoms: C_10  and  C_11 
REMARK   10  A    between atoms: C_11  and  C_12 
REMARK   11  A    between atoms: C_12  and  C_13 
REMARK   12  A    between atoms: C_13  and  C_14 
REMARK   13  A    between atoms: C_14  and  C_15 
ROOT
HETATM    1  C   LIG     1      29.609  29.313  33.258  1.00  0.00     0.000 C 
ENDROOT
BRANCH   1   2
HETATM    2  C   LIG     1      28.992  30.656  32.847  1.00  0.00     0.000 C 
BRANCH   2   3
HETATM    3  C   LIG     1      27.818  31.025  33.766  1.00  0.00     0.001 C 
BRANCH   3   4
HETATM    4  C   LIG     1      27.677  30.067  34.960  1.00  0.00     0.010 C 
BRANCH   4   5
HETATM    5  C   LIG     1      26.231  29.954  35.459  1.00  0.00     0.110 C 
BRANCH   5   6
HETATM    6  C   LIG     1      26.101  30.559  36.824  1.00  0.00     0.139 C 
HETATM    7  O   LIG     1      26.798  31.559  37.138  1.00  0.00    -0.650 OA
BRANCH   6   8
HETATM    8  O   LIG     1      25.247  29.997  37.769  1.00  0.00    -0.776 OA
HETATM    9  H   LIG     1      24.783  29.113  37.595  1.00  0.00     0.167 HD
ENDBRANCH   6   8
ENDBRANCH   5   6
ENDBRANCH   4   5
ENDBRANCH   3   4
ENDBRANCH   2   3
ENDBRANCH   1   2
BRANCH   1  10
HETATM   10  C   LIG     1      30.071  28.521  32.029  1.00  0.00     0.000 C 
BRANCH  10  11
HETATM   11  C   LIG     1      29.310  28.959  30.772  1.00  0.00     0.000 C 
BRANCH  11  12
HETATM   12  C   LIG     1      28.837  27.742  29.964  1.00  0.00     0.000 C 
BRANCH  12  13
HETATM   13  C   LIG     1      27.337  27.456  30.165  1.00  0.00     0.000 C 
BRANCH  13  14
HETATM   14  C   LIG     1      27.043  26.594  31.413  1.00  0.00     0.000 C 
BRANCH  14  15
HETATM   15  C   LIG     1      26.398  27.383  32.565  1.00  0.00    -0.000 C 
BRANCH  15  16
HETATM   16  C   LIG     1      26.520  26.667  33.917  1.00  0.00    -0.005 C 
HETATM   17  C   LIG     1      27.982  26.437  34.288  1.00  0.00     0.005 C 
ENDBRANCH  15  16
ENDBRANCH  14  15
ENDBRANCH  13  14
ENDBRANCH  12  13
ENDBRANCH  11  12
ENDBRANCH  10  11
ENDBRANCH   1  10
TORSDOF 13
ENDMDL
MODEL 19
REMARK VINA RESULT:      -3.6     14.804     16.018
REMARK  13 active torsions:
REMARK  status: ('A' for Active; 'I' for Inactive)
REMARK    1  A    between atoms: C_2  and  C_4 
REMARK    2  A    between atoms: C_2  and  O_3 
REMARK    3  A    between atoms: C_4  and  C_5 
REMARK    4  A    between atoms: C_5  and  C_6 
REMARK    5  A    between atoms: C_6  and  C_7 
REMARK    6  A    between atoms: C_7  and  C_8 
REMARK    7  A    between atoms: C_8  and  C_9 
REMARK    8  A    between atoms: C_9  and  C_10 
REMARK    9  A    between atoms: C_10  and  C_11 
REMARK   10  A    between atoms: C_11  and  C_12 
REMARK   11  A    between atoms: C_12  and  C_13 
REMARK   12  A    between atoms: C_13  and  C_14 
REMARK   13  A    between atoms: C_14  and  C_15 
ROOT
HETATM    1  C   LIG     1      23.172  21.467  19.896  1.00  0.00     0.000 C 
ENDROOT
BRANCH   1   2
HETATM    2  C   LIG     1      22.432  22.500  20.755  1.00  0.00     0.000 C 
BRANCH   2   3
HETATM    3  C   LIG     1      23.395  23.192  21.731  1.00  0.00     0.001 C 
BRANCH   3   4
HETATM    4  C   LIG     1      24.304  22.199  22.471  1.00  0.00     0.010 C 
BRANCH   4   5
HETATM    5  C   LIG     1      25.718  22.749  22.699  1.00  0.00     0.110 C 
BRANCH   5   6
HETATM    6  C   LIG     1      25.894  23.162  24.129  1.00  0.00     0.139 C 
HETATM    7  O   LIG     1      27.033  23.486  24.554  1.00  0.00    -0.650 OA
BRANCH   6   8
HETATM    8  O   LIG     1      24.814  23.149  25.007  1.00  0.00    -0.776 OA
HETATM    9  H   LIG     1      24.316  22.291  25.212  1.00  0.00     0.167 HD
ENDBRANCH   6   8
ENDBRANCH   5   6
ENDBRANCH   4   5
ENDBRANCH   3   4
ENDBRANCH   2   3
ENDBRANCH   1   2
BRANCH   1  10
HETATM   10  C   LIG     1      23.557  22.059  18.534  1.00  0.00     0.000 C 
BRANCH  10  11
HETATM   11  C   LIG     1      25.050  21.860  18.249  1.00  0.00     0.000 C 
BRANCH  11  12
HETATM   12  C   LIG     1      25.893  22.929  18.960  1.00  0.00     0.000 C 
BRANCH  12  13
HETATM   13  C   LIG     1      25.868  24.278  18.220  1.00  0.00     0.000 C 
BRANCH  13  14
HETATM   14  C   LIG     1      26.190  25.481  19.134  1.00  0.00     0.000 C 
BRANCH  14  15
HETATM   15  C   LIG     1      27.680  25.591  19.501  1.00  0.00    -0.000 C 
BRANCH  15  16
HETATM   16  C   LIG     1      28.546  26.073  18.330  1.00  0.00    -0.005 C 
HETATM   17  C   LIG     1      28.569  27.596  18.252  1.00  0.00     0.005 C 
ENDBRANCH  15  16
ENDBRANCH  14  15
ENDBRANCH  13  14
ENDBRANCH  12  13
ENDBRANCH  11  12
ENDBRANCH  10  11
ENDBRANCH   1  10
TORSDOF 13
ENDMDL
