REMARK  13 active torsions:
REMARK  status: ('A' for Active; 'I' for Inactive)
REMARK    1  A    between atoms: C_2  and  C_4 
REMARK    2  A    between atoms: C_2  and  O_3 
REMARK    3  A    between atoms: C_4  and  C_5 
REMARK    4  A    between atoms: C_5  and  C_6 
REMARK    5  A    between atoms: C_6  and  C_7 
REMARK    6  A    between atoms: C_7  and  C_8 
REMARK    7  A    between atoms: C_8  and  C_9 
REMARK    8  A    between atoms: C_9  and  C_10 
REMARK    9  A    between atoms: C_10  and  C_11 
REMARK   10  A    between atoms: C_11  and  C_12 
REMARK   11  A    between atoms: C_12  and  C_13 
REMARK   12  A    between atoms: C_13  and  C_14 
REMARK   13  A    between atoms: C_14  and  C_15 
ROOT
HETATM    1  C   LIG     1       1.631  -0.068  -0.553  1.00  0.00     0.000 C 
ENDROOT
BRANCH   1   2
HETATM    2  C   LIG     1       2.695   0.105   0.538  1.00  0.00     0.000 C 
BRANCH   2   3
HETATM    3  C   LIG     1       4.063   0.436  -0.077  1.00  0.00     0.001 C 
BRANCH   3   4
HETATM    4  C   LIG     1       5.130   0.745   0.985  1.00  0.00     0.010 C 
BRANCH   4   5
HETATM    5  C   LIG     1       5.569  -0.503   1.762  1.00  0.00     0.110 C 
BRANCH   5   6
HETATM    6  C   LIG     1       6.701  -0.172   2.686  1.00  0.00     0.139 C 
HETATM    7  O   LIG     1       6.465   0.146   3.881  1.00  0.00    -0.650 OA
BRANCH   6   8
HETATM    8  O   LIG     1       8.014  -0.169   2.224  1.00  0.00    -0.776 OA
HETATM    9  H   LIG     1       8.231  -0.400   1.262  1.00  0.00     0.167 HD
ENDBRANCH   6   8
ENDBRANCH   5   6
ENDBRANCH   4   5
ENDBRANCH   3   4
ENDBRANCH   2   3
ENDBRANCH   1   2
BRANCH   1  10
HETATM   10  C   LIG     1       0.266  -0.408   0.058  1.00  0.00     0.000 C 
BRANCH  10  11
HETATM   11  C   LIG     1      -0.798  -0.582  -1.032  1.00  0.00     0.000 C 
BRANCH  11  12
HETATM   12  C   LIG     1      -2.163  -0.927  -0.418  1.00  0.00     0.000 C 
BRANCH  12  13
HETATM   13  C   LIG     1      -3.252  -1.119  -1.489  1.00  0.00     0.000 C 
BRANCH  13  14
HETATM   14  C   LIG     1      -3.794   0.213  -2.053  1.00  0.00     0.000 C 
BRANCH  14  15
HETATM   15  C   LIG     1      -5.165   0.609  -1.479  1.00  0.00    -0.000 C 
BRANCH  15  16
HETATM   16  C   LIG     1      -5.104   0.966   0.012  1.00  0.00    -0.005 C 
HETATM   17  C   LIG     1      -6.448   1.491   0.508  1.00  0.00     0.005 C 
ENDBRANCH  15  16
ENDBRANCH  14  15
ENDBRANCH  13  14
ENDBRANCH  12  13
ENDBRANCH  11  12
ENDBRANCH  10  11
ENDBRANCH   1  10
TORSDOF 13
