REMARK  8 active torsions:
REMARK  status: ('A' for Active; 'I' for Inactive)
REMARK    1  A    between atoms: C_2  and  C_25 
REMARK    2  A    between atoms: C_2  and  C_3 
REMARK    3  A    between atoms: C_9  and  O_24 
REMARK    4  A    between atoms: C_12  and  O_23 
REMARK    5  A    between atoms: C_18  and  O_21 
REMARK    6  A    between atoms: C_25  and  C_26 
REMARK    7  A    between atoms: C_26  and  C_27 
REMARK    8  A    between atoms: C_27  and  O_28 
ROOT
HETATM    1  C   LIG     1       2.794  -0.699   0.568  1.00  0.00     0.000 C 
HETATM    2  C   LIG     1       2.878  -1.850  -0.474  1.00  0.00     0.006 C 
HETATM    3  C   LIG     1       1.453  -2.136  -0.961  1.00  0.00     0.006 C 
HETATM    4  C   LIG     1       0.658  -0.904  -0.545  1.00  0.00     0.001 C 
HETATM    5  C   LIG     1      -0.897  -0.902  -0.672  1.00  0.00    -0.002 C 
HETATM    6  C   LIG     1      -1.566  -2.306  -0.700  1.00  0.00     0.037 C 
HETATM    7  C   LIG     1      -3.126  -2.260  -0.645  1.00  0.00     0.123 C 
HETATM    8  C   LIG     1      -3.654  -0.831  -0.919  1.00  0.00     0.025 C 
HETATM    9  C   LIG     1      -5.171  -0.736  -1.146  1.00  0.00     0.039 C 
HETATM   10  C   LIG     1      -5.520   0.664  -1.711  1.00  0.00     0.118 C 
HETATM   11  C   LIG     1      -4.920   1.827  -0.883  1.00  0.00     0.032 C 
HETATM   12  C   LIG     1      -3.421   1.628  -0.536  1.00  0.00     0.012 C 
HETATM   13  C   LIG     1      -3.128   0.238   0.111  1.00  0.00    -0.034 C 
HETATM   14  C   LIG     1      -1.584  -0.014   0.403  1.00  0.00     0.001 C 
HETATM   15  C   LIG     1      -0.746   1.255   0.754  1.00  0.00     0.038 C 
HETATM   16  C   LIG     1       0.776   1.014   1.058  1.00  0.00     0.127 C 
HETATM   17  C   LIG     1       1.250  -0.456   0.807  1.00  0.00    -0.010 C 
HETATM   18  C   LIG     1       0.799  -1.375   2.002  1.00  0.00     0.018 C 
HETATM   19  C   LIG     1      -3.874   0.184   1.486  1.00  0.00     0.016 C 
ENDROOT
BRANCH   1  20
HETATM   20  C   LIG     1       3.723   0.533   0.238  1.00  0.00    -0.013 C 
HETATM   21  C   LIG     1       3.579   1.110  -1.191  1.00  0.00     0.010 C 
BRANCH  20  22
HETATM   22  C   LIG     1       5.200   0.175   0.560  1.00  0.00     0.015 C 
BRANCH  22  23
HETATM   23  C   LIG     1       6.199   1.317   0.283  1.00  0.00     0.110 C 
BRANCH  23  24
HETATM   24  C   LIG     1       7.566   1.054   0.859  1.00  0.00     0.139 C 
HETATM   25  O   LIG     1       7.785   0.051   1.595  1.00  0.00    -0.650 OA
BRANCH  24  26
HETATM   26  O   LIG     1       8.610   1.936   0.595  1.00  0.00    -0.776 OA
HETATM   27  H   LIG     1       8.474   2.746   0.002  1.00  0.00     0.167 HD
ENDBRANCH  24  26
ENDBRANCH  23  24
ENDBRANCH  22  23
ENDBRANCH  20  22
ENDBRANCH   1  20
BRANCH  16  28
HETATM   28  O   LIG     1       1.088   1.407   2.373  1.00  0.00    -0.395 OA
HETATM   29  H   LIG     1       1.074   2.407   2.384  1.00  0.00     0.210 HD
ENDBRANCH  16  28
BRANCH   7  30
HETATM   30  O   LIG     1      -3.573  -2.704   0.608  1.00  0.00    -0.395 OA
HETATM   31  H   LIG     1      -3.554  -3.695   0.592  1.00  0.00     0.210 HD
ENDBRANCH   7  30
BRANCH  10  32
HETATM   32  O   LIG     1      -6.911   0.814  -1.835  1.00  0.00    -0.396 OA
HETATM   33  H   LIG     1      -7.307   0.740  -0.926  1.00  0.00     0.210 HD
ENDBRANCH  10  32
TORSDOF 8
