MODEL 1
REMARK VINA RESULT:      -5.2      0.000      0.000
REMARK  8 active torsions:
REMARK  status: ('A' for Active; 'I' for Inactive)
REMARK    1  A    between atoms: C_2  and  C_25 
REMARK    2  A    between atoms: C_2  and  C_3 
REMARK    3  A    between atoms: C_9  and  O_24 
REMARK    4  A    between atoms: C_12  and  O_23 
REMARK    5  A    between atoms: C_18  and  O_21 
REMARK    6  A    between atoms: C_25  and  C_26 
REMARK    7  A    between atoms: C_26  and  C_27 
REMARK    8  A    between atoms: C_27  and  O_28 
ROOT
HETATM    1  C   LIG     1      23.807  21.013  21.786  1.00  0.00     0.000 C 
HETATM    2  C   LIG     1      22.703  20.298  22.616  1.00  0.00     0.006 C 
HETATM    3  C   LIG     1      23.060  20.465  24.097  1.00  0.00     0.006 C 
HETATM    4  C   LIG     1      24.076  21.601  24.115  1.00  0.00     0.001 C 
HETATM    5  C   LIG     1      24.850  21.932  25.428  1.00  0.00    -0.002 C 
HETATM    6  C   LIG     1      24.938  20.773  26.461  1.00  0.00     0.037 C 
HETATM    7  C   LIG     1      25.869  21.083  27.676  1.00  0.00     0.123 C 
HETATM    8  C   LIG     1      26.218  22.589  27.744  1.00  0.00     0.025 C 
HETATM    9  C   LIG     1      26.908  23.034  29.044  1.00  0.00     0.039 C 
HETATM   10  C   LIG     1      26.915  24.582  29.119  1.00  0.00     0.118 C 
HETATM   11  C   LIG     1      27.464  25.255  27.837  1.00  0.00     0.032 C 
HETATM   12  C   LIG     1      26.861  24.677  26.530  1.00  0.00     0.012 C 
HETATM   13  C   LIG     1      26.953  23.120  26.457  1.00  0.00    -0.034 C 
HETATM   14  C   LIG     1      26.270  22.504  25.158  1.00  0.00     0.001 C 
HETATM   15  C   LIG     1      26.321  23.397  23.879  1.00  0.00     0.038 C 
HETATM   16  C   LIG     1      25.662  22.790  22.588  1.00  0.00     0.127 C 
HETATM   17  C   LIG     1      24.915  21.437  22.831  1.00  0.00    -0.010 C 
HETATM   18  C   LIG     1      25.955  20.261  22.931  1.00  0.00     0.018 C 
HETATM   19  C   LIG     1      28.468  22.732  26.411  1.00  0.00     0.016 C 
ENDROOT
BRANCH   1  20
HETATM   20  C   LIG     1      23.252  22.090  20.775  1.00  0.00    -0.013 C 
HETATM   21  C   LIG     1      22.011  22.878  21.259  1.00  0.00     0.010 C 
BRANCH  20  22
HETATM   22  C   LIG     1      23.002  21.429  19.392  1.00  0.00     0.015 C 
BRANCH  22  23
HETATM   23  C   LIG     1      23.813  22.055  18.239  1.00  0.00     0.110 C 
BRANCH  23  24
HETATM   24  C   LIG     1      25.247  22.328  18.611  1.00  0.00     0.139 C 
HETATM   25  O   LIG     1      26.063  21.385  18.812  1.00  0.00    -0.650 OA
BRANCH  24  26
HETATM   26  O   LIG     1      25.687  23.641  18.754  1.00  0.00    -0.776 OA
HETATM   27  H   LIG     1      25.467  24.346  18.061  1.00  0.00     0.167 HD
ENDBRANCH  24  26
ENDBRANCH  23  24
ENDBRANCH  22  23
ENDBRANCH  20  22
ENDBRANCH   1  20
BRANCH  16  28
HETATM   28  O   LIG     1      26.619  22.640  21.566  1.00  0.00    -0.395 OA
HETATM   29  H   LIG     1      27.298  21.987  21.903  1.00  0.00     0.210 HD
ENDBRANCH  16  28
BRANCH   7  30
HETATM   30  O   LIG     1      27.045  20.323  27.582  1.00  0.00    -0.395 OA
HETATM   31  H   LIG     1      27.389  20.428  26.659  1.00  0.00     0.210 HD
ENDBRANCH   7  30
BRANCH  10  32
HETATM   32  O   LIG     1      27.628  25.018  30.248  1.00  0.00    -0.396 OA
HETATM   33  H   LIG     1      28.375  24.380  30.401  1.00  0.00     0.210 HD
ENDBRANCH  10  32
TORSDOF 8
ENDMDL
MODEL 2
REMARK VINA RESULT:      -5.0      2.185      8.772
REMARK  8 active torsions:
REMARK  status: ('A' for Active; 'I' for Inactive)
REMARK    1  A    between atoms: C_2  and  C_25 
REMARK    2  A    between atoms: C_2  and  C_3 
REMARK    3  A    between atoms: C_9  and  O_24 
REMARK    4  A    between atoms: C_12  and  O_23 
REMARK    5  A    between atoms: C_18  and  O_21 
REMARK    6  A    between atoms: C_25  and  C_26 
REMARK    7  A    between atoms: C_26  and  C_27 
REMARK    8  A    between atoms: C_27  and  O_28 
ROOT
HETATM    1  C   LIG     1      28.309  25.351  28.314  1.00  0.00     0.000 C 
HETATM    2  C   LIG     1      29.262  26.285  27.517  1.00  0.00     0.006 C 
HETATM    3  C   LIG     1      29.119  25.931  26.032  1.00  0.00     0.006 C 
HETATM    4  C   LIG     1      27.818  25.140  25.957  1.00  0.00     0.001 C 
HETATM    5  C   LIG     1      27.427  24.410  24.635  1.00  0.00    -0.002 C 
HETATM    6  C   LIG     1      28.609  24.087  23.676  1.00  0.00     0.037 C 
HETATM    7  C   LIG     1      28.205  23.200  22.456  1.00  0.00     0.123 C 
HETATM    8  C   LIG     1      26.666  23.133  22.299  1.00  0.00     0.025 C 
HETATM    9  C   LIG     1      26.179  22.506  20.983  1.00  0.00     0.039 C 
HETATM   10  C   LIG     1      24.664  22.781  20.812  1.00  0.00     0.118 C 
HETATM   11  C   LIG     1      23.826  22.395  22.056  1.00  0.00     0.032 C 
HETATM   12  C   LIG     1      24.428  22.912  23.390  1.00  0.00     0.012 C 
HETATM   13  C   LIG     1      25.934  22.538  23.560  1.00  0.00    -0.034 C 
HETATM   14  C   LIG     1      26.589  23.126  24.886  1.00  0.00     0.001 C 
HETATM   15  C   LIG     1      25.628  23.269  26.108  1.00  0.00     0.038 C 
HETATM   16  C   LIG     1      26.269  23.835  27.426  1.00  0.00     0.127 C 
HETATM   17  C   LIG     1      27.749  24.316  27.258  1.00  0.00    -0.010 C 
HETATM   18  C   LIG     1      28.716  23.075  27.244  1.00  0.00     0.018 C 
HETATM   19  C   LIG     1      26.032  20.978  23.647  1.00  0.00     0.016 C 
ENDROOT
BRANCH   1  20
HETATM   20  C   LIG     1      27.295  26.118  29.250  1.00  0.00    -0.013 C 
HETATM   21  C   LIG     1      27.550  27.637  29.402  1.00  0.00     0.010 C 
BRANCH  20  22
HETATM   22  C   LIG     1      27.223  25.412  30.632  1.00  0.00     0.015 C 
BRANCH  22  23
HETATM   23  C   LIG     1      27.723  26.277  31.807  1.00  0.00     0.110 C 
BRANCH  23  24
HETATM   24  C   LIG     1      26.661  26.530  32.844  1.00  0.00     0.139 C 
HETATM   25  O   LIG     1      26.655  25.907  33.943  1.00  0.00    -0.650 OA
BRANCH  24  26
HETATM   26  O   LIG     1      25.651  27.454  32.589  1.00  0.00    -0.776 OA
HETATM   27  H   LIG     1      25.281  28.042  33.327  1.00  0.00     0.167 HD
ENDBRANCH  24  26
ENDBRANCH  23  24
ENDBRANCH  22  23
ENDBRANCH  20  22
ENDBRANCH   1  20
BRANCH  16  28
HETATM   28  O   LIG     1      26.180  22.891  28.466  1.00  0.00    -0.395 OA
HETATM   29  H   LIG     1      26.698  22.089  28.170  1.00  0.00     0.210 HD
ENDBRANCH  16  28
BRANCH   7  30
HETATM   30  O   LIG     1      28.727  21.908  22.611  1.00  0.00    -0.395 OA
HETATM   31  H   LIG     1      29.456  21.805  21.947  1.00  0.00     0.210 HD
ENDBRANCH   7  30
BRANCH  10  32
HETATM   32  O   LIG     1      24.170  22.135  19.667  1.00  0.00    -0.396 OA
HETATM   33  H   LIG     1      23.314  21.693  19.912  1.00  0.00     0.210 HD
ENDBRANCH  10  32
TORSDOF 8
ENDMDL
MODEL 3
REMARK VINA RESULT:      -4.7      2.902      4.792
REMARK  8 active torsions:
REMARK  status: ('A' for Active; 'I' for Inactive)
REMARK    1  A    between atoms: C_2  and  C_25 
REMARK    2  A    between atoms: C_2  and  C_3 
REMARK    3  A    between atoms: C_9  and  O_24 
REMARK    4  A    between atoms: C_12  and  O_23 
REMARK    5  A    between atoms: C_18  and  O_21 
REMARK    6  A    between atoms: C_25  and  C_26 
REMARK    7  A    between atoms: C_26  and  C_27 
REMARK    8  A    between atoms: C_27  and  O_28 
ROOT
HETATM    1  C   LIG     1      26.351  23.030  18.988  1.00  0.00     0.000 C 
HETATM    2  C   LIG     1      24.968  22.809  18.311  1.00  0.00     0.006 C 
HETATM    3  C   LIG     1      24.033  22.198  19.361  1.00  0.00     0.006 C 
HETATM    4  C   LIG     1      24.726  22.475  20.690  1.00  0.00     0.001 C 
HETATM    5  C   LIG     1      24.191  21.815  21.998  1.00  0.00    -0.002 C 
HETATM    6  C   LIG     1      23.346  20.525  21.798  1.00  0.00     0.037 C 
HETATM    7  C   LIG     1      22.984  19.798  23.132  1.00  0.00     0.123 C 
HETATM    8  C   LIG     1      23.255  20.705  24.356  1.00  0.00     0.025 C 
HETATM    9  C   LIG     1      22.688  20.182  25.685  1.00  0.00     0.039 C 
HETATM   10  C   LIG     1      22.748  21.308  26.749  1.00  0.00     0.118 C 
HETATM   11  C   LIG     1      24.143  21.971  26.862  1.00  0.00     0.032 C 
HETATM   12  C   LIG     1      24.760  22.348  25.489  1.00  0.00     0.012 C 
HETATM   13  C   LIG     1      24.758  21.160  24.476  1.00  0.00    -0.034 C 
HETATM   14  C   LIG     1      25.316  21.550  23.038  1.00  0.00     0.001 C 
HETATM   15  C   LIG     1      26.420  22.653  23.017  1.00  0.00     0.038 C 
HETATM   16  C   LIG     1      26.988  23.034  21.603  1.00  0.00     0.127 C 
HETATM   17  C   LIG     1      26.238  22.351  20.411  1.00  0.00    -0.010 C 
HETATM   18  C   LIG     1      26.710  20.857  20.269  1.00  0.00     0.018 C 
HETATM   19  C   LIG     1      25.693  20.043  25.048  1.00  0.00     0.016 C 
ENDROOT
BRANCH   1  20
HETATM   20  C   LIG     1      26.886  24.510  18.883  1.00  0.00    -0.013 C 
HETATM   21  C   LIG     1      25.811  25.616  19.008  1.00  0.00     0.010 C 
BRANCH  20  22
HETATM   22  C   LIG     1      27.721  24.673  17.583  1.00  0.00     0.015 C 
BRANCH  22  23
HETATM   23  C   LIG     1      29.102  25.324  17.799  1.00  0.00     0.110 C 
BRANCH  23  24
HETATM   24  C   LIG     1      29.189  26.719  17.238  1.00  0.00     0.139 C 
HETATM   25  O   LIG     1      29.613  26.929  16.067  1.00  0.00    -0.650 OA
BRANCH  24  26
HETATM   26  O   LIG     1      28.812  27.806  18.023  1.00  0.00    -0.776 OA
HETATM   27  H   LIG     1      27.912  27.830  18.486  1.00  0.00     0.167 HD
ENDBRANCH  24  26
ENDBRANCH  23  24
ENDBRANCH  22  23
ENDBRANCH  20  22
ENDBRANCH   1  20
BRANCH  16  28
HETATM   28  O   LIG     1      28.366  22.760  21.531  1.00  0.00    -0.395 OA
HETATM   29  H   LIG     1      28.625  22.842  20.568  1.00  0.00     0.210 HD
ENDBRANCH  16  28
BRANCH   7  30
HETATM   30  O   LIG     1      23.721  18.610  23.243  1.00  0.00    -0.395 OA
HETATM   31  H   LIG     1      23.747  18.195  22.343  1.00  0.00     0.210 HD
ENDBRANCH   7  30
BRANCH  10  32
HETATM   32  O   LIG     1      22.328  20.828  28.000  1.00  0.00    -0.396 OA
HETATM   33  H   LIG     1      22.627  21.478  28.691  1.00  0.00     0.210 HD
ENDBRANCH  10  32
TORSDOF 8
ENDMDL
MODEL 4
REMARK VINA RESULT:      -4.7      1.620      2.126
REMARK  8 active torsions:
REMARK  status: ('A' for Active; 'I' for Inactive)
REMARK    1  A    between atoms: C_2  and  C_25 
REMARK    2  A    between atoms: C_2  and  C_3 
REMARK    3  A    between atoms: C_9  and  O_24 
REMARK    4  A    between atoms: C_12  and  O_23 
REMARK    5  A    between atoms: C_18  and  O_21 
REMARK    6  A    between atoms: C_25  and  C_26 
REMARK    7  A    between atoms: C_26  and  C_27 
REMARK    8  A    between atoms: C_27  and  O_28 
ROOT
HETATM    1  C   LIG     1      24.946  21.836  23.068  1.00  0.00     0.000 C 
HETATM    2  C   LIG     1      23.733  21.307  23.884  1.00  0.00     0.006 C 
HETATM    3  C   LIG     1      23.997  21.623  25.360  1.00  0.00     0.006 C 
HETATM    4  C   LIG     1      25.098  22.677  25.329  1.00  0.00     0.001 C 
HETATM    5  C   LIG     1      25.803  23.105  26.654  1.00  0.00    -0.002 C 
HETATM    6  C   LIG     1      25.724  22.074  27.816  1.00  0.00     0.037 C 
HETATM    7  C   LIG     1      26.590  22.458  29.057  1.00  0.00     0.123 C 
HETATM    8  C   LIG     1      27.054  23.933  28.981  1.00  0.00     0.025 C 
HETATM    9  C   LIG     1      27.684  24.478  30.273  1.00  0.00     0.039 C 
HETATM   10  C   LIG     1      27.813  26.018  30.172  1.00  0.00     0.118 C 
HETATM   11  C   LIG     1      28.502  26.493  28.869  1.00  0.00     0.032 C 
HETATM   12  C   LIG     1      27.948  25.808  27.593  1.00  0.00     0.012 C 
HETATM   13  C   LIG     1      27.918  24.252  27.704  1.00  0.00    -0.034 C 
HETATM   14  C   LIG     1      27.280  23.536  26.434  1.00  0.00     0.001 C 
HETATM   15  C   LIG     1      27.493  24.264  25.069  1.00  0.00     0.038 C 
HETATM   16  C   LIG     1      26.879  23.557  23.808  1.00  0.00     0.127 C 
HETATM   17  C   LIG     1      26.009  22.301  24.143  1.00  0.00    -0.010 C 
HETATM   18  C   LIG     1      26.941  21.073  24.457  1.00  0.00     0.018 C 
HETATM   19  C   LIG     1      29.396  23.752  27.823  1.00  0.00     0.016 C 
ENDROOT
BRANCH   1  20
HETATM   20  C   LIG     1      24.553  22.822  21.901  1.00  0.00    -0.013 C 
HETATM   21  C   LIG     1      23.036  22.955  21.626  1.00  0.00     0.010 C 
BRANCH  20  22
HETATM   22  C   LIG     1      25.333  22.445  20.612  1.00  0.00     0.015 C 
BRANCH  22  23
HETATM   23  C   LIG     1      25.293  23.526  19.513  1.00  0.00     0.110 C 
BRANCH  23  24
HETATM   24  C   LIG     1      26.230  24.675  19.784  1.00  0.00     0.139 C 
HETATM   25  O   LIG     1      27.324  24.498  20.389  1.00  0.00    -0.650 OA
BRANCH  24  26
HETATM   26  O   LIG     1      25.884  25.961  19.379  1.00  0.00    -0.776 OA
HETATM   27  H   LIG     1      26.544  26.550  18.886  1.00  0.00     0.167 HD
ENDBRANCH  24  26
ENDBRANCH  23  24
ENDBRANCH  22  23
ENDBRANCH  20  22
ENDBRANCH   1  20
BRANCH  16  28
HETATM   28  O   LIG     1      27.890  23.218  22.889  1.00  0.00    -0.395 OA
HETATM   29  H   LIG     1      28.166  24.068  22.440  1.00  0.00     0.210 HD
ENDBRANCH  16  28
BRANCH   7  30
HETATM   30  O   LIG     1      27.703  21.609  29.143  1.00  0.00    -0.395 OA
HETATM   31  H   LIG     1      28.285  21.808  28.365  1.00  0.00     0.210 HD
ENDBRANCH   7  30
BRANCH  10  32
HETATM   32  O   LIG     1      28.477  26.533  31.297  1.00  0.00    -0.396 OA
HETATM   33  H   LIG     1      28.084  27.424  31.501  1.00  0.00     0.210 HD
ENDBRANCH  10  32
TORSDOF 8
ENDMDL
MODEL 5
REMARK VINA RESULT:      -4.6      2.450      4.591
REMARK  8 active torsions:
REMARK  status: ('A' for Active; 'I' for Inactive)
REMARK    1  A    between atoms: C_2  and  C_25 
REMARK    2  A    between atoms: C_2  and  C_3 
REMARK    3  A    between atoms: C_9  and  O_24 
REMARK    4  A    between atoms: C_12  and  O_23 
REMARK    5  A    between atoms: C_18  and  O_21 
REMARK    6  A    between atoms: C_25  and  C_26 
REMARK    7  A    between atoms: C_26  and  C_27 
REMARK    8  A    between atoms: C_27  and  O_28 
ROOT
HETATM    1  C   LIG     1      25.017  20.962  26.596  1.00  0.00     0.000 C 
HETATM    2  C   LIG     1      25.047  20.053  27.857  1.00  0.00     0.006 C 
HETATM    3  C   LIG     1      25.887  20.769  28.921  1.00  0.00     0.006 C 
HETATM    4  C   LIG     1      25.954  22.213  28.440  1.00  0.00     0.001 C 
HETATM    5  C   LIG     1      26.909  23.225  29.146  1.00  0.00    -0.002 C 
HETATM    6  C   LIG     1      28.100  22.590  29.920  1.00  0.00     0.037 C 
HETATM    7  C   LIG     1      29.129  23.634  30.457  1.00  0.00     0.123 C 
HETATM    8  C   LIG     1      28.555  25.070  30.393  1.00  0.00     0.025 C 
HETATM    9  C   LIG     1      29.382  26.130  31.137  1.00  0.00     0.039 C 
HETATM   10  C   LIG     1      28.555  27.434  31.263  1.00  0.00     0.118 C 
HETATM   11  C   LIG     1      27.957  27.914  29.917  1.00  0.00     0.032 C 
HETATM   12  C   LIG     1      27.260  26.784  29.114  1.00  0.00     0.012 C 
HETATM   13  C   LIG     1      28.162  25.522  28.936  1.00  0.00    -0.034 C 
HETATM   14  C   LIG     1      27.436  24.324  28.181  1.00  0.00     0.001 C 
HETATM   15  C   LIG     1      26.376  24.740  27.114  1.00  0.00     0.038 C 
HETATM   16  C   LIG     1      25.665  23.564  26.353  1.00  0.00     0.127 C 
HETATM   17  C   LIG     1      26.024  22.143  26.901  1.00  0.00    -0.010 C 
HETATM   18  C   LIG     1      27.443  21.710  26.376  1.00  0.00     0.018 C 
HETATM   19  C   LIG     1      29.397  25.935  28.068  1.00  0.00     0.016 C 
ENDROOT
BRANCH   1  20
HETATM   20  C   LIG     1      23.563  21.305  26.088  1.00  0.00    -0.013 C 
HETATM   21  C   LIG     1      22.452  21.245  27.164  1.00  0.00     0.010 C 
BRANCH  20  22
HETATM   22  C   LIG     1      23.215  20.418  24.861  1.00  0.00     0.015 C 
BRANCH  22  23
HETATM   23  C   LIG     1      24.128  20.648  23.639  1.00  0.00     0.110 C 
BRANCH  23  24
HETATM   24  C   LIG     1      23.691  21.813  22.790  1.00  0.00     0.139 C 
HETATM   25  O   LIG     1      24.412  22.843  22.670  1.00  0.00    -0.650 OA
BRANCH  24  26
HETATM   26  O   LIG     1      22.464  21.770  22.135  1.00  0.00    -0.776 OA
HETATM   27  H   LIG     1      21.593  21.811  22.651  1.00  0.00     0.167 HD
ENDBRANCH  24  26
ENDBRANCH  23  24
ENDBRANCH  22  23
ENDBRANCH  20  22
ENDBRANCH   1  20
BRANCH  16  28
HETATM   28  O   LIG     1      25.930  23.634  24.973  1.00  0.00    -0.395 OA
HETATM   29  H   LIG     1      25.045  23.587  24.508  1.00  0.00     0.210 HD
ENDBRANCH  16  28
BRANCH   7  30
HETATM   30  O   LIG     1      30.317  23.560  29.715  1.00  0.00    -0.395 OA
HETATM   31  H   LIG     1      31.067  23.554  30.363  1.00  0.00     0.210 HD
ENDBRANCH   7  30
BRANCH  10  32
HETATM   32  O   LIG     1      29.323  28.452  31.851  1.00  0.00    -0.396 OA
HETATM   33  H   LIG     1      29.041  28.535  32.801  1.00  0.00     0.210 HD
ENDBRANCH  10  32
TORSDOF 8
ENDMDL
MODEL 6
REMARK VINA RESULT:      -4.5      1.842      8.108
REMARK  8 active torsions:
REMARK  status: ('A' for Active; 'I' for Inactive)
REMARK    1  A    between atoms: C_2  and  C_25 
REMARK    2  A    between atoms: C_2  and  C_3 
REMARK    3  A    between atoms: C_9  and  O_24 
REMARK    4  A    between atoms: C_12  and  O_23 
REMARK    5  A    between atoms: C_18  and  O_21 
REMARK    6  A    between atoms: C_25  and  C_26 
REMARK    7  A    between atoms: C_26  and  C_27 
REMARK    8  A    between atoms: C_27  and  O_28 
ROOT
HETATM    1  C   LIG     1      27.913  23.499  26.704  1.00  0.00     0.000 C 
HETATM    2  C   LIG     1      29.238  23.353  25.904  1.00  0.00     0.006 C 
HETATM    3  C   LIG     1      28.882  22.802  24.518  1.00  0.00     0.006 C 
HETATM    4  C   LIG     1      27.384  23.048  24.389  1.00  0.00     0.001 C 
HETATM    5  C   LIG     1      26.594  22.428  23.194  1.00  0.00    -0.002 C 
HETATM    6  C   LIG     1      27.255  21.187  22.530  1.00  0.00     0.037 C 
HETATM    7  C   LIG     1      26.353  20.490  21.463  1.00  0.00     0.123 C 
HETATM    8  C   LIG     1      25.155  21.388  21.069  1.00  0.00     0.025 C 
HETATM    9  C   LIG     1      24.363  20.907  19.844  1.00  0.00     0.039 C 
HETATM   10  C   LIG     1      23.409  22.034  19.373  1.00  0.00     0.118 C 
HETATM   11  C   LIG     1      22.538  22.617  20.513  1.00  0.00     0.032 C 
HETATM   12  C   LIG     1      23.344  22.950  21.796  1.00  0.00     0.012 C 
HETATM   13  C   LIG     1      24.225  21.758  22.285  1.00  0.00    -0.034 C 
HETATM   14  C   LIG     1      25.117  22.106  23.556  1.00  0.00     0.001 C 
HETATM   15  C   LIG     1      24.505  23.144  24.548  1.00  0.00     0.038 C 
HETATM   16  C   LIG     1      25.373  23.484  25.813  1.00  0.00     0.127 C 
HETATM   17  C   LIG     1      26.797  22.837  25.800  1.00  0.00    -0.010 C 
HETATM   18  C   LIG     1      26.698  21.317  26.195  1.00  0.00     0.018 C 
HETATM   19  C   LIG     1      23.265  20.593  22.699  1.00  0.00     0.016 C 
ENDROOT
BRANCH   1  20
HETATM   20  C   LIG     1      27.671  24.946  27.285  1.00  0.00    -0.013 C 
HETATM   21  C   LIG     1      28.884  25.905  27.205  1.00  0.00     0.010 C 
BRANCH  20  22
HETATM   22  C   LIG     1      27.123  24.842  28.735  1.00  0.00     0.015 C 
BRANCH  22  23
HETATM   23  C   LIG     1      27.946  25.628  29.776  1.00  0.00     0.110 C 
BRANCH  23  24
HETATM   24  C   LIG     1      27.273  26.902  30.216  1.00  0.00     0.139 C 
HETATM   25  O   LIG     1      27.399  27.971  29.554  1.00  0.00    -0.650 OA
BRANCH  24  26
HETATM   26  O   LIG     1      26.511  26.917  31.380  1.00  0.00    -0.776 OA
HETATM   27  H   LIG     1      25.652  27.452  31.437  1.00  0.00     0.167 HD
ENDBRANCH  24  26
ENDBRANCH  23  24
ENDBRANCH  22  23
ENDBRANCH  20  22
ENDBRANCH   1  20
BRANCH  16  28
HETATM   28  O   LIG     1      24.690  23.131  26.992  1.00  0.00    -0.395 OA
HETATM   29  H   LIG     1      23.990  22.467  26.730  1.00  0.00     0.210 HD
ENDBRANCH  16  28
BRANCH   7  30
HETATM   30  O   LIG     1      25.889  19.263  21.959  1.00  0.00    -0.395 OA
HETATM   31  H   LIG     1      25.292  19.462  22.725  1.00  0.00     0.210 HD
ENDBRANCH   7  30
BRANCH  10  32
HETATM   32  O   LIG     1      22.600  21.586  18.315  1.00  0.00    -0.396 OA
HETATM   33  H   LIG     1      22.957  21.978  17.474  1.00  0.00     0.210 HD
ENDBRANCH  10  32
TORSDOF 8
ENDMDL
MODEL 7
REMARK VINA RESULT:      -4.5      4.551     11.180
REMARK  8 active torsions:
REMARK  status: ('A' for Active; 'I' for Inactive)
REMARK    1  A    between atoms: C_2  and  C_25 
REMARK    2  A    between atoms: C_2  and  C_3 
REMARK    3  A    between atoms: C_9  and  O_24 
REMARK    4  A    between atoms: C_12  and  O_23 
REMARK    5  A    between atoms: C_18  and  O_21 
REMARK    6  A    between atoms: C_25  and  C_26 
REMARK    7  A    between atoms: C_26  and  C_27 
REMARK    8  A    between atoms: C_27  and  O_28 
ROOT
HETATM    1  C   LIG     1      29.076  27.912  32.553  1.00  0.00     0.000 C 
HETATM    2  C   LIG     1      29.315  29.204  31.721  1.00  0.00     0.006 C 
HETATM    3  C   LIG     1      29.156  28.836  30.242  1.00  0.00     0.006 C 
HETATM    4  C   LIG     1      28.423  27.500  30.262  1.00  0.00     0.001 C 
HETATM    5  C   LIG     1      28.261  26.681  28.944  1.00  0.00    -0.002 C 
HETATM    6  C   LIG     1      29.297  27.000  27.829  1.00  0.00     0.037 C 
HETATM    7  C   LIG     1      29.215  26.038  26.601  1.00  0.00     0.123 C 
HETATM    8  C   LIG     1      27.908  25.209  26.626  1.00  0.00     0.025 C 
HETATM    9  C   LIG     1      27.613  24.431  25.333  1.00  0.00     0.039 C 
HETATM   10  C   LIG     1      26.154  23.910  25.368  1.00  0.00     0.118 C 
HETATM   11  C   LIG     1      25.806  23.148  26.671  1.00  0.00     0.032 C 
HETATM   12  C   LIG     1      26.257  23.888  27.958  1.00  0.00     0.012 C 
HETATM   13  C   LIG     1      27.756  24.319  27.916  1.00  0.00    -0.034 C 
HETATM   14  C   LIG     1      28.215  25.147  29.195  1.00  0.00     0.001 C 
HETATM   15  C   LIG     1      27.497  24.781  30.531  1.00  0.00     0.038 C 
HETATM   16  C   LIG     1      27.953  25.584  31.802  1.00  0.00     0.127 C 
HETATM   17  C   LIG     1      28.959  26.743  31.495  1.00  0.00    -0.010 C 
HETATM   18  C   LIG     1      30.400  26.155  31.268  1.00  0.00     0.018 C 
HETATM   19  C   LIG     1      28.626  23.019  27.870  1.00  0.00     0.016 C 
ENDROOT
BRANCH   1  20
HETATM   20  C   LIG     1      27.962  28.061  33.660  1.00  0.00    -0.013 C 
HETATM   21  C   LIG     1      26.503  27.999  33.147  1.00  0.00     0.010 C 
BRANCH  20  22
HETATM   22  C   LIG     1      28.217  29.349  34.490  1.00  0.00     0.015 C 
BRANCH  22  23
HETATM   23  C   LIG     1      27.111  30.414  34.355  1.00  0.00     0.110 C 
BRANCH  23  24
HETATM   24  C   LIG     1      26.257  30.534  35.591  1.00  0.00     0.139 C 
HETATM   25  O   LIG     1      26.293  29.657  36.500  1.00  0.00    -0.650 OA
BRANCH  24  26
HETATM   26  O   LIG     1      25.397  31.619  35.736  1.00  0.00    -0.776 OA
HETATM   27  H   LIG     1      25.072  31.911  36.650  1.00  0.00     0.167 HD
ENDBRANCH  24  26
ENDBRANCH  23  24
ENDBRANCH  22  23
ENDBRANCH  20  22
ENDBRANCH   1  20
BRANCH  16  28
HETATM   28  O   LIG     1      28.494  24.716  32.769  1.00  0.00    -0.395 OA
HETATM   29  H   LIG     1      29.477  24.895  32.797  1.00  0.00     0.210 HD
ENDBRANCH  16  28
BRANCH   7  30
HETATM   30  O   LIG     1      30.326  25.182  26.591  1.00  0.00    -0.395 OA
HETATM   31  H   LIG     1      30.364  24.761  25.694  1.00  0.00     0.210 HD
ENDBRANCH   7  30
BRANCH  10  32
HETATM   32  O   LIG     1      25.888  23.111  24.244  1.00  0.00    -0.396 OA
HETATM   33  H   LIG     1      24.927  23.221  24.013  1.00  0.00     0.210 HD
ENDBRANCH  10  32
TORSDOF 8
ENDMDL
MODEL 8
REMARK VINA RESULT:      -4.4      1.829      7.825
REMARK  8 active torsions:
REMARK  status: ('A' for Active; 'I' for Inactive)
REMARK    1  A    between atoms: C_2  and  C_25 
REMARK    2  A    between atoms: C_2  and  C_3 
REMARK    3  A    between atoms: C_9  and  O_24 
REMARK    4  A    between atoms: C_12  and  O_23 
REMARK    5  A    between atoms: C_18  and  O_21 
REMARK    6  A    between atoms: C_25  and  C_26 
REMARK    7  A    between atoms: C_26  and  C_27 
REMARK    8  A    between atoms: C_27  and  O_28 
ROOT
HETATM    1  C   LIG     1      26.311  21.867  27.965  1.00  0.00     0.000 C 
HETATM    2  C   LIG     1      26.450  20.318  27.977  1.00  0.00     0.006 C 
HETATM    3  C   LIG     1      26.026  19.806  26.596  1.00  0.00     0.006 C 
HETATM    4  C   LIG     1      26.072  21.042  25.705  1.00  0.00     0.001 C 
HETATM    5  C   LIG     1      25.496  20.978  24.257  1.00  0.00    -0.002 C 
HETATM    6  C   LIG     1      24.449  19.856  24.004  1.00  0.00     0.037 C 
HETATM    7  C   LIG     1      23.765  19.939  22.602  1.00  0.00     0.123 C 
HETATM    8  C   LIG     1      24.527  20.906  21.664  1.00  0.00     0.025 C 
HETATM    9  C   LIG     1      24.090  20.855  20.191  1.00  0.00     0.039 C 
HETATM   10  C   LIG     1      25.120  21.620  19.322  1.00  0.00     0.118 C 
HETATM   11  C   LIG     1      25.434  23.041  19.850  1.00  0.00     0.032 C 
HETATM   12  C   LIG     1      25.721  23.084  21.374  1.00  0.00     0.012 C 
HETATM   13  C   LIG     1      24.614  22.378  22.219  1.00  0.00    -0.034 C 
HETATM   14  C   LIG     1      24.929  22.344  23.778  1.00  0.00     0.001 C 
HETATM   15  C   LIG     1      25.744  23.556  24.330  1.00  0.00     0.038 C 
HETATM   16  C   LIG     1      26.047  23.538  25.871  1.00  0.00     0.127 C 
HETATM   17  C   LIG     1      25.613  22.218  26.590  1.00  0.00    -0.010 C 
HETATM   18  C   LIG     1      24.058  22.226  26.830  1.00  0.00     0.018 C 
HETATM   19  C   LIG     1      23.284  23.183  22.032  1.00  0.00     0.016 C 
ENDROOT
BRANCH   1  20
HETATM   20  C   LIG     1      27.629  22.632  28.374  1.00  0.00    -0.013 C 
HETATM   21  C   LIG     1      28.815  21.732  28.797  1.00  0.00     0.010 C 
BRANCH  20  22
HETATM   22  C   LIG     1      27.303  23.691  29.462  1.00  0.00     0.015 C 
BRANCH  22  23
HETATM   23  C   LIG     1      27.880  25.091  29.170  1.00  0.00     0.110 C 
BRANCH  23  24
HETATM   24  C   LIG     1      27.295  26.163  30.053  1.00  0.00     0.139 C 
HETATM   25  O   LIG     1      27.108  25.966  31.286  1.00  0.00    -0.650 OA
BRANCH  24  26
HETATM   26  O   LIG     1      26.934  27.391  29.504  1.00  0.00    -0.776 OA
HETATM   27  H   LIG     1      26.686  28.175  30.095  1.00  0.00     0.167 HD
ENDBRANCH  24  26
ENDBRANCH  23  24
ENDBRANCH  22  23
ENDBRANCH  20  22
ENDBRANCH   1  20
BRANCH  16  28
HETATM   28  O   LIG     1      25.463  24.651  26.505  1.00  0.00    -0.395 OA
HETATM   29  H   LIG     1      25.928  24.757  27.384  1.00  0.00     0.210 HD
ENDBRANCH  16  28
BRANCH   7  30
HETATM   30  O   LIG     1      22.435  20.359  22.744  1.00  0.00    -0.395 OA
HETATM   31  H   LIG     1      22.307  21.139  22.145  1.00  0.00     0.210 HD
ENDBRANCH   7  30
BRANCH  10  32
HETATM   32  O   LIG     1      24.695  21.674  17.985  1.00  0.00    -0.396 OA
HETATM   33  H   LIG     1      24.352  22.591  17.812  1.00  0.00     0.210 HD
ENDBRANCH  10  32
TORSDOF 8
ENDMDL
MODEL 9
REMARK VINA RESULT:      -4.2      3.651      7.559
REMARK  8 active torsions:
REMARK  status: ('A' for Active; 'I' for Inactive)
REMARK    1  A    between atoms: C_2  and  C_25 
REMARK    2  A    between atoms: C_2  and  C_3 
REMARK    3  A    between atoms: C_9  and  O_24 
REMARK    4  A    between atoms: C_12  and  O_23 
REMARK    5  A    between atoms: C_18  and  O_21 
REMARK    6  A    between atoms: C_25  and  C_26 
REMARK    7  A    between atoms: C_26  and  C_27 
REMARK    8  A    between atoms: C_27  and  O_28 
ROOT
HETATM    1  C   LIG     1      23.657  21.149  22.552  1.00  0.00     0.000 C 
HETATM    2  C   LIG     1      22.519  22.055  22.004  1.00  0.00     0.006 C 
HETATM    3  C   LIG     1      23.147  23.029  21.001  1.00  0.00     0.006 C 
HETATM    4  C   LIG     1      24.497  22.406  20.666  1.00  0.00     0.001 C 
HETATM    5  C   LIG     1      25.541  23.212  19.832  1.00  0.00    -0.002 C 
HETATM    6  C   LIG     1      25.364  24.757  19.857  1.00  0.00     0.037 C 
HETATM    7  C   LIG     1      26.528  25.534  19.164  1.00  0.00     0.123 C 
HETATM    8  C   LIG     1      27.410  24.584  18.318  1.00  0.00     0.025 C 
HETATM    9  C   LIG     1      28.416  25.288  17.394  1.00  0.00     0.039 C 
HETATM   10  C   LIG     1      29.002  24.261  16.393  1.00  0.00     0.118 C 
HETATM   11  C   LIG     1      29.544  22.980  17.075  1.00  0.00     0.032 C 
HETATM   12  C   LIG     1      28.567  22.377  18.120  1.00  0.00     0.012 C 
HETATM   13  C   LIG     1      28.069  23.428  19.161  1.00  0.00    -0.034 C 
HETATM   14  C   LIG     1      27.007  22.845  20.193  1.00  0.00     0.001 C 
HETATM   15  C   LIG     1      27.174  21.336  20.555  1.00  0.00     0.038 C 
HETATM   16  C   LIG     1      26.139  20.756  21.585  1.00  0.00     0.127 C 
HETATM   17  C   LIG     1      24.997  21.754  21.971  1.00  0.00    -0.010 C 
HETATM   18  C   LIG     1      25.536  22.808  23.008  1.00  0.00     0.018 C 
HETATM   19  C   LIG     1      29.308  23.904  19.990  1.00  0.00     0.016 C 
ENDROOT
BRANCH   1  20
HETATM   20  C   LIG     1      23.380  19.604  22.389  1.00  0.00    -0.013 C 
HETATM   21  C   LIG     1      22.865  19.164  20.998  1.00  0.00     0.010 C 
BRANCH  20  22
HETATM   22  C   LIG     1      22.434  19.121  23.524  1.00  0.00     0.015 C 
BRANCH  22  23
HETATM   23  C   LIG     1      22.738  19.741  24.903  1.00  0.00     0.110 C 
BRANCH  23  24
HETATM   24  C   LIG     1      22.094  18.990  26.039  1.00  0.00     0.139 C 
HETATM   25  O   LIG     1      22.765  18.619  27.042  1.00  0.00    -0.650 OA
BRANCH  24  26
HETATM   26  O   LIG     1      20.738  18.681  25.984  1.00  0.00    -0.776 OA
HETATM   27  H   LIG     1      20.062  19.185  26.546  1.00  0.00     0.167 HD
ENDBRANCH  24  26
ENDBRANCH  23  24
ENDBRANCH  22  23
ENDBRANCH  20  22
ENDBRANCH   1  20
BRANCH  16  28
HETATM   28  O   LIG     1      26.794  20.297  22.742  1.00  0.00    -0.395 OA
HETATM   29  H   LIG     1      26.723  19.299  22.735  1.00  0.00     0.210 HD
ENDBRANCH  16  28
BRANCH   7  30
HETATM   30  O   LIG     1      27.311  26.183  20.130  1.00  0.00    -0.395 OA
HETATM   31  H   LIG     1      28.198  25.739  20.134  1.00  0.00     0.210 HD
ENDBRANCH   7  30
BRANCH  10  32
HETATM   32  O   LIG     1      29.998  24.855  15.601  1.00  0.00    -0.396 OA
HETATM   33  H   LIG     1      30.881  24.565  15.954  1.00  0.00     0.210 HD
ENDBRANCH  10  32
TORSDOF 8
ENDMDL
MODEL 10
REMARK VINA RESULT:      -4.2      1.728      8.103
REMARK  8 active torsions:
REMARK  status: ('A' for Active; 'I' for Inactive)
REMARK    1  A    between atoms: C_2  and  C_25 
REMARK    2  A    between atoms: C_2  and  C_3 
REMARK    3  A    between atoms: C_9  and  O_24 
REMARK    4  A    between atoms: C_12  and  O_23 
REMARK    5  A    between atoms: C_18  and  O_21 
REMARK    6  A    between atoms: C_25  and  C_26 
REMARK    7  A    between atoms: C_26  and  C_27 
REMARK    8  A    between atoms: C_27  and  O_28 
ROOT
HETATM    1  C   LIG     1      28.023  24.350  27.747  1.00  0.00     0.000 C 
HETATM    2  C   LIG     1      28.835  25.405  26.945  1.00  0.00     0.006 C 
HETATM    3  C   LIG     1      28.500  25.215  25.462  1.00  0.00     0.006 C 
HETATM    4  C   LIG     1      27.221  24.386  25.467  1.00  0.00     0.001 C 
HETATM    5  C   LIG     1      26.671  23.794  24.133  1.00  0.00    -0.002 C 
HETATM    6  C   LIG     1      27.719  23.629  22.995  1.00  0.00     0.037 C 
HETATM    7  C   LIG     1      27.173  22.869  21.744  1.00  0.00     0.123 C 
HETATM    8  C   LIG     1      25.630  22.758  21.786  1.00  0.00     0.025 C 
HETATM    9  C   LIG     1      24.983  22.265  20.482  1.00  0.00     0.039 C 
HETATM   10  C   LIG     1      23.452  22.496  20.547  1.00  0.00     0.118 C 
HETATM   11  C   LIG     1      22.802  21.939  21.838  1.00  0.00     0.032 C 
HETATM   12  C   LIG     1      23.568  22.327  23.131  1.00  0.00     0.012 C 
HETATM   13  C   LIG     1      25.091  21.996  23.054  1.00  0.00    -0.034 C 
HETATM   14  C   LIG     1      25.906  22.457  24.342  1.00  0.00     0.001 C 
HETATM   15  C   LIG     1      25.119  22.424  25.689  1.00  0.00     0.038 C 
HETATM   16  C   LIG     1      25.919  22.863  26.967  1.00  0.00     0.127 C 
HETATM   17  C   LIG     1      27.350  23.418  26.661  1.00  0.00    -0.010 C 
HETATM   18  C   LIG     1      28.337  22.227  26.373  1.00  0.00     0.018 C 
HETATM   19  C   LIG     1      25.239  20.442  22.945  1.00  0.00     0.016 C 
ENDROOT
BRANCH   1  20
HETATM   20  C   LIG     1      27.128  24.965  28.892  1.00  0.00    -0.013 C 
HETATM   21  C   LIG     1      27.119  26.511  28.970  1.00  0.00     0.010 C 
BRANCH  20  22
HETATM   22  C   LIG     1      27.514  24.329  30.256  1.00  0.00     0.015 C 
BRANCH  22  23
HETATM   23  C   LIG     1      28.670  23.312  30.171  1.00  0.00     0.110 C 
BRANCH  23  24
HETATM   24  C   LIG     1      28.265  21.926  30.602  1.00  0.00     0.139 C 
HETATM   25  O   LIG     1      27.914  21.054  29.758  1.00  0.00    -0.650 OA
BRANCH  24  26
HETATM   26  O   LIG     1      28.259  21.595  31.954  1.00  0.00    -0.776 OA
HETATM   27  H   LIG     1      29.080  21.735  32.531  1.00  0.00     0.167 HD
ENDBRANCH  24  26
ENDBRANCH  23  24
ENDBRANCH  22  23
ENDBRANCH  20  22
ENDBRANCH   1  20
BRANCH  16  28
HETATM   28  O   LIG     1      25.996  21.805  27.892  1.00  0.00    -0.395 OA
HETATM   29  H   LIG     1      25.607  21.001  27.442  1.00  0.00     0.210 HD
ENDBRANCH  16  28
BRANCH   7  30
HETATM   30  O   LIG     1      27.744  21.590  21.676  1.00  0.00    -0.395 OA
HETATM   31  H   LIG     1      27.924  21.299  22.606  1.00  0.00     0.210 HD
ENDBRANCH   7  30
BRANCH  10  32
HETATM   32  O   LIG     1      22.823  21.963  19.410  1.00  0.00    -0.396 OA
HETATM   33  H   LIG     1      23.402  21.237  19.054  1.00  0.00     0.210 HD
ENDBRANCH  10  32
TORSDOF 8
ENDMDL
MODEL 11
REMARK VINA RESULT:      -4.1      4.909      7.493
REMARK  8 active torsions:
REMARK  status: ('A' for Active; 'I' for Inactive)
REMARK    1  A    between atoms: C_2  and  C_25 
REMARK    2  A    between atoms: C_2  and  C_3 
REMARK    3  A    between atoms: C_9  and  O_24 
REMARK    4  A    between atoms: C_12  and  O_23 
REMARK    5  A    between atoms: C_18  and  O_21 
REMARK    6  A    between atoms: C_25  and  C_26 
REMARK    7  A    between atoms: C_26  and  C_27 
REMARK    8  A    between atoms: C_27  and  O_28 
ROOT
HETATM    1  C   LIG     1      23.956  20.801  20.652  1.00  0.00     0.000 C 
HETATM    2  C   LIG     1      23.158  22.049  21.125  1.00  0.00     0.006 C 
HETATM    3  C   LIG     1      23.963  23.290  20.722  1.00  0.00     0.006 C 
HETATM    4  C   LIG     1      24.948  22.779  19.678  1.00  0.00     0.001 C 
HETATM    5  C   LIG     1      26.098  23.705  19.174  1.00  0.00    -0.002 C 
HETATM    6  C   LIG     1      26.490  24.865  20.134  1.00  0.00     0.037 C 
HETATM    7  C   LIG     1      27.758  25.654  19.681  1.00  0.00     0.123 C 
HETATM    8  C   LIG     1      28.130  25.323  18.215  1.00  0.00     0.025 C 
HETATM    9  C   LIG     1      29.198  26.239  17.597  1.00  0.00     0.039 C 
HETATM   10  C   LIG     1      29.249  26.010  16.065  1.00  0.00     0.118 C 
HETATM   11  C   LIG     1      29.377  24.517  15.672  1.00  0.00     0.032 C 
HETATM   12  C   LIG     1      28.388  23.593  16.430  1.00  0.00     0.012 C 
HETATM   13  C   LIG     1      28.432  23.796  17.977  1.00  0.00    -0.034 C 
HETATM   14  C   LIG     1      27.370  22.910  18.764  1.00  0.00     0.001 C 
HETATM   15  C   LIG     1      27.030  21.530  18.120  1.00  0.00     0.038 C 
HETATM   16  C   LIG     1      25.993  20.643  18.898  1.00  0.00     0.127 C 
HETATM   17  C   LIG     1      25.341  21.357  20.128  1.00  0.00    -0.010 C 
HETATM   18  C   LIG     1      26.345  21.359  21.340  1.00  0.00     0.018 C 
HETATM   19  C   LIG     1      29.853  23.366  18.475  1.00  0.00     0.016 C 
ENDROOT
BRANCH   1  20
HETATM   20  C   LIG     1      23.127  19.820  19.735  1.00  0.00    -0.013 C 
HETATM   21  C   LIG     1      23.539  18.330  19.813  1.00  0.00     0.010 C 
BRANCH  20  22
HETATM   22  C   LIG     1      23.140  20.337  18.270  1.00  0.00     0.015 C 
BRANCH  22  23
HETATM   23  C   LIG     1      22.266  19.512  17.304  1.00  0.00     0.110 C 
BRANCH  23  24
HETATM   24  C   LIG     1      23.057  18.887  16.184  1.00  0.00     0.139 C 
HETATM   25  O   LIG     1      22.520  18.618  15.073  1.00  0.00    -0.650 OA
BRANCH  24  26
HETATM   26  O   LIG     1      24.402  18.581  16.373  1.00  0.00    -0.776 OA
HETATM   27  H   LIG     1      25.129  19.102  15.899  1.00  0.00     0.167 HD
ENDBRANCH  24  26
ENDBRANCH  23  24
ENDBRANCH  22  23
ENDBRANCH  20  22
ENDBRANCH   1  20
BRANCH  16  28
HETATM   28  O   LIG     1      26.579  19.427  19.297  1.00  0.00    -0.395 OA
HETATM   29  H   LIG     1      27.377  19.288  18.710  1.00  0.00     0.210 HD
ENDBRANCH  16  28
BRANCH   7  30
HETATM   30  O   LIG     1      28.835  25.355  20.528  1.00  0.00    -0.395 OA
HETATM   31  H   LIG     1      29.385  26.176  20.605  1.00  0.00     0.210 HD
ENDBRANCH   7  30
BRANCH  10  32
HETATM   32  O   LIG     1      30.284  26.762  15.487  1.00  0.00    -0.396 OA
HETATM   33  H   LIG     1      31.096  26.642  16.047  1.00  0.00     0.210 HD
ENDBRANCH  10  32
TORSDOF 8
ENDMDL
MODEL 12
REMARK VINA RESULT:      -3.9      2.841      9.588
REMARK  8 active torsions:
REMARK  status: ('A' for Active; 'I' for Inactive)
REMARK    1  A    between atoms: C_2  and  C_25 
REMARK    2  A    between atoms: C_2  and  C_3 
REMARK    3  A    between atoms: C_9  and  O_24 
REMARK    4  A    between atoms: C_12  and  O_23 
REMARK    5  A    between atoms: C_18  and  O_21 
REMARK    6  A    between atoms: C_25  and  C_26 
REMARK    7  A    between atoms: C_26  and  C_27 
REMARK    8  A    between atoms: C_27  and  O_28 
ROOT
HETATM    1  C   LIG     1      28.975  25.841  30.328  1.00  0.00     0.000 C 
HETATM    2  C   LIG     1      29.392  27.086  29.496  1.00  0.00     0.006 C 
HETATM    3  C   LIG     1      29.042  26.799  28.031  1.00  0.00     0.006 C 
HETATM    4  C   LIG     1      28.065  25.631  28.098  1.00  0.00     0.001 C 
HETATM    5  C   LIG     1      27.637  24.899  26.789  1.00  0.00    -0.002 C 
HETATM    6  C   LIG     1      28.619  25.044  25.591  1.00  0.00     0.037 C 
HETATM    7  C   LIG     1      28.249  24.153  24.363  1.00  0.00     0.123 C 
HETATM    8  C   LIG     1      26.811  23.593  24.491  1.00  0.00     0.025 C 
HETATM    9  C   LIG     1      26.263  22.927  23.219  1.00  0.00     0.039 C 
HETATM   10  C   LIG     1      24.739  22.697  23.375  1.00  0.00     0.118 C 
HETATM   11  C   LIG     1      24.358  21.979  24.693  1.00  0.00     0.032 C 
HETATM   12  C   LIG     1      25.050  22.579  25.945  1.00  0.00     0.012 C 
HETATM   13  C   LIG     1      26.596  22.712  25.778  1.00  0.00    -0.034 C 
HETATM   14  C   LIG     1      27.313  23.396  27.023  1.00  0.00     0.001 C 
HETATM   15  C   LIG     1      26.650  23.137  28.412  1.00  0.00     0.038 C 
HETATM   16  C   LIG     1      27.359  23.798  29.648  1.00  0.00     0.127 C 
HETATM   17  C   LIG     1      28.543  24.749  29.270  1.00  0.00    -0.010 C 
HETATM   18  C   LIG     1      29.818  23.899  28.910  1.00  0.00     0.018 C 
HETATM   19  C   LIG     1      27.187  21.269  25.639  1.00  0.00     0.016 C 
ENDROOT
BRANCH   1  20
HETATM   20  C   LIG     1      28.007  26.169  31.530  1.00  0.00    -0.013 C 
HETATM   21  C   LIG     1      26.946  27.262  31.250  1.00  0.00     0.010 C 
BRANCH  20  22
HETATM   22  C   LIG     1      28.842  26.500  32.798  1.00  0.00     0.015 C 
BRANCH  22  23
HETATM   23  C   LIG     1      28.376  25.759  34.068  1.00  0.00     0.110 C 
BRANCH  23  24
HETATM   24  C   LIG     1      27.096  26.313  34.636  1.00  0.00     0.139 C 
HETATM   25  O   LIG     1      27.090  27.368  35.331  1.00  0.00    -0.650 OA
BRANCH  24  26
HETATM   26  O   LIG     1      25.893  25.649  34.410  1.00  0.00    -0.776 OA
HETATM   27  H   LIG     1      25.719  24.732  34.804  1.00  0.00     0.167 HD
ENDBRANCH  24  26
ENDBRANCH  23  24
ENDBRANCH  22  23
ENDBRANCH  20  22
ENDBRANCH   1  20
BRANCH  16  28
HETATM   28  O   LIG     1      27.798  22.813  30.553  1.00  0.00    -0.395 OA
HETATM   29  H   LIG     1      27.691  23.199  31.470  1.00  0.00     0.210 HD
ENDBRANCH  16  28
BRANCH   7  30
HETATM   30  O   LIG     1      29.165  23.098  24.245  1.00  0.00    -0.395 OA
HETATM   31  H   LIG     1      29.674  23.055  25.095  1.00  0.00     0.210 HD
ENDBRANCH   7  30
BRANCH  10  32
HETATM   32  O   LIG     1      24.229  21.999  22.268  1.00  0.00    -0.396 OA
HETATM   33  H   LIG     1      25.000  21.650  21.747  1.00  0.00     0.210 HD
ENDBRANCH  10  32
TORSDOF 8
ENDMDL
MODEL 13
REMARK VINA RESULT:      -3.7      2.873      8.974
REMARK  8 active torsions:
REMARK  status: ('A' for Active; 'I' for Inactive)
REMARK    1  A    between atoms: C_2  and  C_25 
REMARK    2  A    between atoms: C_2  and  C_3 
REMARK    3  A    between atoms: C_9  and  O_24 
REMARK    4  A    between atoms: C_12  and  O_23 
REMARK    5  A    between atoms: C_18  and  O_21 
REMARK    6  A    between atoms: C_25  and  C_26 
REMARK    7  A    between atoms: C_26  and  C_27 
REMARK    8  A    between atoms: C_27  and  O_28 
ROOT
HETATM    1  C   LIG     1      28.999  24.724  27.574  1.00  0.00     0.000 C 
HETATM    2  C   LIG     1      29.453  26.204  27.427  1.00  0.00     0.006 C 
HETATM    3  C   LIG     1      29.366  26.567  25.940  1.00  0.00     0.006 C 
HETATM    4  C   LIG     1      28.481  25.483  25.338  1.00  0.00     0.001 C 
HETATM    5  C   LIG     1      28.325  25.376  23.790  1.00  0.00    -0.002 C 
HETATM    6  C   LIG     1      29.474  26.015  22.958  1.00  0.00     0.037 C 
HETATM    7  C   LIG     1      29.373  25.730  21.426  1.00  0.00     0.123 C 
HETATM    8  C   LIG     1      27.979  25.172  21.050  1.00  0.00     0.025 C 
HETATM    9  C   LIG     1      27.695  25.109  19.541  1.00  0.00     0.039 C 
HETATM   10  C   LIG     1      26.186  24.838  19.313  1.00  0.00     0.118 C 
HETATM   11  C   LIG     1      25.651  23.629  20.119  1.00  0.00     0.032 C 
HETATM   12  C   LIG     1      26.085  23.639  21.608  1.00  0.00     0.012 C 
HETATM   13  C   LIG     1      27.624  23.827  21.789  1.00  0.00    -0.034 C 
HETATM   14  C   LIG     1      28.078  23.917  23.312  1.00  0.00     0.001 C 
HETATM   15  C   LIG     1      27.221  23.094  24.324  1.00  0.00     0.038 C 
HETATM   16  C   LIG     1      27.670  23.166  25.827  1.00  0.00     0.127 C 
HETATM   17  C   LIG     1      28.826  24.185  26.098  1.00  0.00    -0.010 C 
HETATM   18  C   LIG     1      30.201  23.566  25.648  1.00  0.00     0.018 C 
HETATM   19  C   LIG     1      28.335  22.579  21.168  1.00  0.00     0.016 C 
ENDROOT
BRANCH   1  20
HETATM   20  C   LIG     1      27.829  24.513  28.610  1.00  0.00    -0.013 C 
HETATM   21  C   LIG     1      26.556  25.356  28.356  1.00  0.00     0.010 C 
BRANCH  20  22
HETATM   22  C   LIG     1      28.366  24.715  30.054  1.00  0.00     0.015 C 
BRANCH  22  23
HETATM   23  C   LIG     1      27.755  25.927  30.788  1.00  0.00     0.110 C 
BRANCH  23  24
HETATM   24  C   LIG     1      27.626  25.710  32.273  1.00  0.00     0.139 C 
HETATM   25  O   LIG     1      27.043  26.554  33.011  1.00  0.00    -0.650 OA
BRANCH  24  26
HETATM   26  O   LIG     1      28.171  24.569  32.856  1.00  0.00    -0.776 OA
HETATM   27  H   LIG     1      27.809  24.203  33.729  1.00  0.00     0.167 HD
ENDBRANCH  24  26
ENDBRANCH  23  24
ENDBRANCH  22  23
ENDBRANCH  20  22
ENDBRANCH   1  20
BRANCH  16  28
HETATM   28  O   LIG     1      28.028  21.889  26.299  1.00  0.00    -0.395 OA
HETATM   29  H   LIG     1      27.415  21.684  27.062  1.00  0.00     0.210 HD
ENDBRANCH  16  28
BRANCH   7  30
HETATM   30  O   LIG     1      30.372  24.823  21.042  1.00  0.00    -0.395 OA
HETATM   31  H   LIG     1      31.229  25.321  21.025  1.00  0.00     0.210 HD
ENDBRANCH   7  30
BRANCH  10  32
HETATM   32  O   LIG     1      25.915  24.677  17.944  1.00  0.00    -0.396 OA
HETATM   33  H   LIG     1      26.005  25.566  17.510  1.00  0.00     0.210 HD
ENDBRANCH  10  32
TORSDOF 8
ENDMDL
MODEL 14
REMARK VINA RESULT:      -3.1      2.291      8.100
REMARK  8 active torsions:
REMARK  status: ('A' for Active; 'I' for Inactive)
REMARK    1  A    between atoms: C_2  and  C_25 
REMARK    2  A    between atoms: C_2  and  C_3 
REMARK    3  A    between atoms: C_9  and  O_24 
REMARK    4  A    between atoms: C_12  and  O_23 
REMARK    5  A    between atoms: C_18  and  O_21 
REMARK    6  A    between atoms: C_25  and  C_26 
REMARK    7  A    between atoms: C_26  and  C_27 
REMARK    8  A    between atoms: C_27  and  O_28 
ROOT
HETATM    1  C   LIG     1      26.146  20.831  27.560  1.00  0.00     0.000 C 
HETATM    2  C   LIG     1      26.594  19.355  27.367  1.00  0.00     0.006 C 
HETATM    3  C   LIG     1      26.222  18.943  25.938  1.00  0.00     0.006 C 
HETATM    4  C   LIG     1      25.979  20.264  25.217  1.00  0.00     0.001 C 
HETATM    5  C   LIG     1      25.364  20.265  23.783  1.00  0.00    -0.002 C 
HETATM    6  C   LIG     1      24.555  18.992  23.403  1.00  0.00     0.037 C 
HETATM    7  C   LIG     1      23.807  19.108  22.036  1.00  0.00     0.123 C 
HETATM    8  C   LIG     1      24.317  20.320  21.220  1.00  0.00     0.025 C 
HETATM    9  C   LIG     1      23.835  20.365  19.762  1.00  0.00     0.039 C 
HETATM   10  C   LIG     1      24.650  21.427  18.982  1.00  0.00     0.118 C 
HETATM   11  C   LIG     1      24.694  22.805  19.687  1.00  0.00     0.032 C 
HETATM   12  C   LIG     1      25.033  22.715  21.198  1.00  0.00     0.012 C 
HETATM   13  C   LIG     1      24.129  21.697  21.962  1.00  0.00    -0.034 C 
HETATM   14  C   LIG     1      24.513  21.534  23.498  1.00  0.00     0.001 C 
HETATM   15  C   LIG     1      25.090  22.808  24.190  1.00  0.00     0.038 C 
HETATM   16  C   LIG     1      25.458  22.661  25.709  1.00  0.00     0.127 C 
HETATM   17  C   LIG     1      25.331  21.201  26.256  1.00  0.00    -0.010 C 
HETATM   18  C   LIG     1      23.819  20.859  26.523  1.00  0.00     0.018 C 
HETATM   19  C   LIG     1      22.658  22.228  21.906  1.00  0.00     0.016 C 
ENDROOT
BRANCH   1  20
HETATM   20  C   LIG     1      27.300  21.793  28.043  1.00  0.00    -0.013 C 
HETATM   21  C   LIG     1      28.668  21.590  27.349  1.00  0.00     0.010 C 
BRANCH  20  22
HETATM   22  C   LIG     1      27.430  21.719  29.589  1.00  0.00     0.015 C 
BRANCH  22  23
HETATM   23  C   LIG     1      26.228  21.053  30.290  1.00  0.00     0.110 C 
BRANCH  23  24
HETATM   24  C   LIG     1      26.641  20.052  31.339  1.00  0.00     0.139 C 
HETATM   25  O   LIG     1      26.541  20.315  32.570  1.00  0.00    -0.650 OA
BRANCH  24  26
HETATM   26  O   LIG     1      27.158  18.819  30.953  1.00  0.00    -0.776 OA
HETATM   27  H   LIG     1      27.053  18.481  30.004  1.00  0.00     0.167 HD
ENDBRANCH  24  26
ENDBRANCH  23  24
ENDBRANCH  22  23
ENDBRANCH  20  22
ENDBRANCH   1  20
BRANCH  16  28
HETATM   28  O   LIG     1      24.691  23.542  26.494  1.00  0.00    -0.395 OA
HETATM   29  H   LIG     1      24.156  22.975  27.121  1.00  0.00     0.210 HD
ENDBRANCH  16  28
BRANCH   7  30
HETATM   30  O   LIG     1      22.427  19.223  22.255  1.00  0.00    -0.395 OA
HETATM   31  H   LIG     1      22.072  19.843  21.567  1.00  0.00     0.210 HD
ENDBRANCH   7  30
BRANCH  10  32
HETATM   32  O   LIG     1      24.164  21.560  17.671  1.00  0.00    -0.396 OA
HETATM   33  H   LIG     1      24.273  20.682  17.216  1.00  0.00     0.210 HD
ENDBRANCH  10  32
TORSDOF 8
ENDMDL
MODEL 15
REMARK VINA RESULT:      -3.0      3.133      8.111
REMARK  8 active torsions:
REMARK  status: ('A' for Active; 'I' for Inactive)
REMARK    1  A    between atoms: C_2  and  C_25 
REMARK    2  A    between atoms: C_2  and  C_3 
REMARK    3  A    between atoms: C_9  and  O_24 
REMARK    4  A    between atoms: C_12  and  O_23 
REMARK    5  A    between atoms: C_18  and  O_21 
REMARK    6  A    between atoms: C_25  and  C_26 
REMARK    7  A    between atoms: C_26  and  C_27 
REMARK    8  A    between atoms: C_27  and  O_28 
ROOT
HETATM    1  C   LIG     1      26.097  21.960  24.165  1.00  0.00     0.000 C 
HETATM    2  C   LIG     1      24.641  22.237  23.695  1.00  0.00     0.006 C 
HETATM    3  C   LIG     1      24.720  22.902  22.316  1.00  0.00     0.006 C 
HETATM    4  C   LIG     1      26.137  22.607  21.836  1.00  0.00     0.001 C 
HETATM    5  C   LIG     1      26.684  23.305  20.552  1.00  0.00    -0.002 C 
HETATM    6  C   LIG     1      25.972  24.631  20.158  1.00  0.00     0.037 C 
HETATM    7  C   LIG     1      26.662  25.388  18.980  1.00  0.00     0.123 C 
HETATM    8  C   LIG     1      27.688  24.482  18.256  1.00  0.00     0.025 C 
HETATM    9  C   LIG     1      28.223  25.045  16.930  1.00  0.00     0.039 C 
HETATM   10  C   LIG     1      28.980  23.930  16.166  1.00  0.00     0.118 C 
HETATM   11  C   LIG     1      30.040  23.204  17.030  1.00  0.00     0.032 C 
HETATM   12  C   LIG     1      29.513  22.784  18.428  1.00  0.00     0.012 C 
HETATM   13  C   LIG     1      28.836  23.960  19.199  1.00  0.00    -0.034 C 
HETATM   14  C   LIG     1      28.221  23.529  20.603  1.00  0.00     0.001 C 
HETATM   15  C   LIG     1      28.969  22.376  21.343  1.00  0.00     0.038 C 
HETATM   16  C   LIG     1      28.378  21.954  22.736  1.00  0.00     0.127 C 
HETATM   17  C   LIG     1      27.028  22.658  23.094  1.00  0.00    -0.010 C 
HETATM   18  C   LIG     1      27.304  24.127  23.584  1.00  0.00     0.018 C 
HETATM   19  C   LIG     1      29.933  25.039  19.486  1.00  0.00     0.016 C 
ENDROOT
BRANCH   1  20
HETATM   20  C   LIG     1      26.369  20.455  24.554  1.00  0.00    -0.013 C 
HETATM   21  C   LIG     1      25.355  19.429  23.993  1.00  0.00     0.010 C 
BRANCH  20  22
HETATM   22  C   LIG     1      26.509  20.331  26.096  1.00  0.00     0.015 C 
BRANCH  22  23
HETATM   23  C   LIG     1      27.648  21.182  26.695  1.00  0.00     0.110 C 
BRANCH  23  24
HETATM   24  C   LIG     1      28.068  20.720  28.066  1.00  0.00     0.139 C 
HETATM   25  O   LIG     1      27.215  20.494  28.971  1.00  0.00    -0.650 OA
BRANCH  24  26
HETATM   26  O   LIG     1      29.418  20.552  28.357  1.00  0.00    -0.776 OA
HETATM   27  H   LIG     1      29.791  19.645  28.612  1.00  0.00     0.167 HD
ENDBRANCH  24  26
ENDBRANCH  23  24
ENDBRANCH  22  23
ENDBRANCH  20  22
ENDBRANCH   1  20
BRANCH  16  28
HETATM   28  O   LIG     1      29.322  22.163  23.759  1.00  0.00    -0.395 OA
HETATM   29  H   LIG     1      30.225  22.061  23.341  1.00  0.00     0.210 HD
ENDBRANCH  16  28
BRANCH   7  30
HETATM   30  O   LIG     1      27.298  26.542  19.462  1.00  0.00    -0.395 OA
HETATM   31  H   LIG     1      28.221  26.541  19.099  1.00  0.00     0.210 HD
ENDBRANCH   7  30
BRANCH  10  32
HETATM   32  O   LIG     1      29.565  24.442  14.996  1.00  0.00    -0.396 OA
HETATM   33  H   LIG     1      28.975  24.203  14.232  1.00  0.00     0.210 HD
ENDBRANCH  10  32
TORSDOF 8
ENDMDL
MODEL 16
REMARK VINA RESULT:      -2.9      4.386      7.232
REMARK  8 active torsions:
REMARK  status: ('A' for Active; 'I' for Inactive)
REMARK    1  A    between atoms: C_2  and  C_25 
REMARK    2  A    between atoms: C_2  and  C_3 
REMARK    3  A    between atoms: C_9  and  O_24 
REMARK    4  A    between atoms: C_12  and  O_23 
REMARK    5  A    between atoms: C_18  and  O_21 
REMARK    6  A    between atoms: C_25  and  C_26 
REMARK    7  A    between atoms: C_26  and  C_27 
REMARK    8  A    between atoms: C_27  and  O_28 
ROOT
HETATM    1  C   LIG     1      26.433  20.137  26.763  1.00  0.00     0.000 C 
HETATM    2  C   LIG     1      26.883  18.912  27.608  1.00  0.00     0.006 C 
HETATM    3  C   LIG     1      25.647  18.378  28.341  1.00  0.00     0.006 C 
HETATM    4  C   LIG     1      24.471  18.998  27.597  1.00  0.00     0.001 C 
HETATM    5  C   LIG     1      23.028  18.868  28.177  1.00  0.00    -0.002 C 
HETATM    6  C   LIG     1      22.945  18.595  29.706  1.00  0.00     0.037 C 
HETATM    7  C   LIG     1      21.493  18.652  30.277  1.00  0.00     0.123 C 
HETATM    8  C   LIG     1      20.443  18.628  29.140  1.00  0.00     0.025 C 
HETATM    9  C   LIG     1      18.994  18.416  29.604  1.00  0.00     0.039 C 
HETATM   10  C   LIG     1      18.101  18.101  28.378  1.00  0.00     0.118 C 
HETATM   11  C   LIG     1      18.263  19.120  27.223  1.00  0.00     0.032 C 
HETATM   12  C   LIG     1      19.743  19.432  26.879  1.00  0.00     0.012 C 
HETATM   13  C   LIG     1      20.586  19.830  28.132  1.00  0.00    -0.034 C 
HETATM   14  C   LIG     1      22.124  20.079  27.810  1.00  0.00     0.001 C 
HETATM   15  C   LIG     1      22.435  20.647  26.390  1.00  0.00     0.038 C 
HETATM   16  C   LIG     1      23.950  20.910  26.068  1.00  0.00     0.127 C 
HETATM   17  C   LIG     1      24.932  20.410  27.179  1.00  0.00    -0.010 C 
HETATM   18  C   LIG     1      24.944  21.426  28.380  1.00  0.00     0.018 C 
HETATM   19  C   LIG     1      20.007  21.172  28.691  1.00  0.00     0.016 C 
ENDROOT
BRANCH   1  20
HETATM   20  C   LIG     1      26.798  20.029  25.232  1.00  0.00    -0.013 C 
HETATM   21  C   LIG     1      27.229  18.623  24.749  1.00  0.00     0.010 C 
BRANCH  20  22
HETATM   22  C   LIG     1      27.860  21.104  24.870  1.00  0.00     0.015 C 
BRANCH  22  23
HETATM   23  C   LIG     1      27.903  22.299  25.845  1.00  0.00     0.110 C 
BRANCH  23  24
HETATM   24  C   LIG     1      27.234  23.531  25.293  1.00  0.00     0.139 C 
HETATM   25  O   LIG     1      26.425  23.460  24.326  1.00  0.00    -0.650 OA
BRANCH  24  26
HETATM   26  O   LIG     1      27.521  24.778  25.841  1.00  0.00    -0.776 OA
HETATM   27  H   LIG     1      27.224  25.018  26.780  1.00  0.00     0.167 HD
ENDBRANCH  24  26
ENDBRANCH  23  24
ENDBRANCH  22  23
ENDBRANCH  20  22
ENDBRANCH   1  20
BRANCH  16  28
HETATM   28  O   LIG     1      24.172  22.274  25.803  1.00  0.00    -0.395 OA
HETATM   29  H   LIG     1      24.901  22.318  25.120  1.00  0.00     0.210 HD
ENDBRANCH  16  28
BRANCH   7  30
HETATM   30  O   LIG     1      21.331  19.808  31.055  1.00  0.00    -0.395 OA
HETATM   31  H   LIG     1      21.736  19.624  31.941  1.00  0.00     0.210 HD
ENDBRANCH   7  30
BRANCH  10  32
HETATM   32  O   LIG     1      16.753  18.000  28.760  1.00  0.00    -0.396 OA
HETATM   33  H   LIG     1      16.691  18.245  29.722  1.00  0.00     0.210 HD
ENDBRANCH  10  32
TORSDOF 8
ENDMDL
MODEL 17
REMARK VINA RESULT:      -2.9      4.764      9.879
REMARK  8 active torsions:
REMARK  status: ('A' for Active; 'I' for Inactive)
REMARK    1  A    between atoms: C_2  and  C_25 
REMARK    2  A    between atoms: C_2  and  C_3 
REMARK    3  A    between atoms: C_9  and  O_24 
REMARK    4  A    between atoms: C_12  and  O_23 
REMARK    5  A    between atoms: C_18  and  O_21 
REMARK    6  A    between atoms: C_25  and  C_26 
REMARK    7  A    between atoms: C_26  and  C_27 
REMARK    8  A    between atoms: C_27  and  O_28 
ROOT
HETATM    1  C   LIG     1      25.925  21.210  20.555  1.00  0.00     0.000 C 
HETATM    2  C   LIG     1      27.291  21.812  20.990  1.00  0.00     0.006 C 
HETATM    3  C   LIG     1      28.288  21.565  19.852  1.00  0.00     0.006 C 
HETATM    4  C   LIG     1      27.412  21.235  18.649  1.00  0.00     0.001 C 
HETATM    5  C   LIG     1      28.064  20.707  17.334  1.00  0.00    -0.002 C 
HETATM    6  C   LIG     1      29.464  20.050  17.500  1.00  0.00     0.037 C 
HETATM    7  C   LIG     1      30.000  19.374  16.198  1.00  0.00     0.123 C 
HETATM    8  C   LIG     1      29.175  19.808  14.962  1.00  0.00     0.025 C 
HETATM    9  C   LIG     1      29.782  19.409  13.608  1.00  0.00     0.039 C 
HETATM   10  C   LIG     1      29.044  20.159  12.471  1.00  0.00     0.118 C 
HETATM   11  C   LIG     1      27.503  20.027  12.548  1.00  0.00     0.032 C 
HETATM   12  C   LIG     1      26.932  20.285  13.967  1.00  0.00     0.012 C 
HETATM   13  C   LIG     1      27.647  19.443  15.071  1.00  0.00    -0.034 C 
HETATM   14  C   LIG     1      27.126  19.752  16.543  1.00  0.00     0.001 C 
HETATM   15  C   LIG     1      25.624  20.161  16.657  1.00  0.00     0.038 C 
HETATM   16  C   LIG     1      25.097  20.453  18.107  1.00  0.00     0.127 C 
HETATM   17  C   LIG     1      26.213  20.439  19.204  1.00  0.00    -0.010 C 
HETATM   18  C   LIG     1      26.586  18.955  19.569  1.00  0.00     0.018 C 
HETATM   19  C   LIG     1      27.355  17.933  14.784  1.00  0.00     0.016 C 
ENDROOT
BRANCH   1  20
HETATM   20  C   LIG     1      24.726  22.234  20.614  1.00  0.00    -0.013 C 
HETATM   21  C   LIG     1      25.129  23.725  20.708  1.00  0.00     0.010 C 
BRANCH  20  22
HETATM   22  C   LIG     1      23.754  21.835  21.758  1.00  0.00     0.015 C 
BRANCH  22  23
HETATM   23  C   LIG     1      24.109  20.502  22.449  1.00  0.00     0.110 C 
BRANCH  23  24
HETATM   24  C   LIG     1      23.096  19.418  22.187  1.00  0.00     0.139 C 
HETATM   25  O   LIG     1      22.497  18.838  23.137  1.00  0.00    -0.650 OA
BRANCH  24  26
HETATM   26  O   LIG     1      22.821  19.028  20.880  1.00  0.00    -0.776 OA
HETATM   27  H   LIG     1      22.127  18.317  20.680  1.00  0.00     0.167 HD
ENDBRANCH  24  26
ENDBRANCH  23  24
ENDBRANCH  22  23
ENDBRANCH  20  22
ENDBRANCH   1  20
BRANCH  16  28
HETATM   28  O   LIG     1      24.067  19.559  18.452  1.00  0.00    -0.395 OA
HETATM   29  H   LIG     1      24.412  18.639  18.265  1.00  0.00     0.210 HD
ENDBRANCH  16  28
BRANCH   7  30
HETATM   30  O   LIG     1      29.962  17.979  16.333  1.00  0.00    -0.395 OA
HETATM   31  H   LIG     1      30.200  17.769  17.272  1.00  0.00     0.210 HD
ENDBRANCH   7  30
BRANCH  10  32
HETATM   32  O   LIG     1      29.512  19.738  11.216  1.00  0.00    -0.396 OA
HETATM   33  H   LIG     1      28.791  19.904  10.551  1.00  0.00     0.210 HD
ENDBRANCH  10  32
TORSDOF 8
ENDMDL
MODEL 18
REMARK VINA RESULT:      -2.7      2.027      8.260
REMARK  8 active torsions:
REMARK  status: ('A' for Active; 'I' for Inactive)
REMARK    1  A    between atoms: C_2  and  C_25 
REMARK    2  A    between atoms: C_2  and  C_3 
REMARK    3  A    between atoms: C_9  and  O_24 
REMARK    4  A    between atoms: C_12  and  O_23 
REMARK    5  A    between atoms: C_18  and  O_21 
REMARK    6  A    between atoms: C_25  and  C_26 
REMARK    7  A    between atoms: C_26  and  C_27 
REMARK    8  A    between atoms: C_27  and  O_28 
ROOT
HETATM    1  C   LIG     1      27.976  23.806  27.527  1.00  0.00     0.000 C 
HETATM    2  C   LIG     1      26.838  24.865  27.553  1.00  0.00     0.006 C 
HETATM    3  C   LIG     1      25.800  24.452  26.504  1.00  0.00     0.006 C 
HETATM    4  C   LIG     1      26.118  22.990  26.214  1.00  0.00     0.001 C 
HETATM    5  C   LIG     1      25.412  22.261  25.029  1.00  0.00    -0.002 C 
HETATM    6  C   LIG     1      24.853  23.188  23.912  1.00  0.00     0.037 C 
HETATM    7  C   LIG     1      24.319  22.417  22.664  1.00  0.00     0.123 C 
HETATM    8  C   LIG     1      24.154  20.908  22.966  1.00  0.00     0.025 C 
HETATM    9  C   LIG     1      23.391  20.115  21.893  1.00  0.00     0.039 C 
HETATM   10  C   LIG     1      23.026  18.716  22.451  1.00  0.00     0.118 C 
HETATM   11  C   LIG     1      24.234  17.967  23.067  1.00  0.00     0.032 C 
HETATM   12  C   LIG     1      25.078  18.843  24.029  1.00  0.00     0.012 C 
HETATM   13  C   LIG     1      25.497  20.207  23.396  1.00  0.00    -0.034 C 
HETATM   14  C   LIG     1      26.298  21.152  24.396  1.00  0.00     0.001 C 
HETATM   15  C   LIG     1      27.186  20.421  25.451  1.00  0.00     0.038 C 
HETATM   16  C   LIG     1      27.992  21.346  26.433  1.00  0.00     0.127 C 
HETATM   17  C   LIG     1      27.653  22.868  26.296  1.00  0.00    -0.010 C 
HETATM   18  C   LIG     1      28.378  23.465  25.033  1.00  0.00     0.018 C 
HETATM   19  C   LIG     1      26.445  19.902  22.188  1.00  0.00     0.016 C 
ENDROOT
BRANCH   1  20
HETATM   20  C   LIG     1      28.277  23.152  28.931  1.00  0.00    -0.013 C 
HETATM   21  C   LIG     1      27.074  22.452  29.609  1.00  0.00     0.010 C 
BRANCH  20  22
HETATM   22  C   LIG     1      28.923  24.207  29.871  1.00  0.00     0.015 C 
BRANCH  22  23
HETATM   23  C   LIG     1      28.187  24.388  31.214  1.00  0.00     0.110 C 
BRANCH  23  24
HETATM   24  C   LIG     1      27.764  25.812  31.465  1.00  0.00     0.139 C 
HETATM   25  O   LIG     1      26.919  26.385  30.721  1.00  0.00    -0.650 OA
BRANCH  24  26
HETATM   26  O   LIG     1      28.322  26.524  32.523  1.00  0.00    -0.776 OA
HETATM   27  H   LIG     1      28.491  26.084  33.419  1.00  0.00     0.167 HD
ENDBRANCH  24  26
ENDBRANCH  23  24
ENDBRANCH  22  23
ENDBRANCH  20  22
ENDBRANCH   1  20
BRANCH  16  28
HETATM   28  O   LIG     1      29.376  21.141  26.284  1.00  0.00    -0.395 OA
HETATM   29  H   LIG     1      29.816  21.572  27.072  1.00  0.00     0.210 HD
ENDBRANCH  16  28
BRANCH   7  30
HETATM   30  O   LIG     1      25.192  22.597  21.581  1.00  0.00    -0.395 OA
HETATM   31  H   LIG     1      26.108  22.402  21.907  1.00  0.00     0.210 HD
ENDBRANCH   7  30
BRANCH  10  32
HETATM   32  O   LIG     1      22.415  17.933  21.458  1.00  0.00    -0.396 OA
HETATM   33  H   LIG     1      22.036  17.126  21.898  1.00  0.00     0.210 HD
ENDBRANCH  10  32
TORSDOF 8
ENDMDL
MODEL 19
REMARK VINA RESULT:      -2.2      4.247      9.855
REMARK  8 active torsions:
REMARK  status: ('A' for Active; 'I' for Inactive)
REMARK    1  A    between atoms: C_2  and  C_25 
REMARK    2  A    between atoms: C_2  and  C_3 
REMARK    3  A    between atoms: C_9  and  O_24 
REMARK    4  A    between atoms: C_12  and  O_23 
REMARK    5  A    between atoms: C_18  and  O_21 
REMARK    6  A    between atoms: C_25  and  C_26 
REMARK    7  A    between atoms: C_26  and  C_27 
REMARK    8  A    between atoms: C_27  and  O_28 
ROOT
HETATM    1  C   LIG     1      28.366  25.806  31.026  1.00  0.00     0.000 C 
HETATM    2  C   LIG     1      28.056  24.334  31.421  1.00  0.00     0.006 C 
HETATM    3  C   LIG     1      28.006  23.511  30.128  1.00  0.00     0.006 C 
HETATM    4  C   LIG     1      28.697  24.392  29.094  1.00  0.00     0.001 C 
HETATM    5  C   LIG     1      28.658  23.996  27.585  1.00  0.00    -0.002 C 
HETATM    6  C   LIG     1      27.493  23.051  27.173  1.00  0.00     0.037 C 
HETATM    7  C   LIG     1      27.383  22.825  25.631  1.00  0.00     0.123 C 
HETATM    8  C   LIG     1      28.656  23.315  24.901  1.00  0.00     0.025 C 
HETATM    9  C   LIG     1      28.754  22.899  23.425  1.00  0.00     0.039 C 
HETATM   10  C   LIG     1      30.189  23.172  22.907  1.00  0.00     0.118 C 
HETATM   11  C   LIG     1      30.685  24.609  23.204  1.00  0.00     0.032 C 
HETATM   12  C   LIG     1      30.431  25.059  24.667  1.00  0.00     0.012 C 
HETATM   13  C   LIG     1      28.952  24.846  25.119  1.00  0.00    -0.034 C 
HETATM   14  C   LIG     1      28.692  25.231  26.641  1.00  0.00     0.001 C 
HETATM   15  C   LIG     1      29.571  26.390  27.206  1.00  0.00     0.038 C 
HETATM   16  C   LIG     1      29.310  26.786  28.704  1.00  0.00     0.127 C 
HETATM   17  C   LIG     1      28.308  25.842  29.446  1.00  0.00    -0.010 C 
HETATM   18  C   LIG     1      26.832  26.194  29.029  1.00  0.00     0.018 C 
HETATM   19  C   LIG     1      28.047  25.776  24.245  1.00  0.00     0.016 C 
ENDROOT
BRANCH   1  20
HETATM   20  C   LIG     1      29.622  26.415  31.762  1.00  0.00    -0.013 C 
HETATM   21  C   LIG     1      30.207  25.551  32.905  1.00  0.00     0.010 C 
BRANCH  20  22
HETATM   22  C   LIG     1      29.295  27.854  32.248  1.00  0.00     0.015 C 
BRANCH  22  23
HETATM   23  C   LIG     1      27.819  28.066  32.641  1.00  0.00     0.110 C 
BRANCH  23  24
HETATM   24  C   LIG     1      27.655  28.623  34.031  1.00  0.00     0.139 C 
HETATM   25  O   LIG     1      28.552  28.470  34.908  1.00  0.00    -0.650 OA
BRANCH  24  26
HETATM   26  O   LIG     1      26.490  29.305  34.371  1.00  0.00    -0.776 OA
HETATM   27  H   LIG     1      26.312  30.241  34.025  1.00  0.00     0.167 HD
ENDBRANCH  24  26
ENDBRANCH  23  24
ENDBRANCH  22  23
ENDBRANCH  20  22
ENDBRANCH   1  20
BRANCH  16  28
HETATM   28  O   LIG     1      28.878  28.122  28.796  1.00  0.00    -0.395 OA
HETATM   29  H   LIG     1      29.683  28.695  28.636  1.00  0.00     0.210 HD
ENDBRANCH  16  28
BRANCH   7  30
HETATM   30  O   LIG     1      26.256  23.493  25.130  1.00  0.00    -0.395 OA
HETATM   31  H   LIG     1      26.069  23.120  24.231  1.00  0.00     0.210 HD
ENDBRANCH   7  30
BRANCH  10  32
HETATM   32  O   LIG     1      30.280  22.894  21.533  1.00  0.00    -0.396 OA
HETATM   33  H   LIG     1      30.360  21.909  21.428  1.00  0.00     0.210 HD
ENDBRANCH  10  32
TORSDOF 8
ENDMDL
