REMARK  7 active torsions:
REMARK  status: ('A' for Active; 'I' for Inactive)
REMARK    1  A    between atoms: C_8  and  C_9 
REMARK    2  A    between atoms: C_9  and  C_15 
REMARK    3  A    between atoms: C_9  and  C_10 
REMARK    4  A    between atoms: C_10  and  O_12 
REMARK    5  A    between atoms: O_12  and  C_13 
REMARK    6  A    between atoms: C_16  and  O_17 
REMARK    7  A    between atoms: C_27  and  O_28 
ROOT
HETATM    1  C   LIG     1       0.137   0.026   1.223  1.00  0.00     0.169 C 
ENDROOT
BRANCH   1   2
HETATM    2  C   LIG     1      -1.155  -0.460   0.558  1.00  0.00     0.070 A 
HETATM    3  C   LIG     1      -1.298  -0.500  -0.852  1.00  0.00     0.298 A 
HETATM    4  O   LIG     1      -2.402  -0.981  -1.412  1.00  0.00    -0.274 OA
HETATM    5  O   LIG     1      -0.388  -0.072  -1.608  1.00  0.00    -0.259 OA
HETATM    6  C   LIG     1      -3.434  -1.425  -0.710  1.00  0.00     0.092 A 
HETATM    7  C   LIG     1      -4.553  -1.937  -1.377  1.00  0.00     0.038 A 
HETATM    8  C   LIG     1      -3.414  -1.370   0.698  1.00  0.00     0.032 A 
HETATM    9  C   LIG     1      -5.657  -2.390  -0.650  1.00  0.00     0.003 A 
HETATM   10  C   LIG     1      -5.648  -2.332   0.746  1.00  0.00     0.001 A 
HETATM   11  C   LIG     1      -4.534  -1.822   1.421  1.00  0.00     0.017 A 
HETATM   12  C   LIG     1      -2.279  -0.844   1.337  1.00  0.00     0.092 A 
BRANCH  12  13
HETATM   13  O   LIG     1      -2.309  -0.694   2.729  1.00  0.00    -0.359 OA
HETATM   14  H   LIG     1      -1.646  -0.144   3.256  1.00  0.00     0.217 HD
ENDBRANCH  12  13
ENDBRANCH   1   2
BRANCH   1  15
HETATM   15  C   LIG     1       1.409  -0.482   0.526  1.00  0.00     0.070 A 
HETATM   16  C   LIG     1       2.210   0.317  -0.331  1.00  0.00     0.092 A 
HETATM   17  C   LIG     1       3.381  -0.238  -0.902  1.00  0.00     0.032 A 
HETATM   18  C   LIG     1       4.269   0.495  -1.721  1.00  0.00     0.017 A 
HETATM   19  C   LIG     1       3.675  -1.596  -0.633  1.00  0.00     0.092 A 
HETATM   20  C   LIG     1       5.404  -0.117  -2.261  1.00  0.00     0.001 A 
HETATM   21  C   LIG     1       5.675  -1.459  -1.995  1.00  0.00     0.003 A 
HETATM   22  C   LIG     1       4.814  -2.196  -1.182  1.00  0.00     0.038 A 
HETATM   23  O   LIG     1       2.877  -2.319   0.138  1.00  0.00    -0.274 OA
HETATM   24  C   LIG     1       1.786  -1.831   0.709  1.00  0.00     0.298 A 
HETATM   25  O   LIG     1       1.085  -2.600   1.422  1.00  0.00    -0.259 OA
BRANCH  16  26
HETATM   26  O   LIG     1       1.805   1.626  -0.616  1.00  0.00    -0.359 OA
HETATM   27  H   LIG     1       2.260   2.244  -1.271  1.00  0.00     0.217 HD
ENDBRANCH  16  26
ENDBRANCH   1  15
BRANCH   1  28
HETATM   28  C   LIG     1       0.100   1.512   1.475  1.00  0.00     0.272 C 
HETATM   29  O   LIG     1       0.918   2.021   2.289  1.00  0.00    -0.264 OA
BRANCH  28  30
HETATM   30  O   LIG     1      -0.836   2.317   0.811  1.00  0.00    -0.321 OA
BRANCH  30  31
HETATM   31  C   LIG     1      -0.922   3.729   0.985  1.00  0.00     0.174 C 
HETATM   32  C   LIG     1       0.198   4.436   0.231  1.00  0.00     0.034 C 
ENDBRANCH  30  31
ENDBRANCH  28  30
ENDBRANCH   1  28
TORSDOF 7
