MODEL 1
REMARK VINA RESULT:      -6.8      0.000      0.000
REMARK  1 active torsions:
REMARK  status: ('A' for Active; 'I' for Inactive)
REMARK       I    between atoms: N_1  and  C_2 
REMARK    1  A    between atoms: C_2  and  C_3 
ROOT
HETATM    1  C   LIG     1      17.178  36.785  24.286  1.00  0.00     0.031 A 
HETATM    2  C   LIG     1      17.871  37.543  25.249  1.00  0.00     0.017 A 
HETATM    3  C   LIG     1      18.443  36.921  26.364  1.00  0.00     0.001 A 
HETATM    4  C   LIG     1      18.336  35.539  26.527  1.00  0.00     0.000 A 
HETATM    5  C   LIG     1      17.661  34.774  25.574  1.00  0.00     0.001 A 
HETATM    6  C   LIG     1      17.089  35.391  24.457  1.00  0.00     0.017 A 
ENDROOT
BRANCH   1   7
HETATM    7  C   LIG     1      16.570  37.425  23.095  1.00  0.00     0.249 C 
HETATM    8  N   LIG     1      15.336  38.143  23.178  1.00  0.00    -0.366 N 
HETATM    9  H   LIG     1      14.961  38.634  22.336  1.00  0.00     0.159 HD
HETATM   10  H   LIG     1      14.744  38.123  24.037  1.00  0.00     0.159 HD
HETATM   11  O   LIG     1      17.141  37.327  21.974  1.00  0.00    -0.268 OA
ENDBRANCH   1   7
TORSDOF 1
ENDMDL
MODEL 2
REMARK VINA RESULT:      -6.8      0.024      1.614
REMARK  1 active torsions:
REMARK  status: ('A' for Active; 'I' for Inactive)
REMARK       I    between atoms: N_1  and  C_2 
REMARK    1  A    between atoms: C_2  and  C_3 
ROOT
HETATM    1  C   LIG     1      17.175  36.771  24.273  1.00  0.00     0.031 A 
HETATM    2  C   LIG     1      17.089  35.379  24.468  1.00  0.00     0.017 A 
HETATM    3  C   LIG     1      17.673  34.783  25.590  1.00  0.00     0.001 A 
HETATM    4  C   LIG     1      18.343  35.567  26.531  1.00  0.00     0.000 A 
HETATM    5  C   LIG     1      18.427  36.949  26.356  1.00  0.00     0.001 A 
HETATM    6  C   LIG     1      17.843  37.550  25.236  1.00  0.00     0.017 A 
ENDROOT
BRANCH   1   7
HETATM    7  C   LIG     1      16.557  37.423  23.092  1.00  0.00     0.249 C 
HETATM    8  N   LIG     1      15.320  38.134  23.192  1.00  0.00    -0.366 N 
HETATM    9  H   LIG     1      14.938  38.633  22.358  1.00  0.00     0.159 HD
HETATM   10  H   LIG     1      14.734  38.101  24.054  1.00  0.00     0.159 HD
HETATM   11  O   LIG     1      17.121  37.340  21.967  1.00  0.00    -0.268 OA
ENDBRANCH   1   7
TORSDOF 1
ENDMDL
MODEL 3
REMARK VINA RESULT:      -6.4      3.108      4.385
REMARK  1 active torsions:
REMARK  status: ('A' for Active; 'I' for Inactive)
REMARK       I    between atoms: N_1  and  C_2 
REMARK    1  A    between atoms: C_2  and  C_3 
ROOT
HETATM    1  C   LIG     1      17.524  38.153  21.931  1.00  0.00     0.031 A 
HETATM    2  C   LIG     1      18.351  39.214  21.512  1.00  0.00     0.017 A 
HETATM    3  C   LIG     1      19.197  39.060  20.409  1.00  0.00     0.001 A 
HETATM    4  C   LIG     1      19.224  37.851  19.710  1.00  0.00     0.000 A 
HETATM    5  C   LIG     1      18.401  36.796  20.108  1.00  0.00     0.001 A 
HETATM    6  C   LIG     1      17.553  36.945  21.209  1.00  0.00     0.017 A 
ENDROOT
BRANCH   1   7
HETATM    7  C   LIG     1      16.616  38.300  23.095  1.00  0.00     0.249 C 
HETATM    8  N   LIG     1      15.210  38.066  22.981  1.00  0.00    -0.366 N 
HETATM    9  H   LIG     1      14.603  38.119  23.829  1.00  0.00     0.159 HD
HETATM   10  H   LIG     1      14.748  37.928  22.056  1.00  0.00     0.159 HD
HETATM   11  O   LIG     1      17.085  38.654  24.211  1.00  0.00    -0.268 OA
ENDBRANCH   1   7
TORSDOF 1
ENDMDL
MODEL 4
REMARK VINA RESULT:      -6.1      3.974      4.961
REMARK  1 active torsions:
REMARK  status: ('A' for Active; 'I' for Inactive)
REMARK       I    between atoms: N_1  and  C_2 
REMARK    1  A    between atoms: C_2  and  C_3 
ROOT
HETATM    1  C   LIG     1      17.865  36.873  20.769  1.00  0.00     0.031 A 
HETATM    2  C   LIG     1      17.695  38.009  21.583  1.00  0.00     0.017 A 
HETATM    3  C   LIG     1      18.464  39.157  21.368  1.00  0.00     0.001 A 
HETATM    4  C   LIG     1      19.406  39.187  20.337  1.00  0.00     0.000 A 
HETATM    5  C   LIG     1      19.577  38.071  19.516  1.00  0.00     0.001 A 
HETATM    6  C   LIG     1      18.810  36.921  19.726  1.00  0.00     0.017 A 
ENDROOT
BRANCH   1   7
HETATM    7  C   LIG     1      17.055  35.648  20.978  1.00  0.00     0.249 C 
HETATM    8  N   LIG     1      16.211  35.124  19.949  1.00  0.00    -0.366 N 
HETATM    9  H   LIG     1      15.697  34.229  20.103  1.00  0.00     0.159 HD
HETATM   10  H   LIG     1      16.018  35.655  19.072  1.00  0.00     0.159 HD
HETATM   11  O   LIG     1      17.093  35.057  22.091  1.00  0.00    -0.268 OA
ENDBRANCH   1   7
TORSDOF 1
ENDMDL
MODEL 5
REMARK VINA RESULT:      -6.0      4.150      5.026
REMARK  1 active torsions:
REMARK  status: ('A' for Active; 'I' for Inactive)
REMARK       I    between atoms: N_1  and  C_2 
REMARK    1  A    between atoms: C_2  and  C_3 
ROOT
HETATM    1  C   LIG     1      18.676  38.277  20.100  1.00  0.00     0.031 A 
HETATM    2  C   LIG     1      18.157  38.928  21.235  1.00  0.00     0.017 A 
HETATM    3  C   LIG     1      17.374  38.228  22.158  1.00  0.00     0.001 A 
HETATM    4  C   LIG     1      17.105  36.871  21.963  1.00  0.00     0.000 A 
HETATM    5  C   LIG     1      17.623  36.211  20.847  1.00  0.00     0.001 A 
HETATM    6  C   LIG     1      18.407  36.907  19.923  1.00  0.00     0.017 A 
ENDROOT
BRANCH   1   7
HETATM    7  C   LIG     1      19.513  39.002  19.113  1.00  0.00     0.249 C 
HETATM    8  N   LIG     1      18.989  39.418  17.848  1.00  0.00    -0.366 N 
HETATM    9  H   LIG     1      19.583  39.977  17.198  1.00  0.00     0.159 HD
HETATM   10  H   LIG     1      18.053  39.105  17.511  1.00  0.00     0.159 HD
HETATM   11  O   LIG     1      20.720  39.247  19.380  1.00  0.00    -0.268 OA
ENDBRANCH   1   7
TORSDOF 1
ENDMDL
MODEL 6
REMARK VINA RESULT:      -5.9      2.356      3.856
REMARK  1 active torsions:
REMARK  status: ('A' for Active; 'I' for Inactive)
REMARK       I    between atoms: N_1  and  C_2 
REMARK    1  A    between atoms: C_2  and  C_3 
ROOT
HETATM    1  C   LIG     1      17.203  36.901  23.668  1.00  0.00     0.031 A 
HETATM    2  C   LIG     1      16.994  35.554  23.314  1.00  0.00     0.017 A 
HETATM    3  C   LIG     1      17.037  35.158  21.974  1.00  0.00     0.001 A 
HETATM    4  C   LIG     1      17.294  36.097  20.973  1.00  0.00     0.000 A 
HETATM    5  C   LIG     1      17.513  37.434  21.311  1.00  0.00     0.001 A 
HETATM    6  C   LIG     1      17.473  37.835  22.650  1.00  0.00     0.017 A 
ENDROOT
BRANCH   1   7
HETATM    7  C   LIG     1      17.167  37.339  25.084  1.00  0.00     0.249 C 
HETATM    8  N   LIG     1      17.484  36.443  26.153  1.00  0.00    -0.366 N 
HETATM    9  H   LIG     1      17.509  36.794  27.136  1.00  0.00     0.159 HD
HETATM   10  H   LIG     1      17.609  35.420  25.995  1.00  0.00     0.159 HD
HETATM   11  O   LIG     1      16.835  38.523  25.363  1.00  0.00    -0.268 OA
ENDBRANCH   1   7
TORSDOF 1
ENDMDL
MODEL 7
REMARK VINA RESULT:      -5.9      8.990     10.195
REMARK  1 active torsions:
REMARK  status: ('A' for Active; 'I' for Inactive)
REMARK       I    between atoms: N_1  and  C_2 
REMARK    1  A    between atoms: C_2  and  C_3 
ROOT
HETATM    1  C   LIG     1      14.722  32.426  16.417  1.00  0.00     0.031 A 
HETATM    2  C   LIG     1      15.399  31.848  15.326  1.00  0.00     0.017 A 
HETATM    3  C   LIG     1      14.875  30.722  14.683  1.00  0.00     0.001 A 
HETATM    4  C   LIG     1      13.670  30.164  15.116  1.00  0.00     0.000 A 
HETATM    5  C   LIG     1      12.983  30.735  16.190  1.00  0.00     0.001 A 
HETATM    6  C   LIG     1      13.503  31.861  16.835  1.00  0.00     0.017 A 
ENDROOT
BRANCH   1   7
HETATM    7  C   LIG     1      15.259  33.624  17.108  1.00  0.00     0.249 C 
HETATM    8  N   LIG     1      15.231  33.742  18.533  1.00  0.00    -0.366 N 
HETATM    9  H   LIG     1      15.669  34.569  18.995  1.00  0.00     0.159 HD
HETATM   10  H   LIG     1      14.706  33.067  19.131  1.00  0.00     0.159 HD
HETATM   11  O   LIG     1      15.740  34.572  16.429  1.00  0.00    -0.268 OA
ENDBRANCH   1   7
TORSDOF 1
ENDMDL
MODEL 8
REMARK VINA RESULT:      -5.7      9.312     10.528
REMARK  1 active torsions:
REMARK  status: ('A' for Active; 'I' for Inactive)
REMARK       I    between atoms: N_1  and  C_2 
REMARK    1  A    between atoms: C_2  and  C_3 
ROOT
HETATM    1  C   LIG     1      14.708  32.051  16.342  1.00  0.00     0.031 A 
HETATM    2  C   LIG     1      13.548  31.261  16.449  1.00  0.00     0.017 A 
HETATM    3  C   LIG     1      13.275  30.270  15.501  1.00  0.00     0.001 A 
HETATM    4  C   LIG     1      14.156  30.053  14.440  1.00  0.00     0.000 A 
HETATM    5  C   LIG     1      15.316  30.822  14.328  1.00  0.00     0.001 A 
HETATM    6  C   LIG     1      15.594  31.813  15.274  1.00  0.00     0.017 A 
ENDROOT
BRANCH   1   7
HETATM    7  C   LIG     1      15.018  33.103  17.341  1.00  0.00     0.249 C 
HETATM    8  N   LIG     1      14.747  34.484  17.084  1.00  0.00    -0.366 N 
HETATM    9  H   LIG     1      14.921  35.195  17.828  1.00  0.00     0.159 HD
HETATM   10  H   LIG     1      14.462  34.822  16.140  1.00  0.00     0.159 HD
HETATM   11  O   LIG     1      15.547  32.782  18.440  1.00  0.00    -0.268 OA
ENDBRANCH   1   7
TORSDOF 1
ENDMDL
MODEL 9
REMARK VINA RESULT:      -5.6      2.005      2.266
REMARK  1 active torsions:
REMARK  status: ('A' for Active; 'I' for Inactive)
REMARK       I    between atoms: N_1  and  C_2 
REMARK    1  A    between atoms: C_2  and  C_3 
ROOT
HETATM    1  C   LIG     1      16.917  35.854  23.224  1.00  0.00     0.031 A 
HETATM    2  C   LIG     1      17.115  37.237  23.398  1.00  0.00     0.017 A 
HETATM    3  C   LIG     1      17.563  37.740  24.624  1.00  0.00     0.001 A 
HETATM    4  C   LIG     1      17.823  36.871  25.686  1.00  0.00     0.000 A 
HETATM    5  C   LIG     1      17.642  35.497  25.523  1.00  0.00     0.001 A 
HETATM    6  C   LIG     1      17.195  34.989  24.299  1.00  0.00     0.017 A 
ENDROOT
BRANCH   1   7
HETATM    7  C   LIG     1      16.448  35.301  21.930  1.00  0.00     0.249 C 
HETATM    8  N   LIG     1      17.088  35.636  20.696  1.00  0.00    -0.366 N 
HETATM    9  H   LIG     1      16.775  35.186  19.808  1.00  0.00     0.159 HD
HETATM   10  H   LIG     1      17.809  36.388  20.637  1.00  0.00     0.159 HD
HETATM   11  O   LIG     1      15.452  34.527  21.907  1.00  0.00    -0.268 OA
ENDBRANCH   1   7
TORSDOF 1
ENDMDL
MODEL 10
REMARK VINA RESULT:      -5.6     10.691     11.702
REMARK  1 active torsions:
REMARK  status: ('A' for Active; 'I' for Inactive)
REMARK       I    between atoms: N_1  and  C_2 
REMARK    1  A    between atoms: C_2  and  C_3 
ROOT
HETATM    1  C   LIG     1      14.155  30.441  15.153  1.00  0.00     0.031 A 
HETATM    2  C   LIG     1      13.245  30.751  16.182  1.00  0.00     0.017 A 
HETATM    3  C   LIG     1      13.457  31.861  17.005  1.00  0.00     0.001 A 
HETATM    4  C   LIG     1      14.574  32.677  16.808  1.00  0.00     0.000 A 
HETATM    5  C   LIG     1      15.477  32.387  15.784  1.00  0.00     0.001 A 
HETATM    6  C   LIG     1      15.269  31.279  14.958  1.00  0.00     0.017 A 
ENDROOT
BRANCH   1   7
HETATM    7  C   LIG     1      13.943  29.271  14.266  1.00  0.00     0.249 C 
HETATM    8  N   LIG     1      12.630  28.810  13.933  1.00  0.00    -0.366 N 
HETATM    9  H   LIG     1      12.511  28.022  13.260  1.00  0.00     0.159 HD
HETATM   10  H   LIG     1      11.780  29.181  14.411  1.00  0.00     0.159 HD
HETATM   11  O   LIG     1      14.939  28.652  13.801  1.00  0.00    -0.268 OA
ENDBRANCH   1   7
TORSDOF 1
ENDMDL
MODEL 11
REMARK VINA RESULT:      -5.6     10.714     11.692
REMARK  1 active torsions:
REMARK  status: ('A' for Active; 'I' for Inactive)
REMARK       I    between atoms: N_1  and  C_2 
REMARK    1  A    between atoms: C_2  and  C_3 
ROOT
HETATM    1  C   LIG     1      14.160  30.436  15.119  1.00  0.00     0.031 A 
HETATM    2  C   LIG     1      15.280  31.272  14.951  1.00  0.00     0.017 A 
HETATM    3  C   LIG     1      15.465  32.384  15.780  1.00  0.00     0.001 A 
HETATM    4  C   LIG     1      14.540  32.670  16.786  1.00  0.00     0.000 A 
HETATM    5  C   LIG     1      13.431  31.842  16.970  1.00  0.00     0.001 A 
HETATM    6  C   LIG     1      13.242  30.729  16.145  1.00  0.00     0.017 A 
ENDROOT
BRANCH   1   7
HETATM    7  C   LIG     1      13.949  29.249  14.254  1.00  0.00     0.249 C 
HETATM    8  N   LIG     1      12.637  28.796  13.911  1.00  0.00    -0.366 N 
HETATM    9  H   LIG     1      12.519  27.994  13.253  1.00  0.00     0.159 HD
HETATM   10  H   LIG     1      11.784  29.185  14.366  1.00  0.00     0.159 HD
HETATM   11  O   LIG     1      14.946  28.610  13.819  1.00  0.00    -0.268 OA
ENDBRANCH   1   7
TORSDOF 1
ENDMDL
MODEL 12
REMARK VINA RESULT:      -5.6     10.120     11.052
REMARK  1 active torsions:
REMARK  status: ('A' for Active; 'I' for Inactive)
REMARK       I    between atoms: N_1  and  C_2 
REMARK    1  A    between atoms: C_2  and  C_3 
ROOT
HETATM    1  C   LIG     1      15.400  31.759  15.143  1.00  0.00     0.031 A 
HETATM    2  C   LIG     1      14.870  32.274  16.341  1.00  0.00     0.017 A 
HETATM    3  C   LIG     1      13.701  31.736  16.889  1.00  0.00     0.001 A 
HETATM    4  C   LIG     1      13.052  30.676  16.253  1.00  0.00     0.000 A 
HETATM    5  C   LIG     1      13.574  30.148  15.070  1.00  0.00     0.001 A 
HETATM    6  C   LIG     1      14.742  30.682  14.519  1.00  0.00     0.017 A 
ENDROOT
BRANCH   1   7
HETATM    7  C   LIG     1      16.641  32.312  14.550  1.00  0.00     0.249 C 
HETATM    8  N   LIG     1      16.705  32.705  13.176  1.00  0.00    -0.366 N 
HETATM    9  H   LIG     1      17.573  33.146  12.800  1.00  0.00     0.159 HD
HETATM   10  H   LIG     1      15.938  32.484  12.505  1.00  0.00     0.159 HD
HETATM   11  O   LIG     1      17.675  32.430  15.263  1.00  0.00    -0.268 OA
ENDBRANCH   1   7
TORSDOF 1
ENDMDL
MODEL 13
REMARK VINA RESULT:      -5.5      9.951     11.198
REMARK  1 active torsions:
REMARK  status: ('A' for Active; 'I' for Inactive)
REMARK       I    between atoms: N_1  and  C_2 
REMARK    1  A    between atoms: C_2  and  C_3 
ROOT
HETATM    1  C   LIG     1      14.356  31.431  15.909  1.00  0.00     0.031 A 
HETATM    2  C   LIG     1      14.134  30.395  14.981  1.00  0.00     0.017 A 
HETATM    3  C   LIG     1      14.923  30.294  13.830  1.00  0.00     0.001 A 
HETATM    4  C   LIG     1      15.943  31.218  13.595  1.00  0.00     0.000 A 
HETATM    5  C   LIG     1      16.180  32.243  14.513  1.00  0.00     0.001 A 
HETATM    6  C   LIG     1      15.396  32.348  15.665  1.00  0.00     0.017 A 
ENDROOT
BRANCH   1   7
HETATM    7  C   LIG     1      13.535  31.552  17.138  1.00  0.00     0.249 C 
HETATM    8  N   LIG     1      14.115  31.912  18.394  1.00  0.00    -0.366 N 
HETATM    9  H   LIG     1      13.504  32.047  19.230  1.00  0.00     0.159 HD
HETATM   10  H   LIG     1      15.148  31.961  18.529  1.00  0.00     0.159 HD
HETATM   11  O   LIG     1      12.296  31.318  17.085  1.00  0.00    -0.268 OA
ENDBRANCH   1   7
TORSDOF 1
ENDMDL
MODEL 14
REMARK VINA RESULT:      -5.5      2.479      3.943
REMARK  1 active torsions:
REMARK  status: ('A' for Active; 'I' for Inactive)
REMARK       I    between atoms: N_1  and  C_2 
REMARK    1  A    between atoms: C_2  and  C_3 
ROOT
HETATM    1  C   LIG     1      17.351  36.494  24.356  1.00  0.00     0.031 A 
HETATM    2  C   LIG     1      17.034  35.807  23.169  1.00  0.00     0.017 A 
HETATM    3  C   LIG     1      16.953  36.492  21.952  1.00  0.00     0.001 A 
HETATM    4  C   LIG     1      17.193  37.867  21.905  1.00  0.00     0.000 A 
HETATM    5  C   LIG     1      17.520  38.559  23.073  1.00  0.00     0.001 A 
HETATM    6  C   LIG     1      17.603  37.878  24.291  1.00  0.00     0.017 A 
ENDROOT
BRANCH   1   7
HETATM    7  C   LIG     1      17.448  35.784  25.654  1.00  0.00     0.249 C 
HETATM    8  N   LIG     1      17.932  36.436  26.831  1.00  0.00    -0.366 N 
HETATM    9  H   LIG     1      17.934  35.930  27.744  1.00  0.00     0.159 HD
HETATM   10  H   LIG     1      18.371  37.382  26.795  1.00  0.00     0.159 HD
HETATM   11  O   LIG     1      17.110  34.571  25.728  1.00  0.00    -0.268 OA
ENDBRANCH   1   7
TORSDOF 1
ENDMDL
MODEL 15
REMARK VINA RESULT:      -5.4      3.782      4.459
REMARK  1 active torsions:
REMARK  status: ('A' for Active; 'I' for Inactive)
REMARK       I    between atoms: N_1  and  C_2 
REMARK    1  A    between atoms: C_2  and  C_3 
ROOT
HETATM    1  C   LIG     1      16.423  36.024  21.154  1.00  0.00     0.031 A 
HETATM    2  C   LIG     1      16.036  36.890  22.195  1.00  0.00     0.017 A 
HETATM    3  C   LIG     1      16.790  38.031  22.485  1.00  0.00     0.001 A 
HETATM    4  C   LIG     1      17.932  38.326  21.737  1.00  0.00     0.000 A 
HETATM    5  C   LIG     1      18.320  37.482  20.694  1.00  0.00     0.001 A 
HETATM    6  C   LIG     1      17.569  36.340  20.400  1.00  0.00     0.017 A 
ENDROOT
BRANCH   1   7
HETATM    7  C   LIG     1      15.633  34.812  20.827  1.00  0.00     0.249 C 
HETATM    8  N   LIG     1      15.619  34.260  19.508  1.00  0.00    -0.366 N 
HETATM    9  H   LIG     1      15.101  33.373  19.321  1.00  0.00     0.159 HD
HETATM   10  H   LIG     1      16.039  34.763  18.696  1.00  0.00     0.159 HD
HETATM   11  O   LIG     1      14.943  34.257  21.725  1.00  0.00    -0.268 OA
ENDBRANCH   1   7
TORSDOF 1
ENDMDL
MODEL 16
REMARK VINA RESULT:      -5.1      2.729      3.997
REMARK  1 active torsions:
REMARK  status: ('A' for Active; 'I' for Inactive)
REMARK       I    between atoms: N_1  and  C_2 
REMARK    1  A    between atoms: C_2  and  C_3 
ROOT
HETATM    1  C   LIG     1      16.440  36.768  22.589  1.00  0.00     0.031 A 
HETATM    2  C   LIG     1      15.122  36.793  22.095  1.00  0.00     0.017 A 
HETATM    3  C   LIG     1      14.667  35.786  21.238  1.00  0.00     0.001 A 
HETATM    4  C   LIG     1      15.517  34.740  20.871  1.00  0.00     0.000 A 
HETATM    5  C   LIG     1      16.823  34.698  21.364  1.00  0.00     0.001 A 
HETATM    6  C   LIG     1      17.282  35.702  22.221  1.00  0.00     0.017 A 
ENDROOT
BRANCH   1   7
HETATM    7  C   LIG     1      16.939  37.824  23.503  1.00  0.00     0.249 C 
HETATM    8  N   LIG     1      18.095  38.605  23.186  1.00  0.00    -0.366 N 
HETATM    9  H   LIG     1      18.389  39.380  23.820  1.00  0.00     0.159 HD
HETATM   10  H   LIG     1      18.714  38.369  22.380  1.00  0.00     0.159 HD
HETATM   11  O   LIG     1      16.345  38.036  24.595  1.00  0.00    -0.268 OA
ENDBRANCH   1   7
TORSDOF 1
ENDMDL
MODEL 17
REMARK VINA RESULT:      -4.9     10.208     11.342
REMARK  1 active torsions:
REMARK  status: ('A' for Active; 'I' for Inactive)
REMARK       I    between atoms: N_1  and  C_2 
REMARK    1  A    between atoms: C_2  and  C_3 
ROOT
HETATM    1  C   LIG     1      14.444  31.143  15.304  1.00  0.00     0.031 A 
HETATM    2  C   LIG     1      15.302  31.098  14.189  1.00  0.00     0.017 A 
HETATM    3  C   LIG     1      16.397  31.964  14.101  1.00  0.00     0.001 A 
HETATM    4  C   LIG     1      16.651  32.879  15.125  1.00  0.00     0.000 A 
HETATM    5  C   LIG     1      15.815  32.927  16.241  1.00  0.00     0.001 A 
HETATM    6  C   LIG     1      14.720  32.062  16.334  1.00  0.00     0.017 A 
ENDROOT
BRANCH   1   7
HETATM    7  C   LIG     1      13.282  30.229  15.418  1.00  0.00     0.249 C 
HETATM    8  N   LIG     1      12.415  30.258  16.555  1.00  0.00    -0.366 N 
HETATM    9  H   LIG     1      11.571  29.644  16.582  1.00  0.00     0.159 HD
HETATM   10  H   LIG     1      12.644  30.813  17.408  1.00  0.00     0.159 HD
HETATM   11  O   LIG     1      13.055  29.392  14.502  1.00  0.00    -0.268 OA
ENDBRANCH   1   7
TORSDOF 1
ENDMDL
MODEL 18
REMARK VINA RESULT:      -4.7     11.928     13.260
REMARK  1 active torsions:
REMARK  status: ('A' for Active; 'I' for Inactive)
REMARK       I    between atoms: N_1  and  C_2 
REMARK    1  A    between atoms: C_2  and  C_3 
ROOT
HETATM    1  C   LIG     1      18.893  34.330  12.174  1.00  0.00     0.031 A 
HETATM    2  C   LIG     1      18.685  34.837  10.876  1.00  0.00     0.017 A 
HETATM    3  C   LIG     1      19.772  35.114  10.041  1.00  0.00     0.001 A 
HETATM    4  C   LIG     1      21.075  34.883  10.486  1.00  0.00     0.000 A 
HETATM    5  C   LIG     1      21.295  34.370  11.765  1.00  0.00     0.001 A 
HETATM    6  C   LIG     1      20.211  34.090  12.604  1.00  0.00     0.017 A 
ENDROOT
BRANCH   1   7
HETATM    7  C   LIG     1      17.753  34.025  13.072  1.00  0.00     0.249 C 
HETATM    8  N   LIG     1      16.941  32.862  12.883  1.00  0.00    -0.366 N 
HETATM    9  H   LIG     1      16.183  32.641  13.566  1.00  0.00     0.159 HD
HETATM   10  H   LIG     1      17.022  32.267  12.031  1.00  0.00     0.159 HD
HETATM   11  O   LIG     1      17.477  34.811  14.019  1.00  0.00    -0.268 OA
ENDBRANCH   1   7
TORSDOF 1
ENDMDL
MODEL 19
REMARK VINA RESULT:      -4.4     10.337     11.507
REMARK  1 active torsions:
REMARK  status: ('A' for Active; 'I' for Inactive)
REMARK       I    between atoms: N_1  and  C_2 
REMARK    1  A    between atoms: C_2  and  C_3 
ROOT
HETATM    1  C   LIG     1      17.005  33.137  13.770  1.00  0.00     0.031 A 
HETATM    2  C   LIG     1      16.316  32.069  13.163  1.00  0.00     0.017 A 
HETATM    3  C   LIG     1      15.482  31.241  13.920  1.00  0.00     0.001 A 
HETATM    4  C   LIG     1      15.321  31.471  15.288  1.00  0.00     0.000 A 
HETATM    5  C   LIG     1      15.990  32.533  15.901  1.00  0.00     0.001 A 
HETATM    6  C   LIG     1      16.824  33.364  15.147  1.00  0.00     0.017 A 
ENDROOT
BRANCH   1   7
HETATM    7  C   LIG     1      17.889  34.030  12.982  1.00  0.00     0.249 C 
HETATM    8  N   LIG     1      17.423  34.698  11.806  1.00  0.00    -0.366 N 
HETATM    9  H   LIG     1      18.049  35.366  11.305  1.00  0.00     0.159 HD
HETATM   10  H   LIG     1      16.500  34.475  11.376  1.00  0.00     0.159 HD
HETATM   11  O   LIG     1      19.087  34.197  13.341  1.00  0.00    -0.268 OA
ENDBRANCH   1   7
TORSDOF 1
ENDMDL
MODEL 20
REMARK VINA RESULT:      -4.3      5.551      6.953
REMARK  1 active torsions:
REMARK  status: ('A' for Active; 'I' for Inactive)
REMARK       I    between atoms: N_1  and  C_2 
REMARK    1  A    between atoms: C_2  and  C_3 
ROOT
HETATM    1  C   LIG     1      15.352  34.155  19.537  1.00  0.00     0.031 A 
HETATM    2  C   LIG     1      15.180  32.814  19.930  1.00  0.00     0.017 A 
HETATM    3  C   LIG     1      14.924  31.823  18.977  1.00  0.00     0.001 A 
HETATM    4  C   LIG     1      14.843  32.156  17.623  1.00  0.00     0.000 A 
HETATM    5  C   LIG     1      15.023  33.481  17.219  1.00  0.00     0.001 A 
HETATM    6  C   LIG     1      15.280  34.474  18.168  1.00  0.00     0.017 A 
ENDROOT
BRANCH   1   7
HETATM    7  C   LIG     1      15.630  35.219  20.533  1.00  0.00     0.249 C 
HETATM    8  N   LIG     1      14.584  35.812  21.307  1.00  0.00    -0.366 N 
HETATM    9  H   LIG     1      14.816  36.516  22.041  1.00  0.00     0.159 HD
HETATM   10  H   LIG     1      13.577  35.630  21.103  1.00  0.00     0.159 HD
HETATM   11  O   LIG     1      16.812  35.626  20.696  1.00  0.00    -0.268 OA
ENDBRANCH   1   7
TORSDOF 1
ENDMDL
