REMARK  1 active torsions:
REMARK  status: ('A' for Active; 'I' for Inactive)
REMARK       I    between atoms: N_1  and  C_2 
REMARK    1  A    between atoms: C_2  and  C_3 
ROOT
HETATM    1  C   LIG     1       0.435   0.232   0.061  1.00  0.00     0.031 A 
HETATM    2  C   LIG     1      -0.207  -0.900  -0.477  1.00  0.00     0.017 A 
HETATM    3  C   LIG     1      -1.603  -0.984  -0.490  1.00  0.00     0.001 A 
HETATM    4  C   LIG     1      -2.373   0.060   0.027  1.00  0.00     0.000 A 
HETATM    5  C   LIG     1      -1.749   1.193   0.553  1.00  0.00     0.001 A 
HETATM    6  C   LIG     1      -0.354   1.282   0.567  1.00  0.00     0.017 A 
ENDROOT
BRANCH   1   7
HETATM    7  C   LIG     1       1.914   0.342   0.078  1.00  0.00     0.249 C 
HETATM    8  N   LIG     1       2.752  -0.816   0.023  1.00  0.00    -0.366 N 
HETATM    9  H   LIG     1       3.789  -0.706  -0.023  1.00  0.00     0.159 HD
HETATM   10  H   LIG     1       2.365  -1.780   0.116  1.00  0.00     0.159 HD
HETATM   11  O   LIG     1       2.454   1.479   0.158  1.00  0.00    -0.268 OA
ENDBRANCH   1   7
TORSDOF 1
