MODEL 1
REMARK VINA RESULT:      -8.1      0.000      0.000
REMARK  1 active torsions:
REMARK  status: ('A' for Active; 'I' for Inactive)
REMARK    1  A    between atoms: N_3  and  C_4 
ROOT
HETATM    1  S   LIG     1      15.651  34.769  19.423  1.00  0.00    -0.055 SA
HETATM    2  C   LIG     1      16.030  34.874  20.985  1.00  0.00     0.163 C 
HETATM    3  N   LIG     1      16.331  34.958  22.219  1.00  0.00    -0.233 NA
ENDROOT
BRANCH   3   4
HETATM    4  C   LIG     1      16.766  36.169  22.867  1.00  0.00     0.069 A 
HETATM    5  C   LIG     1      16.701  37.414  22.207  1.00  0.00     0.032 A 
HETATM    6  C   LIG     1      17.126  38.580  22.845  1.00  0.00     0.003 A 
HETATM    7  C   LIG     1      17.623  38.531  24.147  1.00  0.00     0.012 A 
HETATM    8  C   LIG     1      17.699  37.308  24.827  1.00  0.00    -0.024 A 
HETATM    9  C   LIG     1      18.199  37.259  26.137  1.00  0.00     0.012 A 
HETATM   10  C   LIG     1      17.270  36.115  24.188  1.00  0.00     0.003 A 
HETATM   11  C   LIG     1      18.276  36.042  26.816  1.00  0.00     0.001 A 
HETATM   12  C   LIG     1      17.856  34.865  26.195  1.00  0.00     0.001 A 
HETATM   13  C   LIG     1      17.356  34.896  24.891  1.00  0.00     0.014 A 
ENDBRANCH   3   4
TORSDOF 1
ENDMDL
MODEL 2
REMARK VINA RESULT:      -7.5      2.970      5.107
REMARK  1 active torsions:
REMARK  status: ('A' for Active; 'I' for Inactive)
REMARK    1  A    between atoms: N_3  and  C_4 
ROOT
HETATM    1  S   LIG     1      18.300  36.673  26.507  1.00  0.00    -0.055 SA
HETATM    2  C   LIG     1      17.487  37.145  25.199  1.00  0.00     0.163 C 
HETATM    3  N   LIG     1      16.846  37.518  24.165  1.00  0.00    -0.233 NA
ENDROOT
BRANCH   3   4
HETATM    4  C   LIG     1      16.999  36.928  22.859  1.00  0.00     0.069 A 
HETATM    5  C   LIG     1      16.448  35.664  22.561  1.00  0.00     0.032 A 
HETATM    6  C   LIG     1      16.603  35.102  21.292  1.00  0.00     0.003 A 
HETATM    7  C   LIG     1      17.306  35.784  20.300  1.00  0.00     0.012 A 
HETATM    8  C   LIG     1      17.864  37.041  20.569  1.00  0.00    -0.024 A 
HETATM    9  C   LIG     1      18.572  37.727  19.570  1.00  0.00     0.012 A 
HETATM   10  C   LIG     1      17.713  37.622  21.856  1.00  0.00     0.003 A 
HETATM   11  C   LIG     1      19.128  38.979  19.835  1.00  0.00     0.001 A 
HETATM   12  C   LIG     1      18.984  39.557  21.097  1.00  0.00     0.001 A 
HETATM   13  C   LIG     1      18.283  38.888  22.103  1.00  0.00     0.014 A 
ENDBRANCH   3   4
TORSDOF 1
ENDMDL
MODEL 3
REMARK VINA RESULT:      -7.3      2.200      3.178
REMARK  1 active torsions:
REMARK  status: ('A' for Active; 'I' for Inactive)
REMARK    1  A    between atoms: N_3  and  C_4 
ROOT
HETATM    1  S   LIG     1      19.365  39.309  19.756  1.00  0.00    -0.055 SA
HETATM    2  C   LIG     1      18.458  38.947  21.037  1.00  0.00     0.163 C 
HETATM    3  N   LIG     1      17.740  38.661  22.048  1.00  0.00    -0.233 NA
ENDROOT
BRANCH   3   4
HETATM    4  C   LIG     1      17.370  37.321  22.427  1.00  0.00     0.069 A 
HETATM    5  C   LIG     1      16.798  36.431  21.494  1.00  0.00     0.032 A 
HETATM    6  C   LIG     1      16.443  35.135  21.871  1.00  0.00     0.003 A 
HETATM    7  C   LIG     1      16.648  34.701  23.180  1.00  0.00     0.012 A 
HETATM    8  C   LIG     1      17.213  35.564  24.129  1.00  0.00    -0.024 A 
HETATM    9  C   LIG     1      17.419  35.128  25.447  1.00  0.00     0.012 A 
HETATM   10  C   LIG     1      17.578  36.885  23.756  1.00  0.00     0.003 A 
HETATM   11  C   LIG     1      17.981  35.985  26.393  1.00  0.00     0.001 A 
HETATM   12  C   LIG     1      18.343  37.284  26.034  1.00  0.00     0.001 A 
HETATM   13  C   LIG     1      18.146  37.735  24.727  1.00  0.00     0.014 A 
ENDBRANCH   3   4
TORSDOF 1
ENDMDL
MODEL 4
REMARK VINA RESULT:      -7.1      2.404      4.109
REMARK  1 active torsions:
REMARK  status: ('A' for Active; 'I' for Inactive)
REMARK    1  A    between atoms: N_3  and  C_4 
ROOT
HETATM    1  S   LIG     1      15.285  33.638  20.116  1.00  0.00    -0.055 SA
HETATM    2  C   LIG     1      16.304  34.424  21.086  1.00  0.00     0.163 C 
HETATM    3  N   LIG     1      17.109  35.045  21.851  1.00  0.00    -0.233 NA
ENDROOT
BRANCH   3   4
HETATM    4  C   LIG     1      17.127  36.475  22.020  1.00  0.00     0.069 A 
HETATM    5  C   LIG     1      16.359  37.102  23.023  1.00  0.00     0.032 A 
HETATM    6  C   LIG     1      16.383  38.489  23.177  1.00  0.00     0.003 A 
HETATM    7  C   LIG     1      17.169  39.277  22.338  1.00  0.00     0.012 A 
HETATM    8  C   LIG     1      17.943  38.682  21.332  1.00  0.00    -0.024 A 
HETATM    9  C   LIG     1      18.734  39.476  20.488  1.00  0.00     0.012 A 
HETATM   10  C   LIG     1      17.925  37.272  21.166  1.00  0.00     0.003 A 
HETATM   11  C   LIG     1      19.504  38.886  19.485  1.00  0.00     0.001 A 
HETATM   12  C   LIG     1      19.493  37.501  19.316  1.00  0.00     0.001 A 
HETATM   13  C   LIG     1      18.712  36.696  20.148  1.00  0.00     0.014 A 
ENDBRANCH   3   4
TORSDOF 1
ENDMDL
MODEL 5
REMARK VINA RESULT:      -7.0      2.838      4.570
REMARK  1 active torsions:
REMARK  status: ('A' for Active; 'I' for Inactive)
REMARK    1  A    between atoms: N_3  and  C_4 
ROOT
HETATM    1  S   LIG     1      18.286  36.666  26.526  1.00  0.00    -0.055 SA
HETATM    2  C   LIG     1      17.708  37.594  25.343  1.00  0.00     0.163 C 
HETATM    3  N   LIG     1      17.253  38.327  24.408  1.00  0.00    -0.233 NA
ENDROOT
BRANCH   3   4
HETATM    4  C   LIG     1      17.673  38.242  23.032  1.00  0.00     0.069 A 
HETATM    5  C   LIG     1      18.499  39.231  22.459  1.00  0.00     0.032 A 
HETATM    6  C   LIG     1      18.900  39.139  21.125  1.00  0.00     0.003 A 
HETATM    7  C   LIG     1      18.488  38.064  20.339  1.00  0.00     0.012 A 
HETATM    8  C   LIG     1      17.666  37.067  20.881  1.00  0.00    -0.024 A 
HETATM    9  C   LIG     1      17.251  35.986  20.089  1.00  0.00     0.012 A 
HETATM   10  C   LIG     1      17.252  37.151  22.237  1.00  0.00     0.003 A 
HETATM   11  C   LIG     1      16.433  34.992  20.627  1.00  0.00     0.001 A 
HETATM   12  C   LIG     1      16.021  35.067  21.958  1.00  0.00     0.001 A 
HETATM   13  C   LIG     1      16.426  36.136  22.761  1.00  0.00     0.014 A 
ENDBRANCH   3   4
TORSDOF 1
ENDMDL
MODEL 6
REMARK VINA RESULT:      -6.8      3.145      4.220
REMARK  1 active torsions:
REMARK  status: ('A' for Active; 'I' for Inactive)
REMARK    1  A    between atoms: N_3  and  C_4 
ROOT
HETATM    1  S   LIG     1      18.692  39.758  16.739  1.00  0.00    -0.055 SA
HETATM    2  C   LIG     1      18.862  38.731  17.969  1.00  0.00     0.163 C 
HETATM    3  N   LIG     1      18.997  37.921  18.941  1.00  0.00    -0.233 NA
ENDROOT
BRANCH   3   4
HETATM    4  C   LIG     1      18.550  38.185  20.285  1.00  0.00     0.069 A 
HETATM    5  C   LIG     1      18.825  39.416  20.917  1.00  0.00     0.032 A 
HETATM    6  C   LIG     1      18.387  39.661  22.219  1.00  0.00     0.003 A 
HETATM    7  C   LIG     1      17.669  38.689  22.916  1.00  0.00     0.012 A 
HETATM    8  C   LIG     1      17.382  37.457  22.313  1.00  0.00    -0.024 A 
HETATM    9  C   LIG     1      16.660  36.479  23.015  1.00  0.00     0.012 A 
HETATM   10  C   LIG     1      17.823  37.197  20.988  1.00  0.00     0.003 A 
HETATM   11  C   LIG     1      16.373  35.252  22.416  1.00  0.00     0.001 A 
HETATM   12  C   LIG     1      16.803  34.988  21.115  1.00  0.00     0.001 A 
HETATM   13  C   LIG     1      17.522  35.951  20.402  1.00  0.00     0.014 A 
ENDBRANCH   3   4
TORSDOF 1
ENDMDL
MODEL 7
REMARK VINA RESULT:      -6.7      8.111     10.282
REMARK  1 active torsions:
REMARK  status: ('A' for Active; 'I' for Inactive)
REMARK    1  A    between atoms: N_3  and  C_4 
ROOT
HETATM    1  S   LIG     1      19.207  33.752  12.291  1.00  0.00    -0.055 SA
HETATM    2  C   LIG     1      18.017  33.639  13.371  1.00  0.00     0.163 C 
HETATM    3  N   LIG     1      17.076  33.549  14.223  1.00  0.00    -0.233 NA
ENDROOT
BRANCH   3   4
HETATM    4  C   LIG     1      16.188  32.421  14.335  1.00  0.00     0.069 A 
HETATM    5  C   LIG     1      16.029  31.508  13.271  1.00  0.00     0.032 A 
HETATM    6  C   LIG     1      15.166  30.418  13.390  1.00  0.00     0.003 A 
HETATM    7  C   LIG     1      14.445  30.216  14.566  1.00  0.00     0.012 A 
HETATM    8  C   LIG     1      14.582  31.106  15.639  1.00  0.00    -0.024 A 
HETATM    9  C   LIG     1      13.855  30.903  16.822  1.00  0.00     0.012 A 
HETATM   10  C   LIG     1      15.457  32.219  15.529  1.00  0.00     0.003 A 
HETATM   11  C   LIG     1      13.990  31.788  17.892  1.00  0.00     0.001 A 
HETATM   12  C   LIG     1      14.849  32.883  17.793  1.00  0.00     0.001 A 
HETATM   13  C   LIG     1      15.579  33.101  16.622  1.00  0.00     0.014 A 
ENDBRANCH   3   4
TORSDOF 1
ENDMDL
MODEL 8
REMARK VINA RESULT:      -6.6      8.439     10.561
REMARK  1 active torsions:
REMARK  status: ('A' for Active; 'I' for Inactive)
REMARK    1  A    between atoms: N_3  and  C_4 
ROOT
HETATM    1  S   LIG     1      17.980  34.216  12.677  1.00  0.00    -0.055 SA
HETATM    2  C   LIG     1      17.657  33.227  13.908  1.00  0.00     0.163 C 
HETATM    3  N   LIG     1      17.403  32.447  14.881  1.00  0.00    -0.233 NA
ENDROOT
BRANCH   3   4
HETATM    4  C   LIG     1      16.122  32.359  15.535  1.00  0.00     0.069 A 
HETATM    5  C   LIG     1      15.752  33.274  16.543  1.00  0.00     0.032 A 
HETATM    6  C   LIG     1      14.509  33.178  17.170  1.00  0.00     0.003 A 
HETATM    7  C   LIG     1      13.613  32.173  16.809  1.00  0.00     0.012 A 
HETATM    8  C   LIG     1      13.954  31.250  15.811  1.00  0.00    -0.024 A 
HETATM    9  C   LIG     1      13.052  30.238  15.449  1.00  0.00     0.012 A 
HETATM   10  C   LIG     1      15.216  31.337  15.166  1.00  0.00     0.003 A 
HETATM   11  C   LIG     1      13.389  29.317  14.456  1.00  0.00     0.001 A 
HETATM   12  C   LIG     1      14.627  29.396  13.817  1.00  0.00     0.001 A 
HETATM   13  C   LIG     1      15.537  30.397  14.166  1.00  0.00     0.014 A 
ENDBRANCH   3   4
TORSDOF 1
ENDMDL
MODEL 9
REMARK VINA RESULT:      -6.5      2.473      4.187
REMARK  1 active torsions:
REMARK  status: ('A' for Active; 'I' for Inactive)
REMARK    1  A    between atoms: N_3  and  C_4 
ROOT
HETATM    1  S   LIG     1      20.146  38.903  19.537  1.00  0.00    -0.055 SA
HETATM    2  C   LIG     1      19.102  39.169  20.735  1.00  0.00     0.163 C 
HETATM    3  N   LIG     1      18.276  39.378  21.681  1.00  0.00    -0.233 NA
ENDROOT
BRANCH   3   4
HETATM    4  C   LIG     1      17.917  38.400  22.675  1.00  0.00     0.069 A 
HETATM    5  C   LIG     1      18.086  38.662  24.051  1.00  0.00     0.032 A 
HETATM    6  C   LIG     1      17.735  37.706  25.006  1.00  0.00     0.003 A 
HETATM    7  C   LIG     1      17.213  36.475  24.612  1.00  0.00     0.012 A 
HETATM    8  C   LIG     1      17.035  36.187  23.252  1.00  0.00    -0.024 A 
HETATM    9  C   LIG     1      16.510  34.947  22.856  1.00  0.00     0.012 A 
HETATM   10  C   LIG     1      17.388  37.152  22.272  1.00  0.00     0.003 A 
HETATM   11  C   LIG     1      16.332  34.658  21.503  1.00  0.00     0.001 A 
HETATM   12  C   LIG     1      16.677  35.601  20.533  1.00  0.00     0.001 A 
HETATM   13  C   LIG     1      17.201  36.840  20.910  1.00  0.00     0.014 A 
ENDBRANCH   3   4
TORSDOF 1
ENDMDL
MODEL 10
REMARK VINA RESULT:      -6.4      1.930      2.922
REMARK  1 active torsions:
REMARK  status: ('A' for Active; 'I' for Inactive)
REMARK    1  A    between atoms: N_3  and  C_4 
ROOT
HETATM    1  S   LIG     1      15.319  32.578  19.631  1.00  0.00    -0.055 SA
HETATM    2  C   LIG     1      15.623  33.816  20.616  1.00  0.00     0.163 C 
HETATM    3  N   LIG     1      15.864  34.795  21.394  1.00  0.00    -0.233 NA
ENDROOT
BRANCH   3   4
HETATM    4  C   LIG     1      16.781  35.863  21.092  1.00  0.00     0.069 A 
HETATM    5  C   LIG     1      17.384  35.971  19.821  1.00  0.00     0.032 A 
HETATM    6  C   LIG     1      18.272  37.010  19.539  1.00  0.00     0.003 A 
HETATM    7  C   LIG     1      18.577  37.960  20.514  1.00  0.00     0.012 A 
HETATM    8  C   LIG     1      17.993  37.878  21.785  1.00  0.00    -0.024 A 
HETATM    9  C   LIG     1      18.301  38.833  22.766  1.00  0.00     0.012 A 
HETATM   10  C   LIG     1      17.089  36.824  22.083  1.00  0.00     0.003 A 
HETATM   11  C   LIG     1      17.721  38.753  24.033  1.00  0.00     0.001 A 
HETATM   12  C   LIG     1      16.831  37.721  24.333  1.00  0.00     0.001 A 
HETATM   13  C   LIG     1      16.514  36.762  23.369  1.00  0.00     0.014 A 
ENDBRANCH   3   4
TORSDOF 1
ENDMDL
MODEL 11
REMARK VINA RESULT:      -6.3      7.414     10.309
REMARK  1 active torsions:
REMARK  status: ('A' for Active; 'I' for Inactive)
REMARK    1  A    between atoms: N_3  and  C_4 
ROOT
HETATM    1  S   LIG     1      14.841  31.502  20.070  1.00  0.00    -0.055 SA
HETATM    2  C   LIG     1      14.835  32.219  18.627  1.00  0.00     0.163 C 
HETATM    3  N   LIG     1      14.831  32.786  17.487  1.00  0.00    -0.233 NA
ENDROOT
BRANCH   3   4
HETATM    4  C   LIG     1      14.953  32.086  16.234  1.00  0.00     0.069 A 
HETATM    5  C   LIG     1      14.174  30.944  15.957  1.00  0.00     0.032 A 
HETATM    6  C   LIG     1      14.301  30.274  14.739  1.00  0.00     0.003 A 
HETATM    7  C   LIG     1      15.204  30.725  13.777  1.00  0.00     0.012 A 
HETATM    8  C   LIG     1      15.991  31.857  14.025  1.00  0.00    -0.024 A 
HETATM    9  C   LIG     1      16.900  32.311  13.057  1.00  0.00     0.012 A 
HETATM   10  C   LIG     1      15.870  32.547  15.261  1.00  0.00     0.003 A 
HETATM   11  C   LIG     1      17.686  33.438  13.303  1.00  0.00     0.001 A 
HETATM   12  C   LIG     1      17.573  34.121  14.514  1.00  0.00     0.001 A 
HETATM   13  C   LIG     1      16.673  33.683  15.489  1.00  0.00     0.014 A 
ENDBRANCH   3   4
TORSDOF 1
ENDMDL
MODEL 12
REMARK VINA RESULT:      -6.2      7.146     10.244
REMARK  1 active torsions:
REMARK  status: ('A' for Active; 'I' for Inactive)
REMARK    1  A    between atoms: N_3  and  C_4 
ROOT
HETATM    1  S   LIG     1      15.149  31.956  19.787  1.00  0.00    -0.055 SA
HETATM    2  C   LIG     1      15.174  32.816  18.425  1.00  0.00     0.163 C 
HETATM    3  N   LIG     1      15.194  33.495  17.348  1.00  0.00    -0.233 NA
ENDROOT
BRANCH   3   4
HETATM    4  C   LIG     1      15.689  33.003  16.088  1.00  0.00     0.069 A 
HETATM    5  C   LIG     1      16.771  33.629  15.434  1.00  0.00     0.032 A 
HETATM    6  C   LIG     1      17.242  33.144  14.213  1.00  0.00     0.003 A 
HETATM    7  C   LIG     1      16.648  32.030  13.621  1.00  0.00     0.012 A 
HETATM    8  C   LIG     1      15.571  31.388  14.248  1.00  0.00    -0.024 A 
HETATM    9  C   LIG     1      14.973  30.268  13.651  1.00  0.00     0.012 A 
HETATM   10  C   LIG     1      15.083  31.874  15.490  1.00  0.00     0.003 A 
HETATM   11  C   LIG     1      13.900  29.628  14.273  1.00  0.00     0.001 A 
HETATM   12  C   LIG     1      13.415  30.098  15.494  1.00  0.00     0.001 A 
HETATM   13  C   LIG     1      13.999  31.212  16.102  1.00  0.00     0.014 A 
ENDBRANCH   3   4
TORSDOF 1
ENDMDL
MODEL 13
REMARK VINA RESULT:      -6.2      2.688      3.888
REMARK  1 active torsions:
REMARK  status: ('A' for Active; 'I' for Inactive)
REMARK    1  A    between atoms: N_3  and  C_4 
ROOT
HETATM    1  S   LIG     1      18.895  39.345  17.433  1.00  0.00    -0.055 SA
HETATM    2  C   LIG     1      18.892  38.966  18.998  1.00  0.00     0.163 C 
HETATM    3  N   LIG     1      18.889  38.667  20.236  1.00  0.00    -0.233 NA
ENDROOT
BRANCH   3   4
HETATM    4  C   LIG     1      18.098  37.610  20.812  1.00  0.00     0.069 A 
HETATM    5  C   LIG     1      17.650  36.525  20.031  1.00  0.00     0.032 A 
HETATM    6  C   LIG     1      16.884  35.506  20.600  1.00  0.00     0.003 A 
HETATM    7  C   LIG     1      16.548  35.549  21.952  1.00  0.00     0.012 A 
HETATM    8  C   LIG     1      16.979  36.616  22.753  1.00  0.00    -0.024 A 
HETATM    9  C   LIG     1      16.640  36.659  24.114  1.00  0.00     0.012 A 
HETATM   10  C   LIG     1      17.759  37.657  22.184  1.00  0.00     0.003 A 
HETATM   11  C   LIG     1      17.067  37.720  24.912  1.00  0.00     0.001 A 
HETATM   12  C   LIG     1      17.835  38.748  24.362  1.00  0.00     0.001 A 
HETATM   13  C   LIG     1      18.181  38.720  23.009  1.00  0.00     0.014 A 
ENDBRANCH   3   4
TORSDOF 1
ENDMDL
MODEL 14
REMARK VINA RESULT:      -6.0      8.759     10.482
REMARK  1 active torsions:
REMARK  status: ('A' for Active; 'I' for Inactive)
REMARK    1  A    between atoms: N_3  and  C_4 
ROOT
HETATM    1  S   LIG     1      15.390  27.512  13.526  1.00  0.00    -0.055 SA
HETATM    2  C   LIG     1      14.533  28.807  13.951  1.00  0.00     0.163 C 
HETATM    3  N   LIG     1      13.855  29.831  14.289  1.00  0.00    -0.233 NA
ENDROOT
BRANCH   3   4
HETATM    4  C   LIG     1      14.274  30.790  15.279  1.00  0.00     0.069 A 
HETATM    5  C   LIG     1      13.685  30.820  16.560  1.00  0.00     0.032 A 
HETATM    6  C   LIG     1      14.098  31.755  17.511  1.00  0.00     0.003 A 
HETATM    7  C   LIG     1      15.101  32.673  17.207  1.00  0.00     0.012 A 
HETATM    8  C   LIG     1      15.704  32.666  15.942  1.00  0.00    -0.024 A 
HETATM    9  C   LIG     1      16.713  33.592  15.636  1.00  0.00     0.012 A 
HETATM   10  C   LIG     1      15.291  31.721  14.966  1.00  0.00     0.003 A 
HETATM   11  C   LIG     1      17.315  33.587  14.377  1.00  0.00     0.001 A 
HETATM   12  C   LIG     1      16.915  32.661  13.412  1.00  0.00     0.001 A 
HETATM   13  C   LIG     1      15.912  31.733  13.700  1.00  0.00     0.014 A 
ENDBRANCH   3   4
TORSDOF 1
ENDMDL
MODEL 15
REMARK VINA RESULT:      -5.6      8.260     10.196
REMARK  1 active torsions:
REMARK  status: ('A' for Active; 'I' for Inactive)
REMARK    1  A    between atoms: N_3  and  C_4 
ROOT
HETATM    1  S   LIG     1      15.384  27.206  13.036  1.00  0.00    -0.055 SA
HETATM    2  C   LIG     1      14.776  28.563  13.657  1.00  0.00     0.163 C 
HETATM    3  N   LIG     1      14.297  29.635  14.149  1.00  0.00    -0.233 NA
ENDROOT
BRANCH   3   4
HETATM    4  C   LIG     1      15.052  30.846  14.343  1.00  0.00     0.069 A 
HETATM    5  C   LIG     1      15.882  31.360  13.324  1.00  0.00     0.032 A 
HETATM    6  C   LIG     1      16.610  32.534  13.523  1.00  0.00     0.003 A 
HETATM    7  C   LIG     1      16.527  33.218  14.736  1.00  0.00     0.012 A 
HETATM    8  C   LIG     1      15.710  32.730  15.766  1.00  0.00    -0.024 A 
HETATM    9  C   LIG     1      15.628  33.418  16.986  1.00  0.00     0.012 A 
HETATM   10  C   LIG     1      14.966  31.536  15.574  1.00  0.00     0.003 A 
HETATM   11  C   LIG     1      14.816  32.934  18.013  1.00  0.00     0.001 A 
HETATM   12  C   LIG     1      14.081  31.762  17.833  1.00  0.00     0.001 A 
HETATM   13  C   LIG     1      14.152  31.065  16.624  1.00  0.00     0.014 A 
ENDBRANCH   3   4
TORSDOF 1
ENDMDL
