REMARK  1 active torsions:
REMARK  status: ('A' for Active; 'I' for Inactive)
REMARK    1  A    between atoms: N_3  and  C_4 
ROOT
HETATM    1  S   LIG     1       4.486  -2.717   0.212  1.00  0.00    -0.055 SA
HETATM    2  C   LIG     1       2.943  -2.296   0.018  1.00  0.00     0.163 C 
HETATM    3  N   LIG     1       1.724  -1.963  -0.134  1.00  0.00    -0.233 NA
ENDROOT
BRANCH   3   4
HETATM    4  C   LIG     1       1.214  -0.633   0.081  1.00  0.00     0.069 A 
HETATM    5  C   LIG     1       2.063   0.417   0.489  1.00  0.00     0.032 A 
HETATM    6  C   LIG     1       1.558   1.702   0.695  1.00  0.00     0.003 A 
HETATM    7  C   LIG     1       0.203   1.966   0.500  1.00  0.00     0.012 A 
HETATM    8  C   LIG     1      -0.664   0.942   0.095  1.00  0.00    -0.024 A 
HETATM    9  C   LIG     1      -2.028   1.208  -0.100  1.00  0.00     0.012 A 
HETATM   10  C   LIG     1      -0.161  -0.369  -0.117  1.00  0.00     0.003 A 
HETATM   11  C   LIG     1      -2.893   0.190  -0.503  1.00  0.00     0.001 A 
HETATM   12  C   LIG     1      -2.407  -1.101  -0.714  1.00  0.00     0.001 A 
HETATM   13  C   LIG     1      -1.052  -1.383  -0.524  1.00  0.00     0.014 A 
ENDBRANCH   3   4
TORSDOF 1
