MODEL 1
REMARK VINA RESULT:      -7.0      0.000      0.000
REMARK  5 active torsions:
REMARK  status: ('A' for Active; 'I' for Inactive)
REMARK    1  A    between atoms: O_1  and  C_2 
REMARK    2  A    between atoms: C_2  and  C_3 
REMARK    3  A    between atoms: C_3  and  C_6 
REMARK    4  A    between atoms: C_3  and  C_4 
REMARK    5  A    between atoms: C_4  and  O_5 
ROOT
HETATM    1  C   LIG     1      16.803  36.754  22.406  1.00  0.00     0.140 C 
ENDROOT
BRANCH   1   2
HETATM    2  C   LIG     1      16.090  37.787  23.247  1.00  0.00     0.150 C 
HETATM    3  O   LIG     1      16.244  37.821  24.497  1.00  0.00    -0.649 OA
BRANCH   2   4
HETATM    4  O   LIG     1      15.208  38.683  22.650  1.00  0.00    -0.776 OA
HETATM    5  H   LIG     1      15.085  38.706  21.645  1.00  0.00     0.167 HD
ENDBRANCH   2   4
ENDBRANCH   1   2
BRANCH   1   6
HETATM    6  C   LIG     1      17.733  37.415  21.406  1.00  0.00    -0.042 A 
HETATM    7  C   LIG     1      18.174  38.742  21.583  1.00  0.00     0.008 A 
HETATM    8  C   LIG     1      19.027  39.336  20.649  1.00  0.00     0.001 A 
HETATM    9  C   LIG     1      19.449  38.616  19.529  1.00  0.00     0.000 A 
HETATM   10  C   LIG     1      19.021  37.301  19.342  1.00  0.00     0.001 A 
HETATM   11  C   LIG     1      18.167  36.701  20.273  1.00  0.00     0.008 A 
ENDBRANCH   1   6
BRANCH   1  12
HETATM   12  C   LIG     1      15.842  35.759  21.726  1.00  0.00     0.184 C 
BRANCH  12  13
HETATM   13  O   LIG     1      14.528  36.245  21.713  1.00  0.00    -0.400 OA
HETATM   14  H   LIG     1      14.085  35.820  20.933  1.00  0.00     0.209 HD
ENDBRANCH  12  13
ENDBRANCH   1  12
TORSDOF 5
ENDMDL
MODEL 2
REMARK VINA RESULT:      -6.9      2.748      4.271
REMARK  5 active torsions:
REMARK  status: ('A' for Active; 'I' for Inactive)
REMARK    1  A    between atoms: O_1  and  C_2 
REMARK    2  A    between atoms: C_2  and  C_3 
REMARK    3  A    between atoms: C_3  and  C_6 
REMARK    4  A    between atoms: C_3  and  C_4 
REMARK    5  A    between atoms: C_4  and  O_5 
ROOT
HETATM    1  C   LIG     1      16.471  36.252  23.001  1.00  0.00     0.140 C 
ENDROOT
BRANCH   1   2
HETATM    2  C   LIG     1      16.352  37.686  22.541  1.00  0.00     0.150 C 
HETATM    3  O   LIG     1      17.250  38.216  21.835  1.00  0.00    -0.649 OA
BRANCH   2   4
HETATM    4  O   LIG     1      15.264  38.458  22.942  1.00  0.00    -0.776 OA
HETATM    5  H   LIG     1      15.385  39.252  23.560  1.00  0.00     0.167 HD
ENDBRANCH   2   4
ENDBRANCH   1   2
BRANCH   1   6
HETATM    6  C   LIG     1      17.184  36.166  24.337  1.00  0.00    -0.042 A 
HETATM    7  C   LIG     1      17.684  37.320  24.975  1.00  0.00     0.008 A 
HETATM    8  C   LIG     1      18.342  37.220  26.203  1.00  0.00     0.001 A 
HETATM    9  C   LIG     1      18.510  35.974  26.811  1.00  0.00     0.000 A 
HETATM   10  C   LIG     1      18.018  34.824  26.190  1.00  0.00     0.001 A 
HETATM   11  C   LIG     1      17.359  34.917  24.960  1.00  0.00     0.008 A 
ENDBRANCH   1   6
BRANCH   1  12
HETATM   12  C   LIG     1      17.116  35.331  21.947  1.00  0.00     0.184 C 
BRANCH  12  13
HETATM   13  O   LIG     1      16.814  35.753  20.645  1.00  0.00    -0.400 OA
HETATM   14  H   LIG     1      17.555  36.356  20.372  1.00  0.00     0.209 HD
ENDBRANCH  12  13
ENDBRANCH   1  12
TORSDOF 5
ENDMDL
MODEL 3
REMARK VINA RESULT:      -6.9      2.539      4.597
REMARK  5 active torsions:
REMARK  status: ('A' for Active; 'I' for Inactive)
REMARK    1  A    between atoms: O_1  and  C_2 
REMARK    2  A    between atoms: C_2  and  C_3 
REMARK    3  A    between atoms: C_3  and  C_6 
REMARK    4  A    between atoms: C_3  and  C_4 
REMARK    5  A    between atoms: C_4  and  O_5 
ROOT
HETATM    1  C   LIG     1      17.078  37.318  22.692  1.00  0.00     0.140 C 
ENDROOT
BRANCH   1   2
HETATM    2  C   LIG     1      16.588  36.265  21.726  1.00  0.00     0.150 C 
HETATM    3  O   LIG     1      17.392  35.646  20.980  1.00  0.00    -0.649 OA
BRANCH   2   4
HETATM    4  O   LIG     1      15.225  36.004  21.612  1.00  0.00    -0.776 OA
HETATM    5  H   LIG     1      14.581  36.714  21.283  1.00  0.00     0.167 HD
ENDBRANCH   2   4
ENDBRANCH   1   2
BRANCH   1   6
HETATM    6  C   LIG     1      17.437  36.703  24.031  1.00  0.00    -0.042 A 
HETATM    7  C   LIG     1      17.171  35.346  24.308  1.00  0.00     0.008 A 
HETATM    8  C   LIG     1      17.505  34.798  25.549  1.00  0.00     0.001 A 
HETATM    9  C   LIG     1      18.105  35.593  26.528  1.00  0.00     0.000 A 
HETATM   10  C   LIG     1      18.375  36.938  26.267  1.00  0.00     0.001 A 
HETATM   11  C   LIG     1      18.043  37.492  25.026  1.00  0.00     0.008 A 
ENDBRANCH   1   6
BRANCH   1  12
HETATM   12  C   LIG     1      16.100  38.499  22.847  1.00  0.00     0.184 C 
BRANCH  12  13
HETATM   13  O   LIG     1      14.915  38.102  23.481  1.00  0.00    -0.400 OA
HETATM   14  H   LIG     1      14.213  38.733  23.172  1.00  0.00     0.209 HD
ENDBRANCH  12  13
ENDBRANCH   1  12
TORSDOF 5
ENDMDL
MODEL 4
REMARK VINA RESULT:      -6.8      2.695      4.456
REMARK  5 active torsions:
REMARK  status: ('A' for Active; 'I' for Inactive)
REMARK    1  A    between atoms: O_1  and  C_2 
REMARK    2  A    between atoms: C_2  and  C_3 
REMARK    3  A    between atoms: C_3  and  C_6 
REMARK    4  A    between atoms: C_3  and  C_4 
REMARK    5  A    between atoms: C_4  and  O_5 
ROOT
HETATM    1  C   LIG     1      17.131  37.180  22.805  1.00  0.00     0.140 C 
ENDROOT
BRANCH   1   2
HETATM    2  C   LIG     1      15.630  37.242  22.651  1.00  0.00     0.150 C 
HETATM    3  O   LIG     1      15.035  36.517  21.810  1.00  0.00    -0.649 OA
BRANCH   2   4
HETATM    4  O   LIG     1      14.888  38.146  23.407  1.00  0.00    -0.776 OA
HETATM    5  H   LIG     1      14.854  38.081  24.417  1.00  0.00     0.167 HD
ENDBRANCH   2   4
ENDBRANCH   1   2
BRANCH   1   6
HETATM    6  C   LIG     1      17.517  36.651  24.174  1.00  0.00    -0.042 A 
HETATM    7  C   LIG     1      18.140  37.480  25.129  1.00  0.00     0.008 A 
HETATM    8  C   LIG     1      18.492  36.974  26.384  1.00  0.00     0.001 A 
HETATM    9  C   LIG     1      18.227  35.641  26.701  1.00  0.00     0.000 A 
HETATM   10  C   LIG     1      17.609  34.809  25.765  1.00  0.00     0.001 A 
HETATM   11  C   LIG     1      17.255  35.310  24.508  1.00  0.00     0.008 A 
ENDBRANCH   1   6
BRANCH   1  12
HETATM   12  C   LIG     1      17.827  38.519  22.492  1.00  0.00     0.184 C 
BRANCH  12  13
HETATM   13  O   LIG     1      18.395  38.512  21.210  1.00  0.00    -0.400 OA
HETATM   14  H   LIG     1      19.333  38.818  21.324  1.00  0.00     0.209 HD
ENDBRANCH  12  13
ENDBRANCH   1  12
TORSDOF 5
ENDMDL
MODEL 5
REMARK VINA RESULT:      -6.7      0.822      2.528
REMARK  5 active torsions:
REMARK  status: ('A' for Active; 'I' for Inactive)
REMARK    1  A    between atoms: O_1  and  C_2 
REMARK    2  A    between atoms: C_2  and  C_3 
REMARK    3  A    between atoms: C_3  and  C_6 
REMARK    4  A    between atoms: C_3  and  C_4 
REMARK    5  A    between atoms: C_4  and  O_5 
ROOT
HETATM    1  C   LIG     1      16.409  37.126  22.317  1.00  0.00     0.140 C 
ENDROOT
BRANCH   1   2
HETATM    2  C   LIG     1      15.701  35.870  21.864  1.00  0.00     0.150 C 
HETATM    3  O   LIG     1      16.198  34.733  22.083  1.00  0.00    -0.649 OA
BRANCH   2   4
HETATM    4  O   LIG     1      14.510  35.961  21.148  1.00  0.00    -0.776 OA
HETATM    5  H   LIG     1      13.683  35.455  21.441  1.00  0.00     0.167 HD
ENDBRANCH   2   4
ENDBRANCH   1   2
BRANCH   1   6
HETATM    6  C   LIG     1      17.522  37.500  21.356  1.00  0.00    -0.042 A 
HETATM    7  C   LIG     1      18.003  36.581  20.401  1.00  0.00     0.008 A 
HETATM    8  C   LIG     1      19.032  36.942  19.527  1.00  0.00     0.001 A 
HETATM    9  C   LIG     1      19.592  38.220  19.593  1.00  0.00     0.000 A 
HETATM   10  C   LIG     1      19.123  39.140  20.533  1.00  0.00     0.001 A 
HETATM   11  C   LIG     1      18.094  38.784  21.411  1.00  0.00     0.008 A 
ENDBRANCH   1   6
BRANCH   1  12
HETATM   12  C   LIG     1      16.911  37.047  23.772  1.00  0.00     0.184 C 
BRANCH  12  13
HETATM   13  O   LIG     1      16.283  38.002  24.582  1.00  0.00    -0.400 OA
HETATM   14  H   LIG     1      15.322  37.987  24.332  1.00  0.00     0.209 HD
ENDBRANCH  12  13
ENDBRANCH   1  12
TORSDOF 5
ENDMDL
MODEL 6
REMARK VINA RESULT:      -6.7      2.521      4.166
REMARK  5 active torsions:
REMARK  status: ('A' for Active; 'I' for Inactive)
REMARK    1  A    between atoms: O_1  and  C_2 
REMARK    2  A    between atoms: C_2  and  C_3 
REMARK    3  A    between atoms: C_3  and  C_6 
REMARK    4  A    between atoms: C_3  and  C_4 
REMARK    5  A    between atoms: C_4  and  O_5 
ROOT
HETATM    1  C   LIG     1      16.647  35.137  21.802  1.00  0.00     0.140 C 
ENDROOT
BRANCH   1   2
HETATM    2  C   LIG     1      15.161  34.937  21.619  1.00  0.00     0.150 C 
HETATM    3  O   LIG     1      14.643  33.794  21.727  1.00  0.00    -0.649 OA
BRANCH   2   4
HETATM    4  O   LIG     1      14.350  36.016  21.275  1.00  0.00    -0.776 OA
HETATM    5  H   LIG     1      13.623  36.345  21.900  1.00  0.00     0.167 HD
ENDBRANCH   2   4
ENDBRANCH   1   2
BRANCH   1   6
HETATM    6  C   LIG     1      16.952  35.744  23.158  1.00  0.00    -0.042 A 
HETATM    7  C   LIG     1      16.976  37.142  23.345  1.00  0.00     0.008 A 
HETATM    8  C   LIG     1      17.263  37.683  24.601  1.00  0.00     0.001 A 
HETATM    9  C   LIG     1      17.529  36.842  25.683  1.00  0.00     0.000 A 
HETATM   10  C   LIG     1      17.508  35.456  25.512  1.00  0.00     0.001 A 
HETATM   11  C   LIG     1      17.221  34.908  24.257  1.00  0.00     0.008 A 
ENDBRANCH   1   6
BRANCH   1  12
HETATM   12  C   LIG     1      17.295  35.939  20.656  1.00  0.00     0.184 C 
BRANCH  12  13
HETATM   13  O   LIG     1      16.753  35.585  19.413  1.00  0.00    -0.400 OA
HETATM   14  H   LIG     1      16.316  34.703  19.545  1.00  0.00     0.209 HD
ENDBRANCH  12  13
ENDBRANCH   1  12
TORSDOF 5
ENDMDL
MODEL 7
REMARK VINA RESULT:      -6.5      2.464      4.342
REMARK  5 active torsions:
REMARK  status: ('A' for Active; 'I' for Inactive)
REMARK    1  A    between atoms: O_1  and  C_2 
REMARK    2  A    between atoms: C_2  and  C_3 
REMARK    3  A    between atoms: C_3  and  C_6 
REMARK    4  A    between atoms: C_3  and  C_4 
REMARK    5  A    between atoms: C_4  and  O_5 
ROOT
HETATM    1  C   LIG     1      16.377  36.543  22.156  1.00  0.00     0.140 C 
ENDROOT
BRANCH   1   2
HETATM    2  C   LIG     1      17.475  36.868  21.170  1.00  0.00     0.150 C 
HETATM    3  O   LIG     1      17.794  36.052  20.266  1.00  0.00    -0.649 OA
BRANCH   2   4
HETATM    4  O   LIG     1      18.185  38.061  21.286  1.00  0.00    -0.776 OA
HETATM    5  H   LIG     1      18.765  38.400  20.529  1.00  0.00     0.167 HD
ENDBRANCH   2   4
ENDBRANCH   1   2
BRANCH   1   6
HETATM    6  C   LIG     1      16.936  36.374  23.557  1.00  0.00    -0.042 A 
HETATM    7  C   LIG     1      17.162  35.094  24.104  1.00  0.00     0.008 A 
HETATM    8  C   LIG     1      17.674  34.958  25.397  1.00  0.00     0.001 A 
HETATM    9  C   LIG     1      17.965  36.091  26.159  1.00  0.00     0.000 A 
HETATM   10  C   LIG     1      17.747  37.364  25.629  1.00  0.00     0.001 A 
HETATM   11  C   LIG     1      17.235  37.507  24.335  1.00  0.00     0.008 A 
ENDBRANCH   1   6
BRANCH   1  12
HETATM   12  C   LIG     1      15.521  35.334  21.731  1.00  0.00     0.184 C 
BRANCH  12  13
HETATM   13  O   LIG     1      14.768  35.619  20.584  1.00  0.00    -0.400 OA
HETATM   14  H   LIG     1      14.935  36.575  20.375  1.00  0.00     0.209 HD
ENDBRANCH  12  13
ENDBRANCH   1  12
TORSDOF 5
ENDMDL
MODEL 8
REMARK VINA RESULT:      -6.5      1.120      2.094
REMARK  5 active torsions:
REMARK  status: ('A' for Active; 'I' for Inactive)
REMARK    1  A    between atoms: O_1  and  C_2 
REMARK    2  A    between atoms: C_2  and  C_3 
REMARK    3  A    between atoms: C_3  and  C_6 
REMARK    4  A    between atoms: C_3  and  C_4 
REMARK    5  A    between atoms: C_4  and  O_5 
ROOT
HETATM    1  C   LIG     1      16.732  36.881  22.415  1.00  0.00     0.140 C 
ENDROOT
BRANCH   1   2
HETATM    2  C   LIG     1      17.349  36.877  23.794  1.00  0.00     0.150 C 
HETATM    3  O   LIG     1      17.330  35.840  24.508  1.00  0.00    -0.649 OA
BRANCH   2   4
HETATM    4  O   LIG     1      17.904  38.044  24.312  1.00  0.00    -0.776 OA
HETATM    5  H   LIG     1      17.997  38.877  23.744  1.00  0.00     0.167 HD
ENDBRANCH   2   4
ENDBRANCH   1   2
BRANCH   1   6
HETATM    6  C   LIG     1      17.696  37.445  21.388  1.00  0.00    -0.042 A 
HETATM    7  C   LIG     1      18.283  36.621  20.406  1.00  0.00     0.008 A 
HETATM    8  C   LIG     1      19.172  37.157  19.471  1.00  0.00     0.001 A 
HETATM    9  C   LIG     1      19.487  38.517  19.503  1.00  0.00     0.000 A 
HETATM   10  C   LIG     1      18.911  39.345  20.469  1.00  0.00     0.001 A 
HETATM   11  C   LIG     1      18.021  38.813  21.408  1.00  0.00     0.008 A 
ENDBRANCH   1   6
BRANCH   1  12
HETATM   12  C   LIG     1      15.364  37.590  22.367  1.00  0.00     0.184 C 
BRANCH  12  13
HETATM   13  O   LIG     1      14.964  38.016  23.641  1.00  0.00    -0.400 OA
HETATM   14  H   LIG     1      15.451  37.443  24.289  1.00  0.00     0.209 HD
ENDBRANCH  12  13
ENDBRANCH   1  12
TORSDOF 5
ENDMDL
MODEL 9
REMARK VINA RESULT:      -6.3      7.031      8.634
REMARK  5 active torsions:
REMARK  status: ('A' for Active; 'I' for Inactive)
REMARK    1  A    between atoms: O_1  and  C_2 
REMARK    2  A    between atoms: C_2  and  C_3 
REMARK    3  A    between atoms: C_3  and  C_6 
REMARK    4  A    between atoms: C_3  and  C_4 
REMARK    5  A    between atoms: C_4  and  O_5 
ROOT
HETATM    1  C   LIG     1      15.515  32.614  17.065  1.00  0.00     0.140 C 
ENDROOT
BRANCH   1   2
HETATM    2  C   LIG     1      15.364  34.037  16.583  1.00  0.00     0.150 C 
HETATM    3  O   LIG     1      16.298  34.614  15.966  1.00  0.00    -0.649 OA
BRANCH   2   4
HETATM    4  O   LIG     1      14.200  34.748  16.864  1.00  0.00    -0.776 OA
HETATM    5  H   LIG     1      14.157  35.396  17.642  1.00  0.00     0.167 HD
ENDBRANCH   2   4
ENDBRANCH   1   2
BRANCH   1   6
HETATM    6  C   LIG     1      14.856  31.641  16.106  1.00  0.00    -0.042 A 
HETATM    7  C   LIG     1      13.574  31.113  16.366  1.00  0.00     0.008 A 
HETATM    8  C   LIG     1      12.984  30.215  15.473  1.00  0.00     0.001 A 
HETATM    9  C   LIG     1      13.661  29.832  14.314  1.00  0.00     0.000 A 
HETATM   10  C   LIG     1      14.930  30.348  14.044  1.00  0.00     0.001 A 
HETATM   11  C   LIG     1      15.526  31.247  14.934  1.00  0.00     0.008 A 
ENDBRANCH   1   6
BRANCH   1  12
HETATM   12  C   LIG     1      15.027  32.411  18.513  1.00  0.00     0.184 C 
BRANCH  12  13
HETATM   13  O   LIG     1      15.354  33.508  19.322  1.00  0.00    -0.400 OA
HETATM   14  H   LIG     1      14.649  34.188  19.162  1.00  0.00     0.209 HD
ENDBRANCH  12  13
ENDBRANCH   1  12
TORSDOF 5
ENDMDL
MODEL 10
REMARK VINA RESULT:      -6.2      8.166      9.894
REMARK  5 active torsions:
REMARK  status: ('A' for Active; 'I' for Inactive)
REMARK    1  A    between atoms: O_1  and  C_2 
REMARK    2  A    between atoms: C_2  and  C_3 
REMARK    3  A    between atoms: C_3  and  C_6 
REMARK    4  A    between atoms: C_3  and  C_4 
REMARK    5  A    between atoms: C_4  and  O_5 
ROOT
HETATM    1  C   LIG     1      16.226  32.413  15.605  1.00  0.00     0.140 C 
ENDROOT
BRANCH   1   2
HETATM    2  C   LIG     1      16.985  32.875  14.383  1.00  0.00     0.150 C 
HETATM    3  O   LIG     1      18.243  32.943  14.390  1.00  0.00    -0.649 OA
BRANCH   2   4
HETATM    4  O   LIG     1      16.292  33.285  13.247  1.00  0.00    -0.776 OA
HETATM    5  H   LIG     1      16.326  34.247  12.931  1.00  0.00     0.167 HD
ENDBRANCH   2   4
ENDBRANCH   1   2
BRANCH   1   6
HETATM    6  C   LIG     1      15.198  31.359  15.241  1.00  0.00    -0.042 A 
HETATM    7  C   LIG     1      15.469  30.380  14.263  1.00  0.00     0.008 A 
HETATM    8  C   LIG     1      14.508  29.420  13.937  1.00  0.00     0.001 A 
HETATM    9  C   LIG     1      13.268  29.422  14.581  1.00  0.00     0.000 A 
HETATM   10  C   LIG     1      12.988  30.385  15.552  1.00  0.00     0.001 A 
HETATM   11  C   LIG     1      13.945  31.349  15.882  1.00  0.00     0.008 A 
ENDBRANCH   1   6
BRANCH   1  12
HETATM   12  C   LIG     1      15.599  33.574  16.403  1.00  0.00     0.184 C 
BRANCH  12  13
HETATM   13  O   LIG     1      16.185  34.801  16.066  1.00  0.00    -0.400 OA
HETATM   14  H   LIG     1      16.774  35.044  16.828  1.00  0.00     0.209 HD
ENDBRANCH  12  13
ENDBRANCH   1  12
TORSDOF 5
ENDMDL
MODEL 11
REMARK VINA RESULT:      -6.1      1.993      3.262
REMARK  5 active torsions:
REMARK  status: ('A' for Active; 'I' for Inactive)
REMARK    1  A    between atoms: O_1  and  C_2 
REMARK    2  A    between atoms: C_2  and  C_3 
REMARK    3  A    between atoms: C_3  and  C_6 
REMARK    4  A    between atoms: C_3  and  C_4 
REMARK    5  A    between atoms: C_4  and  O_5 
ROOT
HETATM    1  C   LIG     1      17.346  36.478  24.004  1.00  0.00     0.140 C 
ENDROOT
BRANCH   1   2
HETATM    2  C   LIG     1      16.614  37.747  24.371  1.00  0.00     0.150 C 
HETATM    3  O   LIG     1      17.077  38.534  25.239  1.00  0.00    -0.649 OA
BRANCH   2   4
HETATM    4  O   LIG     1      15.383  38.035  23.787  1.00  0.00    -0.776 OA
HETATM    5  H   LIG     1      15.273  38.058  22.780  1.00  0.00     0.167 HD
ENDBRANCH   2   4
ENDBRANCH   1   2
BRANCH   1   6
HETATM    6  C   LIG     1      16.985  36.028  22.600  1.00  0.00    -0.042 A 
HETATM    7  C   LIG     1      17.503  36.685  21.465  1.00  0.00     0.008 A 
HETATM    8  C   LIG     1      17.156  36.259  20.181  1.00  0.00     0.001 A 
HETATM    9  C   LIG     1      16.291  35.176  20.011  1.00  0.00     0.000 A 
HETATM   10  C   LIG     1      15.773  34.516  21.126  1.00  0.00     0.001 A 
HETATM   11  C   LIG     1      16.116  34.938  22.415  1.00  0.00     0.008 A 
ENDBRANCH   1   6
BRANCH   1  12
HETATM   12  C   LIG     1      17.154  35.349  25.035  1.00  0.00     0.184 C 
BRANCH  12  13
HETATM   13  O   LIG     1      17.373  35.806  26.341  1.00  0.00    -0.400 OA
HETATM   14  H   LIG     1      17.157  35.043  26.940  1.00  0.00     0.209 HD
ENDBRANCH  12  13
ENDBRANCH   1  12
TORSDOF 5
ENDMDL
MODEL 12
REMARK VINA RESULT:      -5.9      8.126      9.820
REMARK  5 active torsions:
REMARK  status: ('A' for Active; 'I' for Inactive)
REMARK    1  A    between atoms: O_1  and  C_2 
REMARK    2  A    between atoms: C_2  and  C_3 
REMARK    3  A    between atoms: C_3  and  C_6 
REMARK    4  A    between atoms: C_3  and  C_4 
REMARK    5  A    between atoms: C_4  and  O_5 
ROOT
HETATM    1  C   LIG     1      17.266  33.040  14.624  1.00  0.00     0.140 C 
ENDROOT
BRANCH   1   2
HETATM    2  C   LIG     1      17.520  33.300  13.157  1.00  0.00     0.150 C 
HETATM    3  O   LIG     1      18.560  32.867  12.594  1.00  0.00    -0.649 OA
BRANCH   2   4
HETATM    4  O   LIG     1      16.625  34.073  12.421  1.00  0.00    -0.776 OA
HETATM    5  H   LIG     1      15.879  33.644  11.888  1.00  0.00     0.167 HD
ENDBRANCH   2   4
ENDBRANCH   1   2
BRANCH   1   6
HETATM    6  C   LIG     1      16.084  32.109  14.815  1.00  0.00    -0.042 A 
HETATM    7  C   LIG     1      15.256  32.202  15.952  1.00  0.00     0.008 A 
HETATM    8  C   LIG     1      14.174  31.333  16.113  1.00  0.00     0.001 A 
HETATM    9  C   LIG     1      13.904  30.363  15.145  1.00  0.00     0.000 A 
HETATM   10  C   LIG     1      14.715  30.261  14.013  1.00  0.00     0.001 A 
HETATM   11  C   LIG     1      15.800  31.128  13.847  1.00  0.00     0.008 A 
ENDBRANCH   1   6
BRANCH   1  12
HETATM   12  C   LIG     1      17.117  34.333  15.450  1.00  0.00     0.184 C 
BRANCH  12  13
HETATM   13  O   LIG     1      17.283  35.473  14.652  1.00  0.00    -0.400 OA
HETATM   14  H   LIG     1      17.187  36.252  15.261  1.00  0.00     0.209 HD
ENDBRANCH  12  13
ENDBRANCH   1  12
TORSDOF 5
ENDMDL
MODEL 13
REMARK VINA RESULT:      -5.9      7.600      9.206
REMARK  5 active torsions:
REMARK  status: ('A' for Active; 'I' for Inactive)
REMARK    1  A    between atoms: O_1  and  C_2 
REMARK    2  A    between atoms: C_2  and  C_3 
REMARK    3  A    between atoms: C_3  and  C_6 
REMARK    4  A    between atoms: C_3  and  C_4 
REMARK    5  A    between atoms: C_4  and  O_5 
ROOT
HETATM    1  C   LIG     1      14.743  32.623  16.359  1.00  0.00     0.140 C 
ENDROOT
BRANCH   1   2
HETATM    2  C   LIG     1      14.740  32.291  17.833  1.00  0.00     0.150 C 
HETATM    3  O   LIG     1      15.770  32.463  18.538  1.00  0.00    -0.649 OA
BRANCH   2   4
HETATM    4  O   LIG     1      13.604  31.738  18.420  1.00  0.00    -0.776 OA
HETATM    5  H   LIG     1      13.087  32.238  19.133  1.00  0.00     0.167 HD
ENDBRANCH   2   4
ENDBRANCH   1   2
BRANCH   1   6
HETATM    6  C   LIG     1      14.536  31.376  15.520  1.00  0.00    -0.042 A 
HETATM    7  C   LIG     1      13.322  30.659  15.564  1.00  0.00     0.008 A 
HETATM    8  C   LIG     1      13.151  29.511  14.787  1.00  0.00     0.001 A 
HETATM    9  C   LIG     1      14.182  29.063  13.959  1.00  0.00     0.000 A 
HETATM   10  C   LIG     1      15.388  29.765  13.906  1.00  0.00     0.001 A 
HETATM   11  C   LIG     1      15.566  30.915  14.681  1.00  0.00     0.008 A 
ENDBRANCH   1   6
BRANCH   1  12
HETATM   12  C   LIG     1      15.995  33.408  15.919  1.00  0.00     0.184 C 
BRANCH  12  13
HETATM   13  O   LIG     1      15.980  34.717  16.420  1.00  0.00    -0.400 OA
HETATM   14  H   LIG     1      15.442  34.686  17.255  1.00  0.00     0.209 HD
ENDBRANCH  12  13
ENDBRANCH   1  12
TORSDOF 5
ENDMDL
MODEL 14
REMARK VINA RESULT:      -5.8      2.511      3.872
REMARK  5 active torsions:
REMARK  status: ('A' for Active; 'I' for Inactive)
REMARK    1  A    between atoms: O_1  and  C_2 
REMARK    2  A    between atoms: C_2  and  C_3 
REMARK    3  A    between atoms: C_3  and  C_6 
REMARK    4  A    between atoms: C_3  and  C_4 
REMARK    5  A    between atoms: C_4  and  O_5 
ROOT
HETATM    1  C   LIG     1      17.391  37.546  23.395  1.00  0.00     0.140 C 
ENDROOT
BRANCH   1   2
HETATM    2  C   LIG     1      17.342  38.931  22.794  1.00  0.00     0.150 C 
HETATM    3  O   LIG     1      16.460  39.758  23.147  1.00  0.00    -0.649 OA
BRANCH   2   4
HETATM    4  O   LIG     1      18.248  39.292  21.800  1.00  0.00    -0.776 OA
HETATM    5  H   LIG     1      19.246  39.205  21.944  1.00  0.00     0.167 HD
ENDBRANCH   2   4
ENDBRANCH   1   2
BRANCH   1   6
HETATM    6  C   LIG     1      16.658  36.547  22.519  1.00  0.00    -0.042 A 
HETATM    7  C   LIG     1      17.283  35.361  22.081  1.00  0.00     0.008 A 
HETATM    8  C   LIG     1      16.593  34.455  21.272  1.00  0.00     0.001 A 
HETATM    9  C   LIG     1      15.276  34.718  20.889  1.00  0.00     0.000 A 
HETATM   10  C   LIG     1      14.645  35.888  21.317  1.00  0.00     0.001 A 
HETATM   11  C   LIG     1      15.331  36.799  22.127  1.00  0.00     0.008 A 
ENDBRANCH   1   6
BRANCH   1  12
HETATM   12  C   LIG     1      16.896  37.501  24.854  1.00  0.00     0.184 C 
BRANCH  12  13
HETATM   13  O   LIG     1      17.306  38.634  25.569  1.00  0.00    -0.400 OA
HETATM   14  H   LIG     1      17.365  38.354  26.519  1.00  0.00     0.209 HD
ENDBRANCH  12  13
ENDBRANCH   1  12
TORSDOF 5
ENDMDL
MODEL 15
REMARK VINA RESULT:      -5.8      2.457      3.800
REMARK  5 active torsions:
REMARK  status: ('A' for Active; 'I' for Inactive)
REMARK    1  A    between atoms: O_1  and  C_2 
REMARK    2  A    between atoms: C_2  and  C_3 
REMARK    3  A    between atoms: C_3  and  C_6 
REMARK    4  A    between atoms: C_3  and  C_4 
REMARK    5  A    between atoms: C_4  and  O_5 
ROOT
HETATM    1  C   LIG     1      16.908  37.053  24.609  1.00  0.00     0.140 C 
ENDROOT
BRANCH   1   2
HETATM    2  C   LIG     1      17.683  36.124  25.515  1.00  0.00     0.150 C 
HETATM    3  O   LIG     1      18.794  36.470  25.998  1.00  0.00    -0.649 OA
BRANCH   2   4
HETATM    4  O   LIG     1      17.197  34.848  25.785  1.00  0.00    -0.776 OA
HETATM    5  H   LIG     1      16.215  34.627  25.674  1.00  0.00     0.167 HD
ENDBRANCH   2   4
ENDBRANCH   1   2
BRANCH   1   6
HETATM    6  C   LIG     1      17.046  36.636  23.157  1.00  0.00    -0.042 A 
HETATM    7  C   LIG     1      16.679  35.344  22.729  1.00  0.00     0.008 A 
HETATM    8  C   LIG     1      16.816  34.976  21.388  1.00  0.00     0.001 A 
HETATM    9  C   LIG     1      17.321  35.889  20.459  1.00  0.00     0.000 A 
HETATM   10  C   LIG     1      17.687  37.173  20.869  1.00  0.00     0.001 A 
HETATM   11  C   LIG     1      17.552  37.546  22.211  1.00  0.00     0.008 A 
ENDBRANCH   1   6
BRANCH   1  12
HETATM   12  C   LIG     1      17.267  38.538  24.816  1.00  0.00     0.184 C 
BRANCH  12  13
HETATM   13  O   LIG     1      17.194  38.898  26.168  1.00  0.00    -0.400 OA
HETATM   14  H   LIG     1      17.306  38.057  26.684  1.00  0.00     0.209 HD
ENDBRANCH  12  13
ENDBRANCH   1  12
TORSDOF 5
ENDMDL
MODEL 16
REMARK VINA RESULT:      -5.8      3.274      4.420
REMARK  5 active torsions:
REMARK  status: ('A' for Active; 'I' for Inactive)
REMARK    1  A    between atoms: O_1  and  C_2 
REMARK    2  A    between atoms: C_2  and  C_3 
REMARK    3  A    between atoms: C_3  and  C_6 
REMARK    4  A    between atoms: C_3  and  C_4 
REMARK    5  A    between atoms: C_4  and  O_5 
ROOT
HETATM    1  C   LIG     1      16.111  34.570  20.768  1.00  0.00     0.140 C 
ENDROOT
BRANCH   1   2
HETATM    2  C   LIG     1      14.932  33.654  20.999  1.00  0.00     0.150 C 
HETATM    3  O   LIG     1      14.889  32.509  20.476  1.00  0.00    -0.649 OA
BRANCH   2   4
HETATM    4  O   LIG     1      13.847  34.092  21.756  1.00  0.00    -0.776 OA
HETATM    5  H   LIG     1      13.262  34.856  21.440  1.00  0.00     0.167 HD
ENDBRANCH   2   4
ENDBRANCH   1   2
BRANCH   1   6
HETATM    6  C   LIG     1      16.344  35.470  21.967  1.00  0.00    -0.042 A 
HETATM    7  C   LIG     1      17.024  35.004  23.110  1.00  0.00     0.008 A 
HETATM    8  C   LIG     1      17.226  35.847  24.207  1.00  0.00     0.001 A 
HETATM    9  C   LIG     1      16.753  37.161  24.178  1.00  0.00     0.000 A 
HETATM   10  C   LIG     1      16.079  37.635  23.051  1.00  0.00     0.001 A 
HETATM   11  C   LIG     1      15.874  36.796  21.951  1.00  0.00     0.008 A 
ENDBRANCH   1   6
BRANCH   1  12
HETATM   12  C   LIG     1      16.003  35.376  19.458  1.00  0.00     0.184 C 
BRANCH  12  13
HETATM   13  O   LIG     1      15.476  34.596  18.420  1.00  0.00    -0.400 OA
HETATM   14  H   LIG     1      16.218  34.012  18.111  1.00  0.00     0.209 HD
ENDBRANCH  12  13
ENDBRANCH   1  12
TORSDOF 5
ENDMDL
MODEL 17
REMARK VINA RESULT:      -5.6      7.246      8.595
REMARK  5 active torsions:
REMARK  status: ('A' for Active; 'I' for Inactive)
REMARK    1  A    between atoms: O_1  and  C_2 
REMARK    2  A    between atoms: C_2  and  C_3 
REMARK    3  A    between atoms: C_3  and  C_6 
REMARK    4  A    between atoms: C_3  and  C_4 
REMARK    5  A    between atoms: C_4  and  O_5 
ROOT
HETATM    1  C   LIG     1      15.299  32.533  16.990  1.00  0.00     0.140 C 
ENDROOT
BRANCH   1   2
HETATM    2  C   LIG     1      15.112  34.017  16.776  1.00  0.00     0.150 C 
HETATM    3  O   LIG     1      16.099  34.769  16.558  1.00  0.00    -0.649 OA
BRANCH   2   4
HETATM    4  O   LIG     1      13.842  34.580  16.871  1.00  0.00    -0.776 OA
HETATM    5  H   LIG     1      13.302  34.796  16.042  1.00  0.00     0.167 HD
ENDBRANCH   2   4
ENDBRANCH   1   2
BRANCH   1   6
HETATM    6  C   LIG     1      15.286  31.787  15.669  1.00  0.00    -0.042 A 
HETATM    7  C   LIG     1      16.035  32.242  14.564  1.00  0.00     0.008 A 
HETATM    8  C   LIG     1      16.007  31.544  13.354  1.00  0.00     0.001 A 
HETATM    9  C   LIG     1      15.235  30.387  13.230  1.00  0.00     0.000 A 
HETATM   10  C   LIG     1      14.491  29.924  14.317  1.00  0.00     0.001 A 
HETATM   11  C   LIG     1      14.514  30.619  15.530  1.00  0.00     0.008 A 
ENDBRANCH   1   6
BRANCH   1  12
HETATM   12  C   LIG     1      14.296  31.935  17.996  1.00  0.00     0.184 C 
BRANCH  12  13
HETATM   13  O   LIG     1      12.974  32.110  17.565  1.00  0.00    -0.400 OA
HETATM   14  H   LIG     1      12.552  32.731  18.215  1.00  0.00     0.209 HD
ENDBRANCH  12  13
ENDBRANCH   1  12
TORSDOF 5
ENDMDL
MODEL 18
REMARK VINA RESULT:      -5.6      8.637     10.277
REMARK  5 active torsions:
REMARK  status: ('A' for Active; 'I' for Inactive)
REMARK    1  A    between atoms: O_1  and  C_2 
REMARK    2  A    between atoms: C_2  and  C_3 
REMARK    3  A    between atoms: C_3  and  C_6 
REMARK    4  A    between atoms: C_3  and  C_4 
REMARK    5  A    between atoms: C_4  and  O_5 
ROOT
HETATM    1  C   LIG     1      14.271  31.685  15.637  1.00  0.00     0.140 C 
ENDROOT
BRANCH   1   2
HETATM    2  C   LIG     1      13.520  31.607  16.945  1.00  0.00     0.150 C 
HETATM    3  O   LIG     1      13.963  30.922  17.906  1.00  0.00    -0.649 OA
BRANCH   2   4
HETATM    4  O   LIG     1      12.294  32.253  17.085  1.00  0.00    -0.776 OA
HETATM    5  H   LIG     1      11.749  32.163  17.934  1.00  0.00     0.167 HD
ENDBRANCH   2   4
ENDBRANCH   1   2
BRANCH   1   6
HETATM    6  C   LIG     1      14.276  30.342  14.931  1.00  0.00    -0.042 A 
HETATM    7  C   LIG     1      15.475  29.768  14.461  1.00  0.00     0.008 A 
HETATM    8  C   LIG     1      15.460  28.532  13.809  1.00  0.00     0.001 A 
HETATM    9  C   LIG     1      14.254  27.854  13.618  1.00  0.00     0.000 A 
HETATM   10  C   LIG     1      13.060  28.411  14.081  1.00  0.00     0.001 A 
HETATM   11  C   LIG     1      13.069  29.648  14.733  1.00  0.00     0.008 A 
ENDBRANCH   1   6
BRANCH   1  12
HETATM   12  C   LIG     1      15.694  32.258  15.790  1.00  0.00     0.184 C 
BRANCH  12  13
HETATM   13  O   LIG     1      15.893  32.800  17.066  1.00  0.00    -0.400 OA
HETATM   14  H   LIG     1      15.586  33.743  17.016  1.00  0.00     0.209 HD
ENDBRANCH  12  13
ENDBRANCH   1  12
TORSDOF 5
ENDMDL
MODEL 19
REMARK VINA RESULT:      -5.5      3.145      4.125
REMARK  5 active torsions:
REMARK  status: ('A' for Active; 'I' for Inactive)
REMARK    1  A    between atoms: O_1  and  C_2 
REMARK    2  A    between atoms: C_2  and  C_3 
REMARK    3  A    between atoms: C_3  and  C_6 
REMARK    4  A    between atoms: C_3  and  C_4 
REMARK    5  A    between atoms: C_4  and  O_5 
ROOT
HETATM    1  C   LIG     1      15.539  35.422  21.094  1.00  0.00     0.140 C 
ENDROOT
BRANCH   1   2
HETATM    2  C   LIG     1      16.481  35.556  19.920  1.00  0.00     0.150 C 
HETATM    3  O   LIG     1      16.122  35.217  18.761  1.00  0.00    -0.649 OA
BRANCH   2   4
HETATM    4  O   LIG     1      17.782  36.009  20.119  1.00  0.00    -0.776 OA
HETATM    5  H   LIG     1      18.356  36.311  19.340  1.00  0.00     0.167 HD
ENDBRANCH   2   4
ENDBRANCH   1   2
BRANCH   1   6
HETATM    6  C   LIG     1      16.150  36.012  22.351  1.00  0.00    -0.042 A 
HETATM    7  C   LIG     1      16.061  37.392  22.628  1.00  0.00     0.008 A 
HETATM    8  C   LIG     1      16.633  37.919  23.789  1.00  0.00     0.001 A 
HETATM    9  C   LIG     1      17.298  37.080  24.686  1.00  0.00     0.000 A 
HETATM   10  C   LIG     1      17.392  35.712  24.424  1.00  0.00     0.001 A 
HETATM   11  C   LIG     1      16.822  35.179  23.263  1.00  0.00     0.008 A 
ENDBRANCH   1   6
BRANCH   1  12
HETATM   12  C   LIG     1      15.053  33.976  21.317  1.00  0.00     0.184 C 
BRANCH  12  13
HETATM   13  O   LIG     1      14.734  33.350  20.105  1.00  0.00    -0.400 OA
HETATM   14  H   LIG     1      14.843  34.042  19.401  1.00  0.00     0.209 HD
ENDBRANCH  12  13
ENDBRANCH   1  12
TORSDOF 5
ENDMDL
MODEL 20
REMARK VINA RESULT:      -4.5      3.861      5.275
REMARK  5 active torsions:
REMARK  status: ('A' for Active; 'I' for Inactive)
REMARK    1  A    between atoms: O_1  and  C_2 
REMARK    2  A    between atoms: C_2  and  C_3 
REMARK    3  A    between atoms: C_3  and  C_6 
REMARK    4  A    between atoms: C_3  and  C_4 
REMARK    5  A    between atoms: C_4  and  O_5 
ROOT
HETATM    1  C   LIG     1      14.959  33.455  19.400  1.00  0.00     0.140 C 
ENDROOT
BRANCH   1   2
HETATM    2  C   LIG     1      15.223  33.606  17.920  1.00  0.00     0.150 C 
HETATM    3  O   LIG     1      15.978  32.802  17.312  1.00  0.00    -0.649 OA
BRANCH   2   4
HETATM    4  O   LIG     1      14.671  34.676  17.220  1.00  0.00    -0.776 OA
HETATM    5  H   LIG     1      14.508  35.568  17.670  1.00  0.00     0.167 HD
ENDBRANCH   2   4
ENDBRANCH   1   2
BRANCH   1   6
HETATM    6  C   LIG     1      15.788  34.438  20.204  1.00  0.00    -0.042 A 
HETATM    7  C   LIG     1      16.584  35.413  19.570  1.00  0.00     0.008 A 
HETATM    8  C   LIG     1      17.345  36.308  20.327  1.00  0.00     0.001 A 
HETATM    9  C   LIG     1      17.322  36.242  21.722  1.00  0.00     0.000 A 
HETATM   10  C   LIG     1      16.536  35.282  22.362  1.00  0.00     0.001 A 
HETATM   11  C   LIG     1      15.773  34.384  21.610  1.00  0.00     0.008 A 
ENDBRANCH   1   6
BRANCH   1  12
HETATM   12  C   LIG     1      15.139  32.008  19.901  1.00  0.00     0.184 C 
BRANCH  12  13
HETATM   13  O   LIG     1      14.252  31.131  19.262  1.00  0.00    -0.400 OA
HETATM   14  H   LIG     1      13.347  31.361  19.599  1.00  0.00     0.209 HD
ENDBRANCH  12  13
ENDBRANCH   1  12
TORSDOF 5
ENDMDL
