REMARK  5 active torsions:
REMARK  status: ('A' for Active; 'I' for Inactive)
REMARK    1  A    between atoms: O_1  and  C_2 
REMARK    2  A    between atoms: C_3  and  O_4 
REMARK    3  A    between atoms: C_8  and  C_9 
REMARK    4  A    between atoms: C_13  and  O_14 
REMARK    5  A    between atoms: C_16  and  O_17 
ROOT
HETATM    1  C   LIG     1      -0.397   0.426   0.102  1.00  0.00     0.169 C 
HETATM    2  C   LIG     1      -0.028   1.307  -1.101  1.00  0.00     0.121 C 
HETATM    3  C   LIG     1       1.454   1.567  -1.166  1.00  0.00     0.167 C 
HETATM    4  C   LIG     1       2.413   0.684  -0.443  1.00  0.00     0.076 A 
HETATM    5  C   LIG     1       3.817   0.897  -0.403  1.00  0.00     0.085 A 
HETATM    6  C   LIG     1       4.652  -0.101   0.117  1.00  0.00     0.074 A 
HETATM    7  C   LIG     1       4.117  -1.282   0.642  1.00  0.00     0.071 A 
HETATM    8  C   LIG     1       2.735  -1.466   0.663  1.00  0.00     0.074 A 
HETATM    9  C   LIG     1       1.887  -0.485   0.146  1.00  0.00     0.089 A 
HETATM   10  O   LIG     1       0.504  -0.675   0.209  1.00  0.00    -0.340 OA
HETATM   11  O   LIG     1       1.861   2.469  -1.945  1.00  0.00    -0.292 OA
ENDROOT
BRANCH   1  12
HETATM   12  C   LIG     1      -1.817  -0.073  -0.012  1.00  0.00    -0.026 A 
HETATM   13  C   LIG     1      -2.852   0.579   0.679  1.00  0.00     0.049 A 
HETATM   14  C   LIG     1      -4.179   0.141   0.553  1.00  0.00     0.099 A 
HETATM   15  C   LIG     1      -4.478  -0.952  -0.278  1.00  0.00     0.098 A 
HETATM   16  C   LIG     1      -3.450  -1.593  -0.978  1.00  0.00     0.040 A 
HETATM   17  C   LIG     1      -2.130  -1.155  -0.852  1.00  0.00     0.012 A 
BRANCH  14  18
HETATM   18  O   LIG     1      -5.199   0.788   1.249  1.00  0.00    -0.358 OA
HETATM   19  H   LIG     1      -5.010   1.579   1.854  1.00  0.00     0.217 HD
ENDBRANCH  14  18
BRANCH  15  20
HETATM   20  O   LIG     1      -5.786  -1.412  -0.422  1.00  0.00    -0.358 OA
HETATM   21  H   LIG     1      -6.564  -0.982   0.063  1.00  0.00     0.217 HD
ENDBRANCH  15  20
ENDBRANCH   1  12
BRANCH   5  22
HETATM   22  O   LIG     1       4.424   2.078  -0.837  1.00  0.00    -0.360 OA
HETATM   23  H   LIG     1       3.924   2.941  -0.996  1.00  0.00     0.217 HD
ENDBRANCH   5  22
BRANCH   7  24
HETATM   24  O   LIG     1       4.951  -2.272   1.158  1.00  0.00    -0.361 OA
HETATM   25  H   LIG     1       5.959  -2.167   1.161  1.00  0.00     0.217 HD
ENDBRANCH   7  24
TORSDOF 5
