REMARK  1 active torsions:
REMARK  status: ('A' for Active; 'I' for Inactive)
REMARK    1  A    between atoms: C_3  and  C_11 
ROOT
HETATM    1 CL   LIG     1       0.776   2.089   1.675  1.00  0.00    -0.081 Cl
HETATM    2  C   LIG     1       1.502   0.731   0.809  1.00  0.00     0.070 A 
HETATM    3  C   LIG     1       0.697  -0.119   0.022  1.00  0.00     0.021 A 
HETATM    4  C   LIG     1       1.286  -1.194  -0.669  1.00  0.00     0.048 A 
HETATM    5 CL   LIG     1       0.324  -2.288  -1.659  1.00  0.00    -0.083 Cl
HETATM    6  C   LIG     1       2.662  -1.416  -0.573  1.00  0.00     0.050 A 
HETATM    7  C   LIG     1       3.463  -0.579   0.206  1.00  0.00     0.059 A 
HETATM    8 CL   LIG     1       5.190  -0.905   0.293  1.00  0.00    -0.082 Cl
HETATM    9  C   LIG     1       2.888   0.499   0.900  1.00  0.00     0.078 A 
HETATM   10 CL   LIG     1       3.904   1.556   1.883  1.00  0.00    -0.081 Cl
ENDROOT
BRANCH   3  11
HETATM   11  C   LIG     1      -0.759   0.114  -0.077  1.00  0.00    -0.001 A 
HETATM   12  C   LIG     1      -1.263   0.863  -1.152  1.00  0.00     0.014 A 
HETATM   13  C   LIG     1      -2.636   1.096  -1.264  1.00  0.00     0.001 A 
HETATM   14  C   LIG     1      -3.514   0.583  -0.306  1.00  0.00     0.002 A 
HETATM   15  C   LIG     1      -3.021  -0.165   0.766  1.00  0.00     0.024 A 
HETATM   16  C   LIG     1      -1.647  -0.404   0.887  1.00  0.00     0.045 A 
HETATM   17 CL   LIG     1      -1.065  -1.357   2.248  1.00  0.00    -0.083 Cl
ENDBRANCH   3  11
TORSDOF 1
