MODEL 1
REMARK VINA RESULT:      -4.8      0.000      0.000
REMARK  1 active torsions:
REMARK  status: ('A' for Active; 'I' for Inactive)
REMARK    1  A    between atoms: C_3  and  C_11 
ROOT
HETATM    1 CL   LIG     1      27.055  21.827  17.619  1.00  0.00    -0.081 Cl
HETATM    2  C   LIG     1      25.498  21.637  18.433  1.00  0.00     0.070 A 
HETATM    3  C   LIG     1      25.147  22.490  19.500  1.00  0.00     0.021 A 
HETATM    4  C   LIG     1      23.902  22.335  20.137  1.00  0.00     0.048 A 
HETATM    5 CL   LIG     1      23.420  23.370  21.478  1.00  0.00    -0.083 Cl
HETATM    6  C   LIG     1      23.021  21.338  19.713  1.00  0.00     0.050 A 
HETATM    7  C   LIG     1      23.363  20.489  18.658  1.00  0.00     0.059 A 
HETATM    8 CL   LIG     1      22.216  19.249  18.166  1.00  0.00    -0.082 Cl
HETATM    9  C   LIG     1      24.603  20.634  18.012  1.00  0.00     0.078 A 
HETATM   10 CL   LIG     1      25.032  19.560  16.679  1.00  0.00    -0.081 Cl
ENDROOT
BRANCH   3  11
HETATM   11  C   LIG     1      26.082  23.543  19.950  1.00  0.00    -0.001 A 
HETATM   12  C   LIG     1      26.074  24.790  19.305  1.00  0.00     0.014 A 
HETATM   13  C   LIG     1      26.950  25.799  19.715  1.00  0.00     0.001 A 
HETATM   14  C   LIG     1      27.837  25.571  20.770  1.00  0.00     0.002 A 
HETATM   15  C   LIG     1      27.849  24.333  21.419  1.00  0.00     0.024 A 
HETATM   16  C   LIG     1      26.976  23.316  21.016  1.00  0.00     0.045 A 
HETATM   17 CL   LIG     1      27.017  21.774  21.863  1.00  0.00    -0.083 Cl
ENDBRANCH   3  11
TORSDOF 1
ENDMDL
MODEL 2
REMARK VINA RESULT:      -4.7      3.473      5.953
REMARK  1 active torsions:
REMARK  status: ('A' for Active; 'I' for Inactive)
REMARK    1  A    between atoms: C_3  and  C_11 
ROOT
HETATM    1 CL   LIG     1      26.106  23.437  21.858  1.00  0.00    -0.081 Cl
HETATM    2  C   LIG     1      25.183  22.544  23.071  1.00  0.00     0.070 A 
HETATM    3  C   LIG     1      24.247  21.567  22.672  1.00  0.00     0.021 A 
HETATM    4  C   LIG     1      23.521  20.857  23.646  1.00  0.00     0.048 A 
HETATM    5 CL   LIG     1      22.337  19.632  23.199  1.00  0.00    -0.083 Cl
HETATM    6  C   LIG     1      23.729  21.122  25.002  1.00  0.00     0.050 A 
HETATM    7  C   LIG     1      24.652  22.089  25.403  1.00  0.00     0.059 A 
HETATM    8 CL   LIG     1      24.873  22.384  27.124  1.00  0.00    -0.082 Cl
HETATM    9  C   LIG     1      25.384  22.804  24.440  1.00  0.00     0.078 A 
HETATM   10 CL   LIG     1      26.552  24.026  24.951  1.00  0.00    -0.081 Cl
ENDROOT
BRANCH   3  11
HETATM   11  C   LIG     1      24.025  21.289  21.237  1.00  0.00    -0.001 A 
HETATM   12  C   LIG     1      24.844  20.355  20.584  1.00  0.00     0.014 A 
HETATM   13  C   LIG     1      24.652  20.078  19.228  1.00  0.00     0.001 A 
HETATM   14  C   LIG     1      23.643  20.730  18.516  1.00  0.00     0.002 A 
HETATM   15  C   LIG     1      22.822  21.660  19.159  1.00  0.00     0.024 A 
HETATM   16  C   LIG     1      23.006  21.944  20.517  1.00  0.00     0.045 A 
HETATM   17 CL   LIG     1      21.947  23.117  21.293  1.00  0.00    -0.083 Cl
ENDBRANCH   3  11
TORSDOF 1
ENDMDL
MODEL 3
REMARK VINA RESULT:      -4.6      2.301      5.469
REMARK  1 active torsions:
REMARK  status: ('A' for Active; 'I' for Inactive)
REMARK    1  A    between atoms: C_3  and  C_11 
ROOT
HETATM    1 CL   LIG     1      26.678  23.149  22.939  1.00  0.00    -0.081 Cl
HETATM    2  C   LIG     1      26.452  23.581  21.241  1.00  0.00     0.070 A 
HETATM    3  C   LIG     1      25.535  22.864  20.443  1.00  0.00     0.021 A 
HETATM    4  C   LIG     1      25.358  23.220  19.094  1.00  0.00     0.048 A 
HETATM    5 CL   LIG     1      24.232  22.352  18.054  1.00  0.00    -0.083 Cl
HETATM    6  C   LIG     1      26.089  24.279  18.549  1.00  0.00     0.050 A 
HETATM    7  C   LIG     1      26.998  24.991  19.333  1.00  0.00     0.059 A 
HETATM    8 CL   LIG     1      27.893  26.315  18.596  1.00  0.00    -0.082 Cl
HETATM    9  C   LIG     1      27.184  24.647  20.683  1.00  0.00     0.078 A 
HETATM   10 CL   LIG     1      28.334  25.550  21.672  1.00  0.00    -0.081 Cl
ENDROOT
BRANCH   3  11
HETATM   11  C   LIG     1      24.765  21.742  21.019  1.00  0.00    -0.001 A 
HETATM   12  C   LIG     1      25.302  20.445  20.973  1.00  0.00     0.014 A 
HETATM   13  C   LIG     1      24.590  19.370  21.510  1.00  0.00     0.001 A 
HETATM   14  C   LIG     1      23.339  19.581  22.096  1.00  0.00     0.002 A 
HETATM   15  C   LIG     1      22.798  20.868  22.147  1.00  0.00     0.024 A 
HETATM   16  C   LIG     1      23.504  21.952  21.612  1.00  0.00     0.045 A 
HETATM   17 CL   LIG     1      22.792  23.559  21.701  1.00  0.00    -0.083 Cl
ENDBRANCH   3  11
TORSDOF 1
ENDMDL
MODEL 4
REMARK VINA RESULT:      -4.6      3.407      6.136
REMARK  1 active torsions:
REMARK  status: ('A' for Active; 'I' for Inactive)
REMARK    1  A    between atoms: C_3  and  C_11 
ROOT
HETATM    1 CL   LIG     1      22.434  19.756  23.208  1.00  0.00    -0.081 Cl
HETATM    2  C   LIG     1      23.621  20.995  23.630  1.00  0.00     0.070 A 
HETATM    3  C   LIG     1      24.316  21.685  22.614  1.00  0.00     0.021 A 
HETATM    4  C   LIG     1      25.255  22.674  22.960  1.00  0.00     0.048 A 
HETATM    5 CL   LIG     1      26.154  23.558  21.731  1.00  0.00    -0.083 Cl
HETATM    6  C   LIG     1      25.496  22.969  24.305  1.00  0.00     0.050 A 
HETATM    7  C   LIG     1      24.812  22.288  25.314  1.00  0.00     0.059 A 
HETATM    8 CL   LIG     1      25.155  22.698  26.990  1.00  0.00    -0.082 Cl
HETATM    9  C   LIG     1      23.871  21.299  24.982  1.00  0.00     0.078 A 
HETATM   10 CL   LIG     1      23.007  20.441  26.260  1.00  0.00    -0.081 Cl
ENDROOT
BRANCH   3  11
HETATM   11  C   LIG     1      24.063  21.371  21.192  1.00  0.00    -0.001 A 
HETATM   12  C   LIG     1      24.875  20.427  20.543  1.00  0.00     0.014 A 
HETATM   13  C   LIG     1      24.655  20.117  19.199  1.00  0.00     0.001 A 
HETATM   14  C   LIG     1      23.623  20.744  18.495  1.00  0.00     0.002 A 
HETATM   15  C   LIG     1      22.809  21.682  19.134  1.00  0.00     0.024 A 
HETATM   16  C   LIG     1      23.022  22.000  20.481  1.00  0.00     0.045 A 
HETATM   17 CL   LIG     1      21.971  23.183  21.253  1.00  0.00    -0.083 Cl
ENDBRANCH   3  11
TORSDOF 1
ENDMDL
MODEL 5
REMARK VINA RESULT:      -4.5      2.279      5.638
REMARK  1 active torsions:
REMARK  status: ('A' for Active; 'I' for Inactive)
REMARK    1  A    between atoms: C_3  and  C_11 
ROOT
HETATM    1 CL   LIG     1      26.184  21.287  22.355  1.00  0.00    -0.081 Cl
HETATM    2  C   LIG     1      26.713  22.862  21.754  1.00  0.00     0.070 A 
HETATM    3  C   LIG     1      26.178  23.378  20.555  1.00  0.00     0.021 A 
HETATM    4  C   LIG     1      26.601  24.636  20.089  1.00  0.00     0.048 A 
HETATM    5 CL   LIG     1      25.970  25.322  18.594  1.00  0.00    -0.083 Cl
HETATM    6  C   LIG     1      27.547  25.368  20.812  1.00  0.00     0.050 A 
HETATM    7  C   LIG     1      28.080  24.861  21.998  1.00  0.00     0.059 A 
HETATM    8 CL   LIG     1      29.268  25.823  22.868  1.00  0.00    -0.082 Cl
HETATM    9  C   LIG     1      27.665  23.606  22.476  1.00  0.00     0.078 A 
HETATM   10 CL   LIG     1      28.341  22.969  23.977  1.00  0.00    -0.081 Cl
ENDROOT
BRANCH   3  11
HETATM   11  C   LIG     1      25.181  22.603  19.789  1.00  0.00    -0.001 A 
HETATM   12  C   LIG     1      25.586  21.914  18.634  1.00  0.00     0.014 A 
HETATM   13  C   LIG     1      24.658  21.176  17.894  1.00  0.00     0.001 A 
HETATM   14  C   LIG     1      23.323  21.120  18.301  1.00  0.00     0.002 A 
HETATM   15  C   LIG     1      22.912  21.800  19.450  1.00  0.00     0.024 A 
HETATM   16  C   LIG     1      23.834  22.542  20.198  1.00  0.00     0.045 A 
HETATM   17 CL   LIG     1      23.279  23.380  21.644  1.00  0.00    -0.083 Cl
ENDBRANCH   3  11
TORSDOF 1
ENDMDL
MODEL 6
REMARK VINA RESULT:      -4.5     13.156     15.668
REMARK  1 active torsions:
REMARK  status: ('A' for Active; 'I' for Inactive)
REMARK    1  A    between atoms: C_3  and  C_11 
ROOT
HETATM    1 CL   LIG     1      26.197  26.881  32.845  1.00  0.00    -0.081 Cl
HETATM    2  C   LIG     1      27.483  27.925  32.231  1.00  0.00     0.070 A 
HETATM    3  C   LIG     1      28.056  28.908  33.064  1.00  0.00     0.021 A 
HETATM    4  C   LIG     1      29.084  29.730  32.568  1.00  0.00     0.048 A 
HETATM    5 CL   LIG     1      29.827  30.977  33.565  1.00  0.00    -0.083 Cl
HETATM    6  C   LIG     1      29.533  29.571  31.254  1.00  0.00     0.050 A 
HETATM    7  C   LIG     1      28.968  28.600  30.424  1.00  0.00     0.059 A 
HETATM    8 CL   LIG     1      29.570  28.444  28.778  1.00  0.00    -0.082 Cl
HETATM    9  C   LIG     1      27.942  27.772  30.908  1.00  0.00     0.078 A 
HETATM   10 CL   LIG     1      27.231  26.545  29.857  1.00  0.00    -0.081 Cl
ENDROOT
BRANCH   3  11
HETATM   11  C   LIG     1      27.579  29.079  34.453  1.00  0.00    -0.001 A 
HETATM   12  C   LIG     1      26.554  30.000  34.718  1.00  0.00     0.014 A 
HETATM   13  C   LIG     1      26.089  30.178  36.024  1.00  0.00     0.001 A 
HETATM   14  C   LIG     1      26.642  29.438  37.071  1.00  0.00     0.002 A 
HETATM   15  C   LIG     1      27.662  28.517  36.815  1.00  0.00     0.024 A 
HETATM   16  C   LIG     1      28.134  28.332  35.511  1.00  0.00     0.045 A 
HETATM   17 CL   LIG     1      29.415  27.158  35.228  1.00  0.00    -0.083 Cl
ENDBRANCH   3  11
TORSDOF 1
ENDMDL
MODEL 7
REMARK VINA RESULT:      -4.3      2.545      4.331
REMARK  1 active torsions:
REMARK  status: ('A' for Active; 'I' for Inactive)
REMARK    1  A    between atoms: C_3  and  C_11 
ROOT
HETATM    1 CL   LIG     1      25.538  24.218  17.961  1.00  0.00    -0.081 Cl
HETATM    2  C   LIG     1      26.196  23.991  19.585  1.00  0.00     0.070 A 
HETATM    3  C   LIG     1      27.418  24.595  19.946  1.00  0.00     0.021 A 
HETATM    4  C   LIG     1      27.930  24.413  21.244  1.00  0.00     0.048 A 
HETATM    5 CL   LIG     1      29.455  25.141  21.741  1.00  0.00    -0.083 Cl
HETATM    6  C   LIG     1      27.228  23.636  22.169  1.00  0.00     0.050 A 
HETATM    7  C   LIG     1      26.019  23.034  21.817  1.00  0.00     0.059 A 
HETATM    8 CL   LIG     1      25.177  22.064  23.020  1.00  0.00    -0.082 Cl
HETATM    9  C   LIG     1      25.496  23.208  20.524  1.00  0.00     0.078 A 
HETATM   10 CL   LIG     1      23.966  22.446  20.083  1.00  0.00    -0.081 Cl
ENDROOT
BRANCH   3  11
HETATM   11  C   LIG     1      28.162  25.415  18.967  1.00  0.00    -0.001 A 
HETATM   12  C   LIG     1      27.977  26.807  18.955  1.00  0.00     0.014 A 
HETATM   13  C   LIG     1      28.669  27.600  18.037  1.00  0.00     0.001 A 
HETATM   14  C   LIG     1      29.550  27.011  17.126  1.00  0.00     0.002 A 
HETATM   15  C   LIG     1      29.741  25.627  17.132  1.00  0.00     0.024 A 
HETATM   16  C   LIG     1      29.052  24.824  18.048  1.00  0.00     0.045 A 
HETATM   17 CL   LIG     1      29.325  23.085  18.029  1.00  0.00    -0.083 Cl
ENDBRANCH   3  11
TORSDOF 1
ENDMDL
MODEL 8
REMARK VINA RESULT:      -4.3      2.319      4.080
REMARK  1 active torsions:
REMARK  status: ('A' for Active; 'I' for Inactive)
REMARK    1  A    between atoms: C_3  and  C_11 
ROOT
HETATM    1 CL   LIG     1      27.387  23.418  22.699  1.00  0.00    -0.081 Cl
HETATM    2  C   LIG     1      25.795  22.677  22.504  1.00  0.00     0.070 A 
HETATM    3  C   LIG     1      25.163  22.677  21.243  1.00  0.00     0.021 A 
HETATM    4  C   LIG     1      23.898  22.079  21.097  1.00  0.00     0.048 A 
HETATM    5 CL   LIG     1      23.064  22.059  19.546  1.00  0.00    -0.083 Cl
HETATM    6  C   LIG     1      23.273  21.490  22.199  1.00  0.00     0.050 A 
HETATM    7  C   LIG     1      23.893  21.488  23.450  1.00  0.00     0.059 A 
HETATM    8 CL   LIG     1      23.060  20.733  24.803  1.00  0.00    -0.082 Cl
HETATM    9  C   LIG     1      25.157  22.081  23.609  1.00  0.00     0.078 A 
HETATM   10 CL   LIG     1      25.939  22.076  25.192  1.00  0.00    -0.081 Cl
ENDROOT
BRANCH   3  11
HETATM   11  C   LIG     1      25.823  23.304  20.079  1.00  0.00    -0.001 A 
HETATM   12  C   LIG     1      25.682  24.685  19.870  1.00  0.00     0.014 A 
HETATM   13  C   LIG     1      26.297  25.297  18.775  1.00  0.00     0.001 A 
HETATM   14  C   LIG     1      27.056  24.536  17.882  1.00  0.00     0.002 A 
HETATM   15  C   LIG     1      27.203  23.162  18.083  1.00  0.00     0.024 A 
HETATM   16  C   LIG     1      26.591  22.539  19.178  1.00  0.00     0.045 A 
HETATM   17 CL   LIG     1      26.806  20.806  19.401  1.00  0.00    -0.083 Cl
ENDBRANCH   3  11
TORSDOF 1
ENDMDL
MODEL 9
REMARK VINA RESULT:      -4.1     13.895     15.124
REMARK  1 active torsions:
REMARK  status: ('A' for Active; 'I' for Inactive)
REMARK    1  A    between atoms: C_3  and  C_11 
ROOT
HETATM    1 CL   LIG     1      19.847  23.181  31.962  1.00  0.00    -0.081 Cl
HETATM    2  C   LIG     1      19.853  21.460  32.362  1.00  0.00     0.070 A 
HETATM    3  C   LIG     1      20.299  21.029  33.629  1.00  0.00     0.021 A 
HETATM    4  C   LIG     1      20.294  19.657  33.940  1.00  0.00     0.048 A 
HETATM    5 CL   LIG     1      20.846  19.067  35.505  1.00  0.00    -0.083 Cl
HETATM    6  C   LIG     1      19.850  18.728  32.995  1.00  0.00     0.050 A 
HETATM    7  C   LIG     1      19.410  19.149  31.739  1.00  0.00     0.059 A 
HETATM    8 CL   LIG     1      18.863  17.938  30.587  1.00  0.00    -0.082 Cl
HETATM    9  C   LIG     1      19.408  20.517  31.416  1.00  0.00     0.078 A 
HETATM   10 CL   LIG     1      18.850  21.046  29.827  1.00  0.00    -0.081 Cl
ENDROOT
BRANCH   3  11
HETATM   11  C   LIG     1      20.771  22.011  34.628  1.00  0.00    -0.001 A 
HETATM   12  C   LIG     1      19.833  22.797  35.315  1.00  0.00     0.014 A 
HETATM   13  C   LIG     1      20.258  23.732  36.262  1.00  0.00     0.001 A 
HETATM   14  C   LIG     1      21.620  23.888  36.529  1.00  0.00     0.002 A 
HETATM   15  C   LIG     1      22.561  23.109  35.851  1.00  0.00     0.024 A 
HETATM   16  C   LIG     1      22.145  22.170  34.900  1.00  0.00     0.045 A 
HETATM   17 CL   LIG     1      23.359  21.202  34.071  1.00  0.00    -0.083 Cl
ENDBRANCH   3  11
TORSDOF 1
ENDMDL
MODEL 10
REMARK VINA RESULT:      -4.1      2.559      4.261
REMARK  1 active torsions:
REMARK  status: ('A' for Active; 'I' for Inactive)
REMARK    1  A    between atoms: C_3  and  C_11 
ROOT
HETATM    1 CL   LIG     1      24.516  22.808  18.172  1.00  0.00    -0.081 Cl
HETATM    2  C   LIG     1      25.306  22.905  19.750  1.00  0.00     0.070 A 
HETATM    3  C   LIG     1      26.676  23.232  19.837  1.00  0.00     0.021 A 
HETATM    4  C   LIG     1      27.294  23.313  21.098  1.00  0.00     0.048 A 
HETATM    5 CL   LIG     1      29.002  23.710  21.261  1.00  0.00    -0.083 Cl
HETATM    6  C   LIG     1      26.552  23.070  22.257  1.00  0.00     0.050 A 
HETATM    7  C   LIG     1      25.197  22.744  22.176  1.00  0.00     0.059 A 
HETATM    8 CL   LIG     1      24.310  22.446  23.666  1.00  0.00    -0.082 Cl
HETATM    9  C   LIG     1      24.567  22.661  20.923  1.00  0.00     0.078 A 
HETATM   10 CL   LIG     1      22.853  22.250  20.824  1.00  0.00    -0.081 Cl
ENDROOT
BRANCH   3  11
HETATM   11  C   LIG     1      27.461  23.486  18.611  1.00  0.00    -0.001 A 
HETATM   12  C   LIG     1      27.990  22.399  17.897  1.00  0.00     0.014 A 
HETATM   13  C   LIG     1      28.737  22.618  16.736  1.00  0.00     0.001 A 
HETATM   14  C   LIG     1      28.959  23.919  16.281  1.00  0.00     0.002 A 
HETATM   15  C   LIG     1      28.435  25.006  16.985  1.00  0.00     0.024 A 
HETATM   16  C   LIG     1      27.685  24.798  18.149  1.00  0.00     0.045 A 
HETATM   17 CL   LIG     1      27.035  26.193  19.004  1.00  0.00    -0.083 Cl
ENDBRANCH   3  11
TORSDOF 1
ENDMDL
MODEL 11
REMARK VINA RESULT:      -4.0      2.482      5.738
REMARK  1 active torsions:
REMARK  status: ('A' for Active; 'I' for Inactive)
REMARK    1  A    between atoms: C_3  and  C_11 
ROOT
HETATM    1 CL   LIG     1      22.809  20.791  22.812  1.00  0.00    -0.081 Cl
HETATM    2  C   LIG     1      24.303  21.710  22.602  1.00  0.00     0.070 A 
HETATM    3  C   LIG     1      24.857  21.877  21.316  1.00  0.00     0.021 A 
HETATM    4  C   LIG     1      26.044  22.616  21.158  1.00  0.00     0.048 A 
HETATM    5 CL   LIG     1      26.780  22.847  19.575  1.00  0.00    -0.083 Cl
HETATM    6  C   LIG     1      26.669  23.180  22.274  1.00  0.00     0.050 A 
HETATM    7  C   LIG     1      26.125  23.016  23.549  1.00  0.00     0.059 A 
HETATM    8 CL   LIG     1      26.954  23.747  24.919  1.00  0.00    -0.082 Cl
HETATM    9  C   LIG     1      24.940  22.282  23.720  1.00  0.00     0.078 A 
HETATM   10 CL   LIG     1      24.255  22.079  25.334  1.00  0.00    -0.081 Cl
ENDROOT
BRANCH   3  11
HETATM   11  C   LIG     1      24.198  21.277  20.136  1.00  0.00    -0.001 A 
HETATM   12  C   LIG     1      23.303  22.052  19.382  1.00  0.00     0.014 A 
HETATM   13  C   LIG     1      22.668  21.505  18.265  1.00  0.00     0.001 A 
HETATM   14  C   LIG     1      22.923  20.183  17.892  1.00  0.00     0.002 A 
HETATM   15  C   LIG     1      23.814  19.405  18.635  1.00  0.00     0.024 A 
HETATM   16  C   LIG     1      24.455  19.945  19.757  1.00  0.00     0.045 A 
HETATM   17 CL   LIG     1      25.577  18.935  20.664  1.00  0.00    -0.083 Cl
ENDBRANCH   3  11
TORSDOF 1
ENDMDL
MODEL 12
REMARK VINA RESULT:      -4.0      3.049      6.235
REMARK  1 active torsions:
REMARK  status: ('A' for Active; 'I' for Inactive)
REMARK    1  A    between atoms: C_3  and  C_11 
ROOT
HETATM    1 CL   LIG     1      22.543  21.686  21.806  1.00  0.00    -0.081 Cl
HETATM    2  C   LIG     1      24.231  21.179  21.686  1.00  0.00     0.070 A 
HETATM    3  C   LIG     1      24.629  20.274  20.680  1.00  0.00     0.021 A 
HETATM    4  C   LIG     1      25.977  19.881  20.589  1.00  0.00     0.048 A 
HETATM    5 CL   LIG     1      26.523  18.748  19.355  1.00  0.00    -0.083 Cl
HETATM    6  C   LIG     1      26.914  20.387  21.492  1.00  0.00     0.050 A 
HETATM    7  C   LIG     1      26.526  21.282  22.491  1.00  0.00     0.059 A 
HETATM    8 CL   LIG     1      27.748  21.887  23.603  1.00  0.00    -0.082 Cl
HETATM    9  C   LIG     1      25.183  21.684  22.592  1.00  0.00     0.078 A 
HETATM   10 CL   LIG     1      24.696  22.816  23.855  1.00  0.00    -0.081 Cl
ENDROOT
BRANCH   3  11
HETATM   11  C   LIG     1      23.636  19.736  19.726  1.00  0.00    -0.001 A 
HETATM   12  C   LIG     1      22.951  18.552  20.042  1.00  0.00     0.014 A 
HETATM   13  C   LIG     1      22.009  18.026  19.154  1.00  0.00     0.001 A 
HETATM   14  C   LIG     1      21.745  18.677  17.947  1.00  0.00     0.002 A 
HETATM   15  C   LIG     1      22.421  19.857  17.625  1.00  0.00     0.024 A 
HETATM   16  C   LIG     1      23.366  20.392  18.508  1.00  0.00     0.045 A 
HETATM   17 CL   LIG     1      24.192  21.884  18.070  1.00  0.00    -0.083 Cl
ENDBRANCH   3  11
TORSDOF 1
ENDMDL
MODEL 13
REMARK VINA RESULT:      -4.0      4.021      7.242
REMARK  1 active torsions:
REMARK  status: ('A' for Active; 'I' for Inactive)
REMARK    1  A    between atoms: C_3  and  C_11 
ROOT
HETATM    1 CL   LIG     1      24.182  22.582  26.303  1.00  0.00    -0.081 Cl
HETATM    2  C   LIG     1      25.584  23.240  25.453  1.00  0.00     0.070 A 
HETATM    3  C   LIG     1      25.781  22.956  24.086  1.00  0.00     0.021 A 
HETATM    4  C   LIG     1      26.897  23.491  23.416  1.00  0.00     0.048 A 
HETATM    5 CL   LIG     1      27.192  23.160  21.711  1.00  0.00    -0.083 Cl
HETATM    6  C   LIG     1      27.805  24.298  24.106  1.00  0.00     0.050 A 
HETATM    7  C   LIG     1      27.616  24.581  25.460  1.00  0.00     0.059 A 
HETATM    8 CL   LIG     1      28.790  25.602  26.281  1.00  0.00    -0.082 Cl
HETATM    9  C   LIG     1      26.504  24.055  26.141  1.00  0.00     0.078 A 
HETATM   10 CL   LIG     1      26.268  24.415  27.852  1.00  0.00    -0.081 Cl
ENDROOT
BRANCH   3  11
HETATM   11  C   LIG     1      24.822  22.100  23.356  1.00  0.00    -0.001 A 
HETATM   12  C   LIG     1      23.779  22.698  22.633  1.00  0.00     0.014 A 
HETATM   13  C   LIG     1      22.862  21.907  21.937  1.00  0.00     0.001 A 
HETATM   14  C   LIG     1      22.979  20.515  21.958  1.00  0.00     0.002 A 
HETATM   15  C   LIG     1      24.016  19.911  22.675  1.00  0.00     0.024 A 
HETATM   16  C   LIG     1      24.940  20.695  23.375  1.00  0.00     0.045 A 
HETATM   17 CL   LIG     1      26.236  19.898  24.260  1.00  0.00    -0.083 Cl
ENDBRANCH   3  11
TORSDOF 1
ENDMDL
MODEL 14
REMARK VINA RESULT:      -3.9      4.251      6.525
REMARK  1 active torsions:
REMARK  status: ('A' for Active; 'I' for Inactive)
REMARK    1  A    between atoms: C_3  and  C_11 
ROOT
HETATM    1 CL   LIG     1      21.918  19.363  23.858  1.00  0.00    -0.081 Cl
HETATM    2  C   LIG     1      23.181  20.394  24.538  1.00  0.00     0.070 A 
HETATM    3  C   LIG     1      23.926  21.248  23.698  1.00  0.00     0.021 A 
HETATM    4  C   LIG     1      24.926  22.071  24.251  1.00  0.00     0.048 A 
HETATM    5 CL   LIG     1      25.889  23.149  23.245  1.00  0.00    -0.083 Cl
HETATM    6  C   LIG     1      25.177  22.038  25.625  1.00  0.00     0.050 A 
HETATM    7  C   LIG     1      24.443  21.193  26.460  1.00  0.00     0.059 A 
HETATM    8 CL   LIG     1      24.802  21.191  28.183  1.00  0.00    -0.082 Cl
HETATM    9  C   LIG     1      23.441  20.368  25.922  1.00  0.00     0.078 A 
HETATM   10 CL   LIG     1      22.515  19.302  26.981  1.00  0.00    -0.081 Cl
ENDROOT
BRANCH   3  11
HETATM   11  C   LIG     1      23.663  21.281  22.245  1.00  0.00    -0.001 A 
HETATM   12  C   LIG     1      22.750  22.216  21.733  1.00  0.00     0.014 A 
HETATM   13  C   LIG     1      22.486  22.263  20.362  1.00  0.00     0.001 A 
HETATM   14  C   LIG     1      23.130  21.379  19.493  1.00  0.00     0.002 A 
HETATM   15  C   LIG     1      24.042  20.446  19.994  1.00  0.00     0.024 A 
HETATM   16  C   LIG     1      24.314  20.391  21.366  1.00  0.00     0.045 A 
HETATM   17 CL   LIG     1      25.474  19.206  21.958  1.00  0.00    -0.083 Cl
ENDBRANCH   3  11
TORSDOF 1
ENDMDL
MODEL 15
REMARK VINA RESULT:      -3.9      3.905      5.660
REMARK  1 active torsions:
REMARK  status: ('A' for Active; 'I' for Inactive)
REMARK    1  A    between atoms: C_3  and  C_11 
ROOT
HETATM    1 CL   LIG     1      24.549  22.448  25.136  1.00  0.00    -0.081 Cl
HETATM    2  C   LIG     1      23.670  21.066  24.475  1.00  0.00     0.070 A 
HETATM    3  C   LIG     1      23.764  20.757  23.102  1.00  0.00     0.021 A 
HETATM    4  C   LIG     1      23.065  19.650  22.587  1.00  0.00     0.048 A 
HETATM    5 CL   LIG     1      23.144  19.226  20.879  1.00  0.00    -0.083 Cl
HETATM    6  C   LIG     1      22.281  18.863  23.434  1.00  0.00     0.050 A 
HETATM    7  C   LIG     1      22.182  19.166  24.794  1.00  0.00     0.059 A 
HETATM    8 CL   LIG     1      21.180  18.142  25.816  1.00  0.00    -0.082 Cl
HETATM    9  C   LIG     1      22.877  20.267  25.321  1.00  0.00     0.078 A 
HETATM   10 CL   LIG     1      22.751  20.646  27.041  1.00  0.00    -0.081 Cl
ENDROOT
BRANCH   3  11
HETATM   11  C   LIG     1      24.591  21.591  22.205  1.00  0.00    -0.001 A 
HETATM   12  C   LIG     1      25.970  21.343  22.114  1.00  0.00     0.014 A 
HETATM   13  C   LIG     1      26.770  22.121  21.273  1.00  0.00     0.001 A 
HETATM   14  C   LIG     1      26.200  23.148  20.517  1.00  0.00     0.002 A 
HETATM   15  C   LIG     1      24.829  23.400  20.600  1.00  0.00     0.024 A 
HETATM   16  C   LIG     1      24.019  22.627  21.440  1.00  0.00     0.045 A 
HETATM   17 CL   LIG     1      22.294  22.971  21.512  1.00  0.00    -0.083 Cl
ENDBRANCH   3  11
TORSDOF 1
ENDMDL
MODEL 16
REMARK VINA RESULT:      -3.9      2.734      5.817
REMARK  1 active torsions:
REMARK  status: ('A' for Active; 'I' for Inactive)
REMARK    1  A    between atoms: C_3  and  C_11 
ROOT
HETATM    1 CL   LIG     1      23.189  18.025  20.667  1.00  0.00    -0.081 Cl
HETATM    2  C   LIG     1      23.591  19.745  20.662  1.00  0.00     0.070 A 
HETATM    3  C   LIG     1      23.694  20.445  19.442  1.00  0.00     0.021 A 
HETATM    4  C   LIG     1      24.008  21.816  19.449  1.00  0.00     0.048 A 
HETATM    5 CL   LIG     1      24.155  22.734  17.953  1.00  0.00    -0.083 Cl
HETATM    6  C   LIG     1      24.218  22.478  20.661  1.00  0.00     0.050 A 
HETATM    7  C   LIG     1      24.120  21.790  21.872  1.00  0.00     0.059 A 
HETATM    8 CL   LIG     1      24.395  22.672  23.369  1.00  0.00    -0.082 Cl
HETATM    9  C   LIG     1      23.805  20.421  21.879  1.00  0.00     0.078 A 
HETATM   10 CL   LIG     1      23.680  19.554  23.411  1.00  0.00    -0.081 Cl
ENDROOT
BRANCH   3  11
HETATM   11  C   LIG     1      23.475  19.744  18.159  1.00  0.00    -0.001 A 
HETATM   12  C   LIG     1      22.171  19.634  17.651  1.00  0.00     0.014 A 
HETATM   13  C   LIG     1      21.942  18.974  16.440  1.00  0.00     0.001 A 
HETATM   14  C   LIG     1      23.010  18.422  15.730  1.00  0.00     0.002 A 
HETATM   15  C   LIG     1      24.311  18.528  16.228  1.00  0.00     0.024 A 
HETATM   16  C   LIG     1      24.551  19.187  17.440  1.00  0.00     0.045 A 
HETATM   17 CL   LIG     1      26.205  19.307  18.031  1.00  0.00    -0.083 Cl
ENDBRANCH   3  11
TORSDOF 1
ENDMDL
MODEL 17
REMARK VINA RESULT:      -3.9      3.058      5.289
REMARK  1 active torsions:
REMARK  status: ('A' for Active; 'I' for Inactive)
REMARK    1  A    between atoms: C_3  and  C_11 
ROOT
HETATM    1 CL   LIG     1      26.780  20.203  22.540  1.00  0.00    -0.081 Cl
HETATM    2  C   LIG     1      25.918  21.442  21.621  1.00  0.00     0.070 A 
HETATM    3  C   LIG     1      24.550  21.684  21.868  1.00  0.00     0.021 A 
HETATM    4  C   LIG     1      23.874  22.678  21.136  1.00  0.00     0.048 A 
HETATM    5 CL   LIG     1      22.166  23.013  21.402  1.00  0.00    -0.083 Cl
HETATM    6  C   LIG     1      24.558  23.419  20.169  1.00  0.00     0.050 A 
HETATM    7  C   LIG     1      25.911  23.183  19.920  1.00  0.00     0.059 A 
HETATM    8 CL   LIG     1      26.723  24.144  18.690  1.00  0.00    -0.082 Cl
HETATM    9  C   LIG     1      26.598  22.194  20.644  1.00  0.00     0.078 A 
HETATM   10 CL   LIG     1      28.309  21.899  20.327  1.00  0.00    -0.081 Cl
ENDROOT
BRANCH   3  11
HETATM   11  C   LIG     1      23.826  20.898  22.889  1.00  0.00    -0.001 A 
HETATM   12  C   LIG     1      23.099  19.763  22.494  1.00  0.00     0.014 A 
HETATM   13  C   LIG     1      22.407  19.006  23.442  1.00  0.00     0.001 A 
HETATM   14  C   LIG     1      22.436  19.375  24.790  1.00  0.00     0.002 A 
HETATM   15  C   LIG     1      23.159  20.501  25.192  1.00  0.00     0.024 A 
HETATM   16  C   LIG     1      23.856  21.266  24.249  1.00  0.00     0.045 A 
HETATM   17 CL   LIG     1      24.760  22.674  24.795  1.00  0.00    -0.083 Cl
ENDBRANCH   3  11
TORSDOF 1
ENDMDL
MODEL 18
REMARK VINA RESULT:      -3.8      3.132      4.298
REMARK  1 active torsions:
REMARK  status: ('A' for Active; 'I' for Inactive)
REMARK    1  A    between atoms: C_3  and  C_11 
ROOT
HETATM    1 CL   LIG     1      23.060  23.369  21.629  1.00  0.00    -0.081 Cl
HETATM    2  C   LIG     1      24.033  21.954  21.213  1.00  0.00     0.070 A 
HETATM    3  C   LIG     1      24.921  21.402  22.159  1.00  0.00     0.021 A 
HETATM    4  C   LIG     1      25.687  20.271  21.819  1.00  0.00     0.048 A 
HETATM    5 CL   LIG     1      26.816  19.548  22.962  1.00  0.00    -0.083 Cl
HETATM    6  C   LIG     1      25.565  19.701  20.549  1.00  0.00     0.050 A 
HETATM    7  C   LIG     1      24.689  20.245  19.608  1.00  0.00     0.059 A 
HETATM    8 CL   LIG     1      24.576  19.488  18.024  1.00  0.00    -0.082 Cl
HETATM    9  C   LIG     1      23.918  21.373  19.935  1.00  0.00     0.078 A 
HETATM   10 CL   LIG     1      22.809  22.057  18.744  1.00  0.00    -0.081 Cl
ENDROOT
BRANCH   3  11
HETATM   11  C   LIG     1      25.052  22.006  23.501  1.00  0.00    -0.001 A 
HETATM   12  C   LIG     1      24.204  21.577  24.533  1.00  0.00     0.014 A 
HETATM   13  C   LIG     1      24.310  22.136  25.809  1.00  0.00     0.001 A 
HETATM   14  C   LIG     1      25.263  23.125  26.063  1.00  0.00     0.002 A 
HETATM   15  C   LIG     1      26.112  23.557  25.042  1.00  0.00     0.024 A 
HETATM   16  C   LIG     1      26.014  23.003  23.760  1.00  0.00     0.045 A 
HETATM   17 CL   LIG     1      27.107  23.569  22.502  1.00  0.00    -0.083 Cl
ENDBRANCH   3  11
TORSDOF 1
ENDMDL
MODEL 19
REMARK VINA RESULT:      -3.8      4.036      5.697
REMARK  1 active torsions:
REMARK  status: ('A' for Active; 'I' for Inactive)
REMARK    1  A    between atoms: C_3  and  C_11 
ROOT
HETATM    1 CL   LIG     1      22.929  19.591  22.215  1.00  0.00    -0.081 Cl
HETATM    2  C   LIG     1      23.393  20.499  23.658  1.00  0.00     0.070 A 
HETATM    3  C   LIG     1      24.343  21.538  23.565  1.00  0.00     0.021 A 
HETATM    4  C   LIG     1      24.701  22.260  24.719  1.00  0.00     0.048 A 
HETATM    5 CL   LIG     1      25.887  23.561  24.658  1.00  0.00    -0.083 Cl
HETATM    6  C   LIG     1      24.117  21.945  25.949  1.00  0.00     0.050 A 
HETATM    7  C   LIG     1      23.178  20.917  26.046  1.00  0.00     0.059 A 
HETATM    8 CL   LIG     1      22.475  20.562  27.620  1.00  0.00    -0.082 Cl
HETATM    9  C   LIG     1      22.810  20.189  24.902  1.00  0.00     0.078 A 
HETATM   10 CL   LIG     1      21.622  18.890  25.028  1.00  0.00    -0.081 Cl
ENDROOT
BRANCH   3  11
HETATM   11  C   LIG     1      24.963  21.868  22.265  1.00  0.00    -0.001 A 
HETATM   12  C   LIG     1      26.195  21.288  21.925  1.00  0.00     0.014 A 
HETATM   13  C   LIG     1      26.799  21.588  20.701  1.00  0.00     0.001 A 
HETATM   14  C   LIG     1      26.177  22.466  19.810  1.00  0.00     0.002 A 
HETATM   15  C   LIG     1      24.950  23.046  20.140  1.00  0.00     0.024 A 
HETATM   16  C   LIG     1      24.337  22.753  21.364  1.00  0.00     0.045 A 
HETATM   17 CL   LIG     1      22.787  23.498  21.740  1.00  0.00    -0.083 Cl
ENDBRANCH   3  11
TORSDOF 1
ENDMDL
MODEL 20
REMARK VINA RESULT:      -3.8      1.598      3.320
REMARK  1 active torsions:
REMARK  status: ('A' for Active; 'I' for Inactive)
REMARK    1  A    between atoms: C_3  and  C_11 
ROOT
HETATM    1 CL   LIG     1      24.914  23.345  22.059  1.00  0.00    -0.081 Cl
HETATM    2  C   LIG     1      25.043  22.627  20.450  1.00  0.00     0.070 A 
HETATM    3  C   LIG     1      26.240  22.748  19.714  1.00  0.00     0.021 A 
HETATM    4  C   LIG     1      26.334  22.166  18.436  1.00  0.00     0.048 A 
HETATM    5 CL   LIG     1      27.803  22.295  17.473  1.00  0.00    -0.083 Cl
HETATM    6  C   LIG     1      25.244  21.473  17.902  1.00  0.00     0.050 A 
HETATM    7  C   LIG     1      24.057  21.352  18.626  1.00  0.00     0.059 A 
HETATM    8 CL   LIG     1      22.715  20.471  17.905  1.00  0.00    -0.082 Cl
HETATM    9  C   LIG     1      23.950  21.927  19.903  1.00  0.00     0.078 A 
HETATM   10 CL   LIG     1      22.447  21.771  20.816  1.00  0.00    -0.081 Cl
ENDROOT
BRANCH   3  11
HETATM   11  C   LIG     1      27.391  23.483  20.278  1.00  0.00    -0.001 A 
HETATM   12  C   LIG     1      28.357  22.783  21.017  1.00  0.00     0.014 A 
HETATM   13  C   LIG     1      29.453  23.459  21.560  1.00  0.00     0.001 A 
HETATM   14  C   LIG     1      29.592  24.836  21.367  1.00  0.00     0.002 A 
HETATM   15  C   LIG     1      28.636  25.540  20.631  1.00  0.00     0.024 A 
HETATM   16  C   LIG     1      27.535  24.871  20.083  1.00  0.00     0.045 A 
HETATM   17 CL   LIG     1      26.355  25.792  19.155  1.00  0.00    -0.083 Cl
ENDBRANCH   3  11
TORSDOF 1
ENDMDL
