MODEL 1
REMARK VINA RESULT:      -4.9      0.000      0.000
REMARK  1 active torsions:
REMARK  status: ('A' for Active; 'I' for Inactive)
REMARK    1  A    between atoms: C_9  and  C_10 
ROOT
HETATM    1 CL   LIG     1      27.910  27.194  18.785  1.00  0.00    -0.082 Cl
HETATM    2  C   LIG     1      27.716  25.736  19.750  1.00  0.00     0.058 A 
HETATM    3  C   LIG     1      28.774  25.221  20.517  1.00  0.00     0.079 A 
HETATM    4 CL   LIG     1      30.335  26.041  20.524  1.00  0.00    -0.081 Cl
HETATM    5  C   LIG     1      28.581  24.052  21.278  1.00  0.00     0.080 A 
HETATM    6 CL   LIG     1      29.907  23.404  22.247  1.00  0.00    -0.081 Cl
HETATM    7  C   LIG     1      27.333  23.402  21.269  1.00  0.00     0.068 A 
HETATM    8 CL   LIG     1      27.082  21.955  22.251  1.00  0.00    -0.082 Cl
HETATM    9  C   LIG     1      26.276  23.926  20.495  1.00  0.00     0.001 A 
HETATM   10  C   LIG     1      26.478  25.089  19.743  1.00  0.00     0.040 A 
ENDROOT
BRANCH   9  11
HETATM   11  C   LIG     1      24.955  23.263  20.451  1.00  0.00    -0.001 A 
HETATM   12  C   LIG     1      24.040  23.495  21.490  1.00  0.00     0.014 A 
HETATM   13  C   LIG     1      22.791  22.873  21.481  1.00  0.00     0.003 A 
HETATM   14  C   LIG     1      22.444  22.011  20.440  1.00  0.00     0.026 A 
HETATM   15  C   LIG     1      23.344  21.769  19.397  1.00  0.00     0.056 A 
HETATM   16 CL   LIG     1      22.861  20.680  18.102  1.00  0.00    -0.083 Cl
HETATM   17  C   LIG     1      24.606  22.393  19.395  1.00  0.00     0.066 A 
HETATM   18 CL   LIG     1      25.727  22.108  18.061  1.00  0.00    -0.082 Cl
ENDBRANCH   9  11
TORSDOF 1
ENDMDL
MODEL 2
REMARK VINA RESULT:      -4.9      4.084      5.488
REMARK  1 active torsions:
REMARK  status: ('A' for Active; 'I' for Inactive)
REMARK    1  A    between atoms: C_9  and  C_10 
ROOT
HETATM    1 CL   LIG     1      26.132  24.220  25.749  1.00  0.00    -0.082 Cl
HETATM    2  C   LIG     1      25.085  22.922  25.186  1.00  0.00     0.058 A 
HETATM    3  C   LIG     1      24.526  21.995  26.080  1.00  0.00     0.079 A 
HETATM    4 CL   LIG     1      24.869  22.120  27.806  1.00  0.00    -0.081 Cl
HETATM    5  C   LIG     1      23.692  20.971  25.594  1.00  0.00     0.080 A 
HETATM    6 CL   LIG     1      22.982  19.806  26.714  1.00  0.00    -0.081 Cl
HETATM    7  C   LIG     1      23.421  20.876  24.215  1.00  0.00     0.068 A 
HETATM    8 CL   LIG     1      22.347  19.610  23.610  1.00  0.00    -0.082 Cl
HETATM    9  C   LIG     1      23.988  21.811  23.324  1.00  0.00     0.001 A 
HETATM   10  C   LIG     1      24.816  22.826  23.819  1.00  0.00     0.040 A 
ENDROOT
BRANCH   9  11
HETATM   11  C   LIG     1      23.737  21.735  21.869  1.00  0.00    -0.001 A 
HETATM   12  C   LIG     1      22.661  22.452  21.324  1.00  0.00     0.014 A 
HETATM   13  C   LIG     1      22.391  22.389  19.956  1.00  0.00     0.003 A 
HETATM   14  C   LIG     1      23.190  21.608  19.120  1.00  0.00     0.026 A 
HETATM   15  C   LIG     1      24.267  20.887  19.647  1.00  0.00     0.056 A 
HETATM   16 CL   LIG     1      25.250  19.920  18.554  1.00  0.00    -0.083 Cl
HETATM   17  C   LIG     1      24.547  20.945  21.025  1.00  0.00     0.066 A 
HETATM   18 CL   LIG     1      25.926  20.057  21.681  1.00  0.00    -0.082 Cl
ENDBRANCH   9  11
TORSDOF 1
ENDMDL
MODEL 3
REMARK VINA RESULT:      -4.8      2.210      2.851
REMARK  1 active torsions:
REMARK  status: ('A' for Active; 'I' for Inactive)
REMARK    1  A    between atoms: C_9  and  C_10 
ROOT
HETATM    1 CL   LIG     1      28.025  27.261  18.587  1.00  0.00    -0.082 Cl
HETATM    2  C   LIG     1      27.925  25.507  18.485  1.00  0.00     0.058 A 
HETATM    3  C   LIG     1      29.023  24.735  18.074  1.00  0.00     0.079 A 
HETATM    4 CL   LIG     1      30.542  25.524  17.647  1.00  0.00    -0.081 Cl
HETATM    5  C   LIG     1      28.906  23.334  18.006  1.00  0.00     0.080 A 
HETATM    6 CL   LIG     1      30.286  22.359  17.494  1.00  0.00    -0.081 Cl
HETATM    7  C   LIG     1      27.691  22.710  18.348  1.00  0.00     0.068 A 
HETATM    8 CL   LIG     1      27.556  20.949  18.294  1.00  0.00    -0.082 Cl
HETATM    9  C   LIG     1      26.593  23.493  18.759  1.00  0.00     0.001 A 
HETATM   10  C   LIG     1      26.721  24.886  18.823  1.00  0.00     0.040 A 
ENDROOT
BRANCH   9  11
HETATM   11  C   LIG     1      25.297  22.874  19.113  1.00  0.00    -0.001 A 
HETATM   12  C   LIG     1      24.415  22.504  18.086  1.00  0.00     0.014 A 
HETATM   13  C   LIG     1      23.180  21.931  18.390  1.00  0.00     0.003 A 
HETATM   14  C   LIG     1      22.811  21.724  19.720  1.00  0.00     0.026 A 
HETATM   15  C   LIG     1      23.679  22.087  20.755  1.00  0.00     0.056 A 
HETATM   16 CL   LIG     1      23.175  21.802  22.417  1.00  0.00    -0.083 Cl
HETATM   17  C   LIG     1      24.928  22.665  20.459  1.00  0.00     0.066 A 
HETATM   18 CL   LIG     1      26.033  23.093  21.768  1.00  0.00    -0.082 Cl
ENDBRANCH   9  11
TORSDOF 1
ENDMDL
MODEL 4
REMARK VINA RESULT:      -4.8     13.168     14.797
REMARK  1 active torsions:
REMARK  status: ('A' for Active; 'I' for Inactive)
REMARK    1  A    between atoms: C_9  and  C_10 
ROOT
HETATM    1 CL   LIG     1      25.945  31.229  35.977  1.00  0.00    -0.082 Cl
HETATM    2  C   LIG     1      26.621  29.678  35.492  1.00  0.00     0.058 A 
HETATM    3  C   LIG     1      26.850  28.657  36.428  1.00  0.00     0.079 A 
HETATM    4 CL   LIG     1      26.458  28.918  38.128  1.00  0.00    -0.081 Cl
HETATM    5  C   LIG     1      27.391  27.429  36.004  1.00  0.00     0.080 A 
HETATM    6 CL   LIG     1      27.677  26.140  37.176  1.00  0.00    -0.081 Cl
HETATM    7  C   LIG     1      27.702  27.227  34.646  1.00  0.00     0.068 A 
HETATM    8 CL   LIG     1      28.350  25.673  34.109  1.00  0.00    -0.082 Cl
HETATM    9  C   LIG     1      27.470  28.258  33.713  1.00  0.00     0.001 A 
HETATM   10  C   LIG     1      26.930  29.476  34.146  1.00  0.00     0.040 A 
ENDROOT
BRANCH   9  11
HETATM   11  C   LIG     1      27.796  28.087  32.281  1.00  0.00    -0.001 A 
HETATM   12  C   LIG     1      26.941  27.321  31.473  1.00  0.00     0.014 A 
HETATM   13  C   LIG     1      27.231  27.130  30.122  1.00  0.00     0.003 A 
HETATM   14  C   LIG     1      28.377  27.700  29.563  1.00  0.00     0.026 A 
HETATM   15  C   LIG     1      29.239  28.466  30.354  1.00  0.00     0.056 A 
HETATM   16 CL   LIG     1      30.668  29.169  29.606  1.00  0.00    -0.083 Cl
HETATM   17  C   LIG     1      28.955  28.665  31.719  1.00  0.00     0.066 A 
HETATM   18 CL   LIG     1      30.030  29.659  32.706  1.00  0.00    -0.082 Cl
ENDBRANCH   9  11
TORSDOF 1
ENDMDL
MODEL 5
REMARK VINA RESULT:      -4.7      2.644      3.863
REMARK  1 active torsions:
REMARK  status: ('A' for Active; 'I' for Inactive)
REMARK    1  A    between atoms: C_9  and  C_10 
ROOT
HETATM    1 CL   LIG     1      29.482  20.970  16.392  1.00  0.00    -0.082 Cl
HETATM    2  C   LIG     1      28.554  22.284  17.107  1.00  0.00     0.058 A 
HETATM    3  C   LIG     1      29.014  23.610  17.067  1.00  0.00     0.079 A 
HETATM    4 CL   LIG     1      30.551  23.984  16.285  1.00  0.00    -0.081 Cl
HETATM    5  C   LIG     1      28.245  24.635  17.649  1.00  0.00     0.080 A 
HETATM    6 CL   LIG     1      28.817  26.304  17.596  1.00  0.00    -0.081 Cl
HETATM    7  C   LIG     1      27.020  24.330  18.271  1.00  0.00     0.068 A 
HETATM    8 CL   LIG     1      26.039  25.622  18.972  1.00  0.00    -0.082 Cl
HETATM    9  C   LIG     1      26.565  22.996  18.308  1.00  0.00     0.001 A 
HETATM   10  C   LIG     1      27.339  21.984  17.725  1.00  0.00     0.040 A 
ENDROOT
BRANCH   9  11
HETATM   11  C   LIG     1      25.290  22.636  18.964  1.00  0.00    -0.001 A 
HETATM   12  C   LIG     1      24.178  22.320  18.167  1.00  0.00     0.014 A 
HETATM   13  C   LIG     1      22.958  21.991  18.758  1.00  0.00     0.003 A 
HETATM   14  C   LIG     1      22.834  21.975  20.148  1.00  0.00     0.026 A 
HETATM   15  C   LIG     1      23.931  22.287  20.957  1.00  0.00     0.056 A 
HETATM   16 CL   LIG     1      23.730  22.249  22.704  1.00  0.00    -0.083 Cl
HETATM   17  C   LIG     1      25.167  22.620  20.370  1.00  0.00     0.066 A 
HETATM   18 CL   LIG     1      26.559  22.982  21.395  1.00  0.00    -0.082 Cl
ENDBRANCH   9  11
TORSDOF 1
ENDMDL
MODEL 6
REMARK VINA RESULT:      -4.7      2.278      5.541
REMARK  1 active torsions:
REMARK  status: ('A' for Active; 'I' for Inactive)
REMARK    1  A    between atoms: C_9  and  C_10 
ROOT
HETATM    1 CL   LIG     1      23.463  22.058  18.255  1.00  0.00    -0.082 Cl
HETATM    2  C   LIG     1      24.730  22.788  19.234  1.00  0.00     0.058 A 
HETATM    3  C   LIG     1      24.828  22.532  20.611  1.00  0.00     0.079 A 
HETATM    4 CL   LIG     1      23.668  21.456  21.390  1.00  0.00    -0.081 Cl
HETATM    5  C   LIG     1      25.855  23.133  21.362  1.00  0.00     0.080 A 
HETATM    6 CL   LIG     1      25.987  22.809  23.092  1.00  0.00    -0.081 Cl
HETATM    7  C   LIG     1      26.779  23.990  20.734  1.00  0.00     0.068 A 
HETATM    8 CL   LIG     1      28.088  24.718  21.672  1.00  0.00    -0.082 Cl
HETATM    9  C   LIG     1      26.672  24.244  19.351  1.00  0.00     0.001 A 
HETATM   10  C   LIG     1      25.646  23.639  18.613  1.00  0.00     0.040 A 
ENDROOT
BRANCH   9  11
HETATM   11  C   LIG     1      27.615  25.149  18.660  1.00  0.00    -0.001 A 
HETATM   12  C   LIG     1      27.566  26.524  18.936  1.00  0.00     0.014 A 
HETATM   13  C   LIG     1      28.435  27.404  18.288  1.00  0.00     0.003 A 
HETATM   14  C   LIG     1      29.357  26.922  17.359  1.00  0.00     0.026 A 
HETATM   15  C   LIG     1      29.419  25.554  17.073  1.00  0.00     0.056 A 
HETATM   16 CL   LIG     1      30.602  24.991  15.899  1.00  0.00    -0.083 Cl
HETATM   17  C   LIG     1      28.548  24.658  17.721  1.00  0.00     0.066 A 
HETATM   18 CL   LIG     1      28.651  22.929  17.380  1.00  0.00    -0.082 Cl
ENDBRANCH   9  11
TORSDOF 1
ENDMDL
MODEL 7
REMARK VINA RESULT:      -4.7     15.177     16.739
REMARK  1 active torsions:
REMARK  status: ('A' for Active; 'I' for Inactive)
REMARK    1  A    between atoms: C_9  and  C_10 
ROOT
HETATM    1 CL   LIG     1      14.233  33.279  21.219  1.00  0.00    -0.082 Cl
HETATM    2  C   LIG     1      15.429  34.567  21.127  1.00  0.00     0.058 A 
HETATM    3  C   LIG     1      16.062  34.891  19.917  1.00  0.00     0.079 A 
HETATM    4 CL   LIG     1      15.662  33.999  18.448  1.00  0.00    -0.081 Cl
HETATM    5  C   LIG     1      17.013  35.928  19.881  1.00  0.00     0.080 A 
HETATM    6 CL   LIG     1      17.808  36.342  18.360  1.00  0.00    -0.081 Cl
HETATM    7  C   LIG     1      17.328  36.637  21.056  1.00  0.00     0.068 A 
HETATM    8 CL   LIG     1      18.497  37.961  21.002  1.00  0.00    -0.082 Cl
HETATM    9  C   LIG     1      16.688  36.305  22.267  1.00  0.00     0.001 A 
HETATM   10  C   LIG     1      15.743  35.271  22.291  1.00  0.00     0.040 A 
ENDROOT
BRANCH   9  11
HETATM   11  C   LIG     1      17.003  37.018  23.524  1.00  0.00    -0.001 A 
HETATM   12  C   LIG     1      16.853  38.413  23.572  1.00  0.00     0.014 A 
HETATM   13  C   LIG     1      17.156  39.114  24.740  1.00  0.00     0.003 A 
HETATM   14  C   LIG     1      17.614  38.432  25.869  1.00  0.00     0.026 A 
HETATM   15  C   LIG     1      17.769  37.043  25.837  1.00  0.00     0.056 A 
HETATM   16 CL   LIG     1      18.343  36.225  27.285  1.00  0.00    -0.083 Cl
HETATM   17  C   LIG     1      17.465  36.326  24.664  1.00  0.00     0.066 A 
HETATM   18 CL   LIG     1      17.632  34.568  24.639  1.00  0.00    -0.082 Cl
ENDBRANCH   9  11
TORSDOF 1
ENDMDL
MODEL 8
REMARK VINA RESULT:      -4.7      2.252      5.724
REMARK  1 active torsions:
REMARK  status: ('A' for Active; 'I' for Inactive)
REMARK    1  A    between atoms: C_9  and  C_10 
ROOT
HETATM    1 CL   LIG     1      22.809  21.552  18.431  1.00  0.00    -0.082 Cl
HETATM    2  C   LIG     1      24.179  22.194  19.330  1.00  0.00     0.058 A 
HETATM    3  C   LIG     1      24.176  22.237  20.734  1.00  0.00     0.079 A 
HETATM    4 CL   LIG     1      22.779  21.639  21.629  1.00  0.00    -0.081 Cl
HETATM    5  C   LIG     1      25.290  22.756  21.419  1.00  0.00     0.080 A 
HETATM    6 CL   LIG     1      25.293  22.808  23.184  1.00  0.00    -0.081 Cl
HETATM    7  C   LIG     1      26.403  23.231  20.700  1.00  0.00     0.068 A 
HETATM    8 CL   LIG     1      27.815  23.851  21.563  1.00  0.00    -0.082 Cl
HETATM    9  C   LIG     1      26.397  23.185  19.290  1.00  0.00     0.001 A 
HETATM   10  C   LIG     1      25.284  22.666  18.618  1.00  0.00     0.040 A 
ENDROOT
BRANCH   9  11
HETATM   11  C   LIG     1      27.542  23.687  18.500  1.00  0.00    -0.001 A 
HETATM   12  C   LIG     1      28.434  22.765  17.930  1.00  0.00     0.014 A 
HETATM   13  C   LIG     1      29.531  23.210  17.191  1.00  0.00     0.003 A 
HETATM   14  C   LIG     1      29.751  24.577  17.016  1.00  0.00     0.026 A 
HETATM   15  C   LIG     1      28.872  25.509  17.577  1.00  0.00     0.056 A 
HETATM   16 CL   LIG     1      29.185  27.222  17.326  1.00  0.00    -0.083 Cl
HETATM   17  C   LIG     1      27.761  25.070  18.324  1.00  0.00     0.066 A 
HETATM   18 CL   LIG     1      26.637  26.250  19.004  1.00  0.00    -0.082 Cl
ENDBRANCH   9  11
TORSDOF 1
ENDMDL
MODEL 9
REMARK VINA RESULT:      -4.7      0.847      2.523
REMARK  1 active torsions:
REMARK  status: ('A' for Active; 'I' for Inactive)
REMARK    1  A    between atoms: C_9  and  C_10 
ROOT
HETATM    1 CL   LIG     1      29.334  23.636  23.237  1.00  0.00    -0.082 Cl
HETATM    2  C   LIG     1      28.299  24.167  21.917  1.00  0.00     0.058 A 
HETATM    3  C   LIG     1      28.673  25.228  21.076  1.00  0.00     0.079 A 
HETATM    4 CL   LIG     1      30.209  26.055  21.334  1.00  0.00    -0.081 Cl
HETATM    5  C   LIG     1      27.819  25.625  20.030  1.00  0.00     0.080 A 
HETATM    6 CL   LIG     1      28.288  26.955  18.967  1.00  0.00    -0.081 Cl
HETATM    7  C   LIG     1      26.594  24.961  19.828  1.00  0.00     0.068 A 
HETATM    8 CL   LIG     1      25.539  25.439  18.494  1.00  0.00    -0.082 Cl
HETATM    9  C   LIG     1      26.226  23.898  20.678  1.00  0.00     0.001 A 
HETATM   10  C   LIG     1      27.083  23.511  21.715  1.00  0.00     0.040 A 
ENDROOT
BRANCH   9  11
HETATM   11  C   LIG     1      24.941  23.186  20.505  1.00  0.00    -0.001 A 
HETATM   12  C   LIG     1      23.916  23.392  21.441  1.00  0.00     0.014 A 
HETATM   13  C   LIG     1      22.698  22.724  21.312  1.00  0.00     0.003 A 
HETATM   14  C   LIG     1      22.492  21.841  20.251  1.00  0.00     0.026 A 
HETATM   15  C   LIG     1      23.503  21.624  19.309  1.00  0.00     0.056 A 
HETATM   16 CL   LIG     1      23.197  20.508  17.984  1.00  0.00    -0.083 Cl
HETATM   17  C   LIG     1      24.735  22.295  19.430  1.00  0.00     0.066 A 
HETATM   18 CL   LIG     1      25.998  22.041  18.222  1.00  0.00    -0.082 Cl
ENDBRANCH   9  11
TORSDOF 1
ENDMDL
MODEL 10
REMARK VINA RESULT:      -4.7     13.059     14.576
REMARK  1 active torsions:
REMARK  status: ('A' for Active; 'I' for Inactive)
REMARK    1  A    between atoms: C_9  and  C_10 
ROOT
HETATM    1 CL   LIG     1      25.810  31.024  35.923  1.00  0.00    -0.082 Cl
HETATM    2  C   LIG     1      27.006  29.835  35.418  1.00  0.00     0.058 A 
HETATM    3  C   LIG     1      27.732  29.085  36.357  1.00  0.00     0.079 A 
HETATM    4 CL   LIG     1      27.452  29.327  38.082  1.00  0.00    -0.081 Cl
HETATM    5  C   LIG     1      28.680  28.142  35.916  1.00  0.00     0.080 A 
HETATM    6 CL   LIG     1      29.591  27.193  37.093  1.00  0.00    -0.081 Cl
HETATM    7  C   LIG     1      28.899  27.953  34.539  1.00  0.00     0.068 A 
HETATM    8 CL   LIG     1      30.064  26.746  33.986  1.00  0.00    -0.082 Cl
HETATM    9  C   LIG     1      28.166  28.712  33.602  1.00  0.00     0.001 A 
HETATM   10  C   LIG     1      27.225  29.647  34.052  1.00  0.00     0.040 A 
ENDROOT
BRANCH   9  11
HETATM   11  C   LIG     1      28.378  28.551  32.148  1.00  0.00    -0.001 A 
HETATM   12  C   LIG     1      29.335  29.352  31.506  1.00  0.00     0.014 A 
HETATM   13  C   LIG     1      29.548  29.232  30.132  1.00  0.00     0.003 A 
HETATM   14  C   LIG     1      28.806  28.315  29.385  1.00  0.00     0.026 A 
HETATM   15  C   LIG     1      27.849  27.509  30.010  1.00  0.00     0.056 A 
HETATM   16 CL   LIG     1      26.942  26.363  29.030  1.00  0.00    -0.083 Cl
HETATM   17  C   LIG     1      27.628  27.622  31.395  1.00  0.00     0.066 A 
HETATM   18 CL   LIG     1      26.440  26.581  32.185  1.00  0.00    -0.082 Cl
ENDBRANCH   9  11
TORSDOF 1
ENDMDL
MODEL 11
REMARK VINA RESULT:      -4.5      4.078      5.959
REMARK  1 active torsions:
REMARK  status: ('A' for Active; 'I' for Inactive)
REMARK    1  A    between atoms: C_9  and  C_10 
ROOT
HETATM    1 CL   LIG     1      27.307  19.187  19.793  1.00  0.00    -0.082 Cl
HETATM    2  C   LIG     1      25.919  20.182  20.220  1.00  0.00     0.058 A 
HETATM    3  C   LIG     1      25.014  20.631  19.244  1.00  0.00     0.079 A 
HETATM    4 CL   LIG     1      25.258  20.196  17.552  1.00  0.00    -0.081 Cl
HETATM    5  C   LIG     1      23.914  21.424  19.623  1.00  0.00     0.080 A 
HETATM    6 CL   LIG     1      22.771  21.986  18.401  1.00  0.00    -0.081 Cl
HETATM    7  C   LIG     1      23.725  21.767  20.975  1.00  0.00     0.068 A 
HETATM    8 CL   LIG     1      22.326  22.735  21.453  1.00  0.00    -0.082 Cl
HETATM    9  C   LIG     1      24.639  21.313  21.948  1.00  0.00     0.001 A 
HETATM   10  C   LIG     1      25.729  20.524  21.560  1.00  0.00     0.040 A 
ENDROOT
BRANCH   9  11
HETATM   11  C   LIG     1      24.480  21.665  23.376  1.00  0.00    -0.001 A 
HETATM   12  C   LIG     1      25.190  22.760  23.891  1.00  0.00     0.014 A 
HETATM   13  C   LIG     1      25.071  23.107  25.238  1.00  0.00     0.003 A 
HETATM   14  C   LIG     1      24.245  22.363  26.082  1.00  0.00     0.026 A 
HETATM   15  C   LIG     1      23.530  21.269  25.584  1.00  0.00     0.056 A 
HETATM   16 CL   LIG     1      22.496  20.365  26.684  1.00  0.00    -0.083 Cl
HETATM   17  C   LIG     1      23.643  20.912  24.227  1.00  0.00     0.066 A 
HETATM   18 CL   LIG     1      22.715  19.549  23.596  1.00  0.00    -0.082 Cl
ENDBRANCH   9  11
TORSDOF 1
ENDMDL
MODEL 12
REMARK VINA RESULT:      -4.5      2.027      5.779
REMARK  1 active torsions:
REMARK  status: ('A' for Active; 'I' for Inactive)
REMARK    1  A    between atoms: C_9  and  C_10 
ROOT
HETATM    1 CL   LIG     1      24.645  22.386  24.242  1.00  0.00    -0.082 Cl
HETATM    2  C   LIG     1      24.694  22.367  22.483  1.00  0.00     0.058 A 
HETATM    3  C   LIG     1      23.830  21.551  21.736  1.00  0.00     0.079 A 
HETATM    4 CL   LIG     1      22.664  20.517  22.563  1.00  0.00    -0.081 Cl
HETATM    5  C   LIG     1      23.898  21.563  20.331  1.00  0.00     0.080 A 
HETATM    6 CL   LIG     1      22.810  20.541  19.388  1.00  0.00    -0.081 Cl
HETATM    7  C   LIG     1      24.830  22.390  19.676  1.00  0.00     0.068 A 
HETATM    8 CL   LIG     1      24.891  22.429  17.911  1.00  0.00    -0.082 Cl
HETATM    9  C   LIG     1      25.695  23.206  20.434  1.00  0.00     0.001 A 
HETATM   10  C   LIG     1      25.619  23.187  21.832  1.00  0.00     0.040 A 
ENDROOT
BRANCH   9  11
HETATM   11  C   LIG     1      26.696  24.078  19.782  1.00  0.00    -0.001 A 
HETATM   12  C   LIG     1      26.390  25.432  19.577  1.00  0.00     0.014 A 
HETATM   13  C   LIG     1      27.310  26.276  18.952  1.00  0.00     0.003 A 
HETATM   14  C   LIG     1      28.541  25.777  18.524  1.00  0.00     0.026 A 
HETATM   15  C   LIG     1      28.861  24.429  18.721  1.00  0.00     0.056 A 
HETATM   16 CL   LIG     1      30.427  23.846  18.171  1.00  0.00    -0.083 Cl
HETATM   17  C   LIG     1      27.941  23.570  19.351  1.00  0.00     0.066 A 
HETATM   18 CL   LIG     1      28.362  21.878  19.626  1.00  0.00    -0.082 Cl
ENDBRANCH   9  11
TORSDOF 1
ENDMDL
MODEL 13
REMARK VINA RESULT:      -4.3      3.561      5.002
REMARK  1 active torsions:
REMARK  status: ('A' for Active; 'I' for Inactive)
REMARK    1  A    between atoms: C_9  and  C_10 
ROOT
HETATM    1 CL   LIG     1      23.835  22.097  27.289  1.00  0.00    -0.082 Cl
HETATM    2  C   LIG     1      24.811  22.527  25.888  1.00  0.00     0.058 A 
HETATM    3  C   LIG     1      25.804  23.517  25.966  1.00  0.00     0.079 A 
HETATM    4 CL   LIG     1      26.092  24.355  27.491  1.00  0.00    -0.081 Cl
HETATM    5  C   LIG     1      26.566  23.834  24.826  1.00  0.00     0.080 A 
HETATM    6 CL   LIG     1      27.818  25.074  24.921  1.00  0.00    -0.081 Cl
HETATM    7  C   LIG     1      26.332  23.162  23.612  1.00  0.00     0.068 A 
HETATM    8 CL   LIG     1      27.311  23.537  22.190  1.00  0.00    -0.082 Cl
HETATM    9  C   LIG     1      25.332  22.169  23.542  1.00  0.00     0.001 A 
HETATM   10  C   LIG     1      24.580  21.862  24.683  1.00  0.00     0.040 A 
ENDROOT
BRANCH   9  11
HETATM   11  C   LIG     1      25.048  21.451  22.281  1.00  0.00    -0.001 A 
HETATM   12  C   LIG     1      25.742  20.264  22.001  1.00  0.00     0.014 A 
HETATM   13  C   LIG     1      25.506  19.572  20.813  1.00  0.00     0.003 A 
HETATM   14  C   LIG     1      24.578  20.059  19.891  1.00  0.00     0.026 A 
HETATM   15  C   LIG     1      23.878  21.241  20.154  1.00  0.00     0.056 A 
HETATM   16 CL   LIG     1      22.714  21.814  18.966  1.00  0.00    -0.083 Cl
HETATM   17  C   LIG     1      24.109  21.946  21.351  1.00  0.00     0.066 A 
HETATM   18 CL   LIG     1      23.200  23.421  21.693  1.00  0.00    -0.082 Cl
ENDBRANCH   9  11
TORSDOF 1
ENDMDL
MODEL 14
REMARK VINA RESULT:      -4.3      2.500      5.599
REMARK  1 active torsions:
REMARK  status: ('A' for Active; 'I' for Inactive)
REMARK    1  A    between atoms: C_9  and  C_10 
ROOT
HETATM    1 CL   LIG     1      27.412  23.232  23.697  1.00  0.00    -0.082 Cl
HETATM    2  C   LIG     1      26.582  23.094  22.151  1.00  0.00     0.058 A 
HETATM    3  C   LIG     1      25.214  22.783  22.083  1.00  0.00     0.079 A 
HETATM    4 CL   LIG     1      24.295  22.523  23.566  1.00  0.00    -0.081 Cl
HETATM    5  C   LIG     1      24.582  22.682  20.829  1.00  0.00     0.080 A 
HETATM    6 CL   LIG     1      22.862  22.296  20.738  1.00  0.00    -0.081 Cl
HETATM    7  C   LIG     1      25.321  22.891  19.648  1.00  0.00     0.068 A 
HETATM    8 CL   LIG     1      24.519  22.796  18.077  1.00  0.00    -0.082 Cl
HETATM    9  C   LIG     1      26.694  23.202  19.727  1.00  0.00     0.001 A 
HETATM   10  C   LIG     1      27.312  23.300  20.980  1.00  0.00     0.040 A 
ENDROOT
BRANCH   9  11
HETATM   11  C   LIG     1      27.504  23.414  18.508  1.00  0.00    -0.001 A 
HETATM   12  C   LIG     1      27.931  22.299  17.770  1.00  0.00     0.014 A 
HETATM   13  C   LIG     1      28.709  22.469  16.624  1.00  0.00     0.003 A 
HETATM   14  C   LIG     1      29.071  23.750  16.205  1.00  0.00     0.026 A 
HETATM   15  C   LIG     1      28.654  24.872  16.929  1.00  0.00     0.056 A 
HETATM   16 CL   LIG     1      29.129  26.467  16.361  1.00  0.00    -0.083 Cl
HETATM   17  C   LIG     1      27.868  24.711  18.086  1.00  0.00     0.066 A 
HETATM   18 CL   LIG     1      27.318  26.131  18.980  1.00  0.00    -0.082 Cl
ENDBRANCH   9  11
TORSDOF 1
ENDMDL
MODEL 15
REMARK VINA RESULT:      -4.3      3.483      5.303
REMARK  1 active torsions:
REMARK  status: ('A' for Active; 'I' for Inactive)
REMARK    1  A    between atoms: C_9  and  C_10 
ROOT
HETATM    1 CL   LIG     1      22.970  20.915  27.100  1.00  0.00    -0.082 Cl
HETATM    2  C   LIG     1      23.961  21.629  25.832  1.00  0.00     0.058 A 
HETATM    3  C   LIG     1      25.085  22.412  26.138  1.00  0.00     0.079 A 
HETATM    4 CL   LIG     1      25.528  22.696  27.822  1.00  0.00    -0.081 Cl
HETATM    5  C   LIG     1      25.854  22.967  25.098  1.00  0.00     0.080 A 
HETATM    6 CL   LIG     1      27.272  23.948  25.477  1.00  0.00    -0.081 Cl
HETATM    7  C   LIG     1      25.496  22.737  23.756  1.00  0.00     0.068 A 
HETATM    8 CL   LIG     1      26.482  23.405  22.451  1.00  0.00    -0.082 Cl
HETATM    9  C   LIG     1      24.365  21.950  23.458  1.00  0.00     0.001 A 
HETATM   10  C   LIG     1      23.607  21.403  24.501  1.00  0.00     0.040 A 
ENDROOT
BRANCH   9  11
HETATM   11  C   LIG     1      23.950  21.698  22.061  1.00  0.00    -0.001 A 
HETATM   12  C   LIG     1      22.980  22.528  21.477  1.00  0.00     0.014 A 
HETATM   13  C   LIG     1      22.559  22.306  20.166  1.00  0.00     0.003 A 
HETATM   14  C   LIG     1      23.098  21.253  19.425  1.00  0.00     0.026 A 
HETATM   15  C   LIG     1      24.065  20.416  19.992  1.00  0.00     0.056 A 
HETATM   16 CL   LIG     1      24.720  19.104  19.019  1.00  0.00    -0.083 Cl
HETATM   17  C   LIG     1      24.497  20.632  21.314  1.00  0.00     0.066 A 
HETATM   18 CL   LIG     1      25.740  19.592  22.015  1.00  0.00    -0.082 Cl
ENDBRANCH   9  11
TORSDOF 1
ENDMDL
MODEL 16
REMARK VINA RESULT:      -4.3      1.847      2.836
REMARK  1 active torsions:
REMARK  status: ('A' for Active; 'I' for Inactive)
REMARK    1  A    between atoms: C_9  and  C_10 
ROOT
HETATM    1 CL   LIG     1      29.020  25.469  22.820  1.00  0.00    -0.082 Cl
HETATM    2  C   LIG     1      28.036  24.805  21.521  1.00  0.00     0.058 A 
HETATM    3  C   LIG     1      28.302  25.104  20.176  1.00  0.00     0.079 A 
HETATM    4 CL   LIG     1      29.648  26.166  19.762  1.00  0.00    -0.081 Cl
HETATM    5  C   LIG     1      27.494  24.554  19.164  1.00  0.00     0.080 A 
HETATM    6 CL   LIG     1      27.829  24.924  17.470  1.00  0.00    -0.081 Cl
HETATM    7  C   LIG     1      26.421  23.707  19.500  1.00  0.00     0.068 A 
HETATM    8 CL   LIG     1      25.428  22.990  18.227  1.00  0.00    -0.082 Cl
HETATM    9  C   LIG     1      26.160  23.412  20.854  1.00  0.00     0.001 A 
HETATM   10  C   LIG     1      26.971  23.965  21.853  1.00  0.00     0.040 A 
ENDROOT
BRANCH   9  11
HETATM   11  C   LIG     1      25.034  22.537  21.247  1.00  0.00    -0.001 A 
HETATM   12  C   LIG     1      23.785  23.116  21.525  1.00  0.00     0.014 A 
HETATM   13  C   LIG     1      22.708  22.317  21.911  1.00  0.00     0.003 A 
HETATM   14  C   LIG     1      22.866  20.935  22.027  1.00  0.00     0.026 A 
HETATM   15  C   LIG     1      24.104  20.342  21.753  1.00  0.00     0.056 A 
HETATM   16 CL   LIG     1      24.255  18.597  21.907  1.00  0.00    -0.083 Cl
HETATM   17  C   LIG     1      25.196  21.140  21.362  1.00  0.00     0.066 A 
HETATM   18 CL   LIG     1      26.748  20.384  20.988  1.00  0.00    -0.082 Cl
ENDBRANCH   9  11
TORSDOF 1
ENDMDL
MODEL 17
REMARK VINA RESULT:      -4.0      8.070     10.135
REMARK  1 active torsions:
REMARK  status: ('A' for Active; 'I' for Inactive)
REMARK    1  A    between atoms: C_9  and  C_10 
ROOT
HETATM    1 CL   LIG     1      24.752  22.643  26.600  1.00  0.00    -0.082 Cl
HETATM    2  C   LIG     1      26.081  23.737  26.965  1.00  0.00     0.058 A 
HETATM    3  C   LIG     1      26.981  24.151  25.969  1.00  0.00     0.079 A 
HETATM    4 CL   LIG     1      26.788  23.572  24.314  1.00  0.00    -0.081 Cl
HETATM    5  C   LIG     1      28.032  25.028  26.297  1.00  0.00     0.080 A 
HETATM    6 CL   LIG     1      29.162  25.555  25.047  1.00  0.00    -0.081 Cl
HETATM    7  C   LIG     1      28.180  25.488  27.620  1.00  0.00     0.068 A 
HETATM    8 CL   LIG     1      29.479  26.615  28.023  1.00  0.00    -0.082 Cl
HETATM    9  C   LIG     1      27.273  25.066  28.614  1.00  0.00     0.001 A 
HETATM   10  C   LIG     1      26.231  24.194  28.276  1.00  0.00     0.040 A 
ENDROOT
BRANCH   9  11
HETATM   11  C   LIG     1      27.405  25.517  30.016  1.00  0.00    -0.001 A 
HETATM   12  C   LIG     1      26.971  26.806  30.362  1.00  0.00     0.014 A 
HETATM   13  C   LIG     1      27.096  27.263  31.674  1.00  0.00     0.003 A 
HETATM   14  C   LIG     1      27.658  26.442  32.652  1.00  0.00     0.026 A 
HETATM   15  C   LIG     1      28.096  25.154  32.325  1.00  0.00     0.056 A 
HETATM   16 CL   LIG     1      28.792  24.152  33.591  1.00  0.00    -0.083 Cl
HETATM   17  C   LIG     1      27.973  24.683  31.003  1.00  0.00     0.066 A 
HETATM   18 CL   LIG     1      28.499  23.046  30.601  1.00  0.00    -0.082 Cl
ENDBRANCH   9  11
TORSDOF 1
ENDMDL
MODEL 18
REMARK VINA RESULT:      -4.0      8.224      9.646
REMARK  1 active torsions:
REMARK  status: ('A' for Active; 'I' for Inactive)
REMARK    1  A    between atoms: C_9  and  C_10 
ROOT
HETATM    1 CL   LIG     1      26.720  27.572  32.133  1.00  0.00    -0.082 Cl
HETATM    2  C   LIG     1      27.275  26.074  31.395  1.00  0.00     0.058 A 
HETATM    3  C   LIG     1      28.063  25.157  32.108  1.00  0.00     0.079 A 
HETATM    4 CL   LIG     1      28.514  25.497  33.780  1.00  0.00    -0.081 Cl
HETATM    5  C   LIG     1      28.488  23.968  31.486  1.00  0.00     0.080 A 
HETATM    6 CL   LIG     1      29.475  22.809  32.380  1.00  0.00    -0.081 Cl
HETATM    7  C   LIG     1      28.126  23.701  30.152  1.00  0.00     0.068 A 
HETATM    8 CL   LIG     1      28.632  22.194  29.383  1.00  0.00    -0.082 Cl
HETATM    9  C   LIG     1      27.335  24.629  29.442  1.00  0.00     0.001 A 
HETATM   10  C   LIG     1      26.917  25.808  30.072  1.00  0.00     0.040 A 
ENDROOT
BRANCH   9  11
HETATM   11  C   LIG     1      26.946  24.390  28.036  1.00  0.00    -0.001 A 
HETATM   12  C   LIG     1      25.862  23.540  27.763  1.00  0.00     0.014 A 
HETATM   13  C   LIG     1      25.481  23.285  26.446  1.00  0.00     0.003 A 
HETATM   14  C   LIG     1      26.177  23.871  25.388  1.00  0.00     0.026 A 
HETATM   15  C   LIG     1      27.260  24.720  25.642  1.00  0.00     0.056 A 
HETATM   16 CL   LIG     1      28.104  25.441  24.278  1.00  0.00    -0.083 Cl
HETATM   17  C   LIG     1      27.652  24.985  26.968  1.00  0.00     0.066 A 
HETATM   18 CL   LIG     1      28.999  26.081  27.285  1.00  0.00    -0.082 Cl
ENDBRANCH   9  11
TORSDOF 1
ENDMDL
MODEL 19
REMARK VINA RESULT:      -4.0     12.109     14.501
REMARK  1 active torsions:
REMARK  status: ('A' for Active; 'I' for Inactive)
REMARK    1  A    between atoms: C_9  and  C_10 
ROOT
HETATM    1 CL   LIG     1      18.276  19.465  28.673  1.00  0.00    -0.082 Cl
HETATM    2  C   LIG     1      19.616  19.523  29.813  1.00  0.00     0.058 A 
HETATM    3  C   LIG     1      20.863  18.955  29.504  1.00  0.00     0.079 A 
HETATM    4 CL   LIG     1      21.108  18.167  27.945  1.00  0.00    -0.081 Cl
HETATM    5  C   LIG     1      21.912  19.021  30.440  1.00  0.00     0.080 A 
HETATM    6 CL   LIG     1      23.483  18.314  30.054  1.00  0.00    -0.081 Cl
HETATM    7  C   LIG     1      21.711  19.652  31.683  1.00  0.00     0.068 A 
HETATM    8 CL   LIG     1      23.038  19.763  32.843  1.00  0.00    -0.082 Cl
HETATM    9  C   LIG     1      20.455  20.218  31.985  1.00  0.00     0.001 A 
HETATM   10  C   LIG     1      19.418  20.147  31.046  1.00  0.00     0.040 A 
ENDROOT
BRANCH   9  11
HETATM   11  C   LIG     1      20.202  20.877  33.285  1.00  0.00    -0.001 A 
HETATM   12  C   LIG     1      20.416  22.259  33.402  1.00  0.00     0.014 A 
HETATM   13  C   LIG     1      20.199  22.906  34.619  1.00  0.00     0.003 A 
HETATM   14  C   LIG     1      19.770  22.180  35.731  1.00  0.00     0.026 A 
HETATM   15  C   LIG     1      19.552  20.802  35.632  1.00  0.00     0.056 A 
HETATM   16 CL   LIG     1      19.005  19.930  37.058  1.00  0.00    -0.083 Cl
HETATM   17  C   LIG     1      19.767  20.141  34.408  1.00  0.00     0.066 A 
HETATM   18 CL   LIG     1      19.460  18.406  34.279  1.00  0.00    -0.082 Cl
ENDBRANCH   9  11
TORSDOF 1
ENDMDL
MODEL 20
REMARK VINA RESULT:      -3.9      9.570     11.036
REMARK  1 active torsions:
REMARK  status: ('A' for Active; 'I' for Inactive)
REMARK    1  A    between atoms: C_9  and  C_10 
ROOT
HETATM    1 CL   LIG     1      26.540  27.668  34.034  1.00  0.00    -0.082 Cl
HETATM    2  C   LIG     1      27.350  27.519  32.478  1.00  0.00     0.058 A 
HETATM    3  C   LIG     1      28.288  28.471  32.048  1.00  0.00     0.079 A 
HETATM    4 CL   LIG     1      28.675  29.851  33.078  1.00  0.00    -0.081 Cl
HETATM    5  C   LIG     1      28.916  28.319  30.798  1.00  0.00     0.080 A 
HETATM    6 CL   LIG     1      30.100  29.511  30.257  1.00  0.00    -0.081 Cl
HETATM    7  C   LIG     1      28.604  27.216  29.981  1.00  0.00     0.068 A 
HETATM    8 CL   LIG     1      29.418  27.008  28.428  1.00  0.00    -0.082 Cl
HETATM    9  C   LIG     1      27.659  26.265  30.420  1.00  0.00     0.001 A 
HETATM   10  C   LIG     1      27.041  26.426  31.666  1.00  0.00     0.040 A 
ENDROOT
BRANCH   9  11
HETATM   11  C   LIG     1      27.296  25.100  29.584  1.00  0.00    -0.001 A 
HETATM   12  C   LIG     1      26.536  25.307  28.422  1.00  0.00     0.014 A 
HETATM   13  C   LIG     1      26.166  24.226  27.620  1.00  0.00     0.003 A 
HETATM   14  C   LIG     1      26.547  22.930  27.972  1.00  0.00     0.026 A 
HETATM   15  C   LIG     1      27.304  22.707  29.127  1.00  0.00     0.056 A 
HETATM   16 CL   LIG     1      27.766  21.057  29.528  1.00  0.00    -0.083 Cl
HETATM   17  C   LIG     1      27.683  23.791  29.942  1.00  0.00     0.066 A 
HETATM   18 CL   LIG     1      28.664  23.508  31.382  1.00  0.00    -0.082 Cl
ENDBRANCH   9  11
TORSDOF 1
ENDMDL
