REMARK  1 active torsions:
REMARK  status: ('A' for Active; 'I' for Inactive)
REMARK    1  A    between atoms: C_1  and  C_2 
ROOT
HETATM    1  C   LIG     1      -0.742  -0.021   0.020  1.00  0.00    -0.023 A 
HETATM    2  C   LIG     1      -1.489  -0.155  -1.163  1.00  0.00     0.031 A 
HETATM    3  C   LIG     1      -2.884  -0.193  -1.102  1.00  0.00     0.117 A 
HETATM    4  N   LIG     1      -3.517  -0.100   0.096  1.00  0.00    -0.273 NA
HETATM    5  C   LIG     1      -2.825   0.032   1.258  1.00  0.00     0.117 A 
HETATM    6  C   LIG     1      -1.429   0.072   1.243  1.00  0.00     0.031 A 
ENDROOT
BRANCH   1   7
HETATM    7  C   LIG     1       0.742   0.021  -0.020  1.00  0.00    -0.023 A 
HETATM    8  C   LIG     1       1.412   0.718  -1.041  1.00  0.00     0.031 A 
HETATM    9  C   LIG     1       2.809   0.745  -1.060  1.00  0.00     0.117 A 
HETATM   10  N   LIG     1       3.517   0.100  -0.096  1.00  0.00    -0.273 NA
HETATM   11  C   LIG     1       2.900  -0.583   0.903  1.00  0.00     0.117 A 
HETATM   12  C   LIG     1       1.506  -0.635   0.961  1.00  0.00     0.031 A 
ENDBRANCH   1   7
TORSDOF 1
