MODEL 1
REMARK VINA RESULT:      -6.6      0.000      0.000
REMARK  1 active torsions:
REMARK  status: ('A' for Active; 'I' for Inactive)
REMARK    1  A    between atoms: C_1  and  C_2 
ROOT
HETATM    1  C   LIG     1      16.902  35.723  22.438  1.00  0.00    -0.023 A 
HETATM    2  C   LIG     1      15.974  34.735  22.068  1.00  0.00     0.031 A 
HETATM    3  C   LIG     1      15.703  34.508  20.717  1.00  0.00     0.117 A 
HETATM    4  N   LIG     1      16.334  35.239  19.763  1.00  0.00    -0.273 NA
HETATM    5  C   LIG     1      17.238  36.201  20.085  1.00  0.00     0.117 A 
HETATM    6  C   LIG     1      17.537  36.462  21.424  1.00  0.00     0.031 A 
ENDROOT
BRANCH   1   7
HETATM    7  C   LIG     1      17.205  35.983  23.868  1.00  0.00    -0.023 A 
HETATM    8  C   LIG     1      17.399  34.917  24.765  1.00  0.00     0.031 A 
HETATM    9  C   LIG     1      17.683  35.183  26.106  1.00  0.00     0.117 A 
HETATM   10  N   LIG     1      17.773  36.467  26.543  1.00  0.00    -0.273 NA
HETATM   11  C   LIG     1      17.590  37.519  25.703  1.00  0.00     0.117 A 
HETATM   12  C   LIG     1      17.305  37.298  24.354  1.00  0.00     0.031 A 
ENDBRANCH   1   7
TORSDOF 1
ENDMDL
MODEL 2
REMARK VINA RESULT:      -6.6      0.014      4.925
REMARK  1 active torsions:
REMARK  status: ('A' for Active; 'I' for Inactive)
REMARK    1  A    between atoms: C_1  and  C_2 
ROOT
HETATM    1  C   LIG     1      17.201  35.979  23.856  1.00  0.00    -0.023 A 
HETATM    2  C   LIG     1      17.398  34.914  24.752  1.00  0.00     0.031 A 
HETATM    3  C   LIG     1      17.683  35.179  26.094  1.00  0.00     0.117 A 
HETATM    4  N   LIG     1      17.770  36.462  26.532  1.00  0.00    -0.273 NA
HETATM    5  C   LIG     1      17.584  37.514  25.692  1.00  0.00     0.117 A 
HETATM    6  C   LIG     1      17.299  37.294  24.343  1.00  0.00     0.031 A 
ENDROOT
BRANCH   1   7
HETATM    7  C   LIG     1      16.898  35.721  22.426  1.00  0.00    -0.023 A 
HETATM    8  C   LIG     1      17.540  36.455  21.413  1.00  0.00     0.031 A 
HETATM    9  C   LIG     1      17.240  36.196  20.073  1.00  0.00     0.117 A 
HETATM   10  N   LIG     1      16.330  35.240  19.750  1.00  0.00    -0.273 NA
HETATM   11  C   LIG     1      15.692  34.514  20.704  1.00  0.00     0.117 A 
HETATM   12  C   LIG     1      15.962  34.739  22.056  1.00  0.00     0.031 A 
ENDBRANCH   1   7
TORSDOF 1
ENDMDL
MODEL 3
REMARK VINA RESULT:      -6.2      2.631      4.492
REMARK  1 active torsions:
REMARK  status: ('A' for Active; 'I' for Inactive)
REMARK    1  A    between atoms: C_1  and  C_2 
ROOT
HETATM    1  C   LIG     1      18.211  37.368  20.575  1.00  0.00    -0.023 A 
HETATM    2  C   LIG     1      19.197  37.122  19.604  1.00  0.00     0.031 A 
HETATM    3  C   LIG     1      20.088  38.136  19.248  1.00  0.00     0.117 A 
HETATM    4  N   LIG     1      20.004  39.356  19.839  1.00  0.00    -0.273 NA
HETATM    5  C   LIG     1      19.064  39.627  20.783  1.00  0.00     0.117 A 
HETATM    6  C   LIG     1      18.152  38.642  21.167  1.00  0.00     0.031 A 
ENDROOT
BRANCH   1   7
HETATM    7  C   LIG     1      17.252  36.305  20.969  1.00  0.00    -0.023 A 
HETATM    8  C   LIG     1      17.050  35.987  22.324  1.00  0.00     0.031 A 
HETATM    9  C   LIG     1      16.143  34.983  22.673  1.00  0.00     0.117 A 
HETATM   10  N   LIG     1      15.458  34.317  21.707  1.00  0.00    -0.273 NA
HETATM   11  C   LIG     1      15.631  34.599  20.390  1.00  0.00     0.117 A 
HETATM   12  C   LIG     1      16.527  35.595  19.996  1.00  0.00     0.031 A 
ENDBRANCH   1   7
TORSDOF 1
ENDMDL
MODEL 4
REMARK VINA RESULT:      -6.1      2.633      4.432
REMARK  1 active torsions:
REMARK  status: ('A' for Active; 'I' for Inactive)
REMARK    1  A    between atoms: C_1  and  C_2 
ROOT
HETATM    1  C   LIG     1      17.250  36.301  20.972  1.00  0.00    -0.023 A 
HETATM    2  C   LIG     1      17.037  35.991  22.326  1.00  0.00     0.031 A 
HETATM    3  C   LIG     1      16.130  34.987  22.673  1.00  0.00     0.117 A 
HETATM    4  N   LIG     1      15.458  34.311  21.706  1.00  0.00    -0.273 NA
HETATM    5  C   LIG     1      15.642  34.585  20.388  1.00  0.00     0.117 A 
HETATM    6  C   LIG     1      16.537  35.583  19.996  1.00  0.00     0.031 A 
ENDROOT
BRANCH   1   7
HETATM    7  C   LIG     1      18.208  37.366  20.578  1.00  0.00    -0.023 A 
HETATM    8  C   LIG     1      19.189  37.121  19.601  1.00  0.00     0.031 A 
HETATM    9  C   LIG     1      20.081  38.137  19.246  1.00  0.00     0.117 A 
HETATM   10  N   LIG     1      20.000  39.355  19.842  1.00  0.00    -0.273 NA
HETATM   11  C   LIG     1      19.065  39.623  20.790  1.00  0.00     0.117 A 
HETATM   12  C   LIG     1      18.154  38.637  21.175  1.00  0.00     0.031 A 
ENDBRANCH   1   7
TORSDOF 1
ENDMDL
MODEL 5
REMARK VINA RESULT:      -6.1      7.855     11.048
REMARK  1 active torsions:
REMARK  status: ('A' for Active; 'I' for Inactive)
REMARK    1  A    between atoms: C_1  and  C_2 
ROOT
HETATM    1  C   LIG     1      15.002  31.142  15.124  1.00  0.00    -0.023 A 
HETATM    2  C   LIG     1      14.322  31.697  16.222  1.00  0.00     0.031 A 
HETATM    3  C   LIG     1      14.726  32.930  16.738  1.00  0.00     0.117 A 
HETATM    4  N   LIG     1      15.772  33.593  16.180  1.00  0.00    -0.273 NA
HETATM    5  C   LIG     1      16.450  33.086  15.117  1.00  0.00     0.117 A 
HETATM    6  C   LIG     1      16.081  31.854  14.572  1.00  0.00     0.031 A 
ENDROOT
BRANCH   1   7
HETATM    7  C   LIG     1      14.591  29.832  14.559  1.00  0.00    -0.023 A 
HETATM    8  C   LIG     1      13.232  29.479  14.482  1.00  0.00     0.031 A 
HETATM    9  C   LIG     1      12.866  28.241  13.947  1.00  0.00     0.117 A 
HETATM   10  N   LIG     1      13.820  27.382  13.503  1.00  0.00    -0.273 NA
HETATM   11  C   LIG     1      15.141  27.692  13.564  1.00  0.00     0.117 A 
HETATM   12  C   LIG     1      15.551  28.919  14.090  1.00  0.00     0.031 A 
ENDBRANCH   1   7
TORSDOF 1
ENDMDL
MODEL 6
REMARK VINA RESULT:      -6.1      7.834     11.072
REMARK  1 active torsions:
REMARK  status: ('A' for Active; 'I' for Inactive)
REMARK    1  A    between atoms: C_1  and  C_2 
ROOT
HETATM    1  C   LIG     1      15.019  31.162  15.126  1.00  0.00    -0.023 A 
HETATM    2  C   LIG     1      16.086  31.879  14.560  1.00  0.00     0.031 A 
HETATM    3  C   LIG     1      16.461  33.111  15.103  1.00  0.00     0.117 A 
HETATM    4  N   LIG     1      15.796  33.613  16.176  1.00  0.00    -0.273 NA
HETATM    5  C   LIG     1      14.760  32.944  16.748  1.00  0.00     0.117 A 
HETATM    6  C   LIG     1      14.352  31.711  16.235  1.00  0.00     0.031 A 
ENDROOT
BRANCH   1   7
HETATM    7  C   LIG     1      14.603  29.851  14.565  1.00  0.00    -0.023 A 
HETATM    8  C   LIG     1      15.561  28.935  14.097  1.00  0.00     0.031 A 
HETATM    9  C   LIG     1      15.148  27.707  13.573  1.00  0.00     0.117 A 
HETATM   10  N   LIG     1      13.825  27.401  13.515  1.00  0.00    -0.273 NA
HETATM   11  C   LIG     1      12.875  28.264  13.957  1.00  0.00     0.117 A 
HETATM   12  C   LIG     1      13.243  29.501  14.490  1.00  0.00     0.031 A 
ENDBRANCH   1   7
TORSDOF 1
ENDMDL
MODEL 7
REMARK VINA RESULT:      -6.1      7.843     10.502
REMARK  1 active torsions:
REMARK  status: ('A' for Active; 'I' for Inactive)
REMARK    1  A    between atoms: C_1  and  C_2 
ROOT
HETATM    1  C   LIG     1      14.612  29.841  14.552  1.00  0.00    -0.023 A 
HETATM    2  C   LIG     1      15.556  28.910  14.083  1.00  0.00     0.031 A 
HETATM    3  C   LIG     1      15.125  27.685  13.570  1.00  0.00     0.117 A 
HETATM    4  N   LIG     1      13.800  27.392  13.522  1.00  0.00    -0.273 NA
HETATM    5  C   LIG     1      12.862  28.270  13.965  1.00  0.00     0.117 A 
HETATM    6  C   LIG     1      13.248  29.506  14.489  1.00  0.00     0.031 A 
ENDROOT
BRANCH   1   7
HETATM    7  C   LIG     1      15.045  31.150  15.103  1.00  0.00    -0.023 A 
HETATM    8  C   LIG     1      16.110  31.857  14.517  1.00  0.00     0.031 A 
HETATM    9  C   LIG     1      16.502  33.087  15.051  1.00  0.00     0.117 A 
HETATM   10  N   LIG     1      15.857  33.598  16.133  1.00  0.00    -0.273 NA
HETATM   11  C   LIG     1      14.826  32.939  16.723  1.00  0.00     0.117 A 
HETATM   12  C   LIG     1      14.401  31.708  16.221  1.00  0.00     0.031 A 
ENDBRANCH   1   7
TORSDOF 1
ENDMDL
MODEL 8
REMARK VINA RESULT:      -6.1      0.402      4.764
REMARK  1 active torsions:
REMARK  status: ('A' for Active; 'I' for Inactive)
REMARK    1  A    between atoms: C_1  and  C_2 
ROOT
HETATM    1  C   LIG     1      17.215  35.975  23.735  1.00  0.00    -0.023 A 
HETATM    2  C   LIG     1      17.444  35.020  24.740  1.00  0.00     0.031 A 
HETATM    3  C   LIG     1      17.852  35.433  26.010  1.00  0.00     0.117 A 
HETATM    4  N   LIG     1      18.026  36.754  26.274  1.00  0.00    -0.273 NA
HETATM    5  C   LIG     1      17.811  37.704  25.326  1.00  0.00     0.117 A 
HETATM    6  C   LIG     1      17.405  37.334  24.042  1.00  0.00     0.031 A 
ENDROOT
BRANCH   1   7
HETATM    7  C   LIG     1      16.782  35.560  22.376  1.00  0.00    -0.023 A 
HETATM    8  C   LIG     1      15.934  34.452  22.202  1.00  0.00     0.031 A 
HETATM    9  C   LIG     1      15.538  34.077  20.915  1.00  0.00     0.117 A 
HETATM   10  N   LIG     1      15.972  34.781  19.837  1.00  0.00    -0.273 NA
HETATM   11  C   LIG     1      16.793  35.855  19.971  1.00  0.00     0.117 A 
HETATM   12  C   LIG     1      17.212  36.264  21.238  1.00  0.00     0.031 A 
ENDBRANCH   1   7
TORSDOF 1
ENDMDL
MODEL 9
REMARK VINA RESULT:      -5.9      2.214      3.176
REMARK  1 active torsions:
REMARK  status: ('A' for Active; 'I' for Inactive)
REMARK    1  A    between atoms: C_1  and  C_2 
ROOT
HETATM    1  C   LIG     1      18.180  37.866  21.206  1.00  0.00    -0.023 A 
HETATM    2  C   LIG     1      18.260  36.849  20.239  1.00  0.00     0.031 A 
HETATM    3  C   LIG     1      18.657  37.160  18.936  1.00  0.00     0.117 A 
HETATM    4  N   LIG     1      18.966  38.440  18.605  1.00  0.00    -0.273 NA
HETATM    5  C   LIG     1      18.900  39.447  19.515  1.00  0.00     0.117 A 
HETATM    6  C   LIG     1      18.506  39.180  20.828  1.00  0.00     0.031 A 
ENDROOT
BRANCH   1   7
HETATM    7  C   LIG     1      17.759  37.559  22.597  1.00  0.00    -0.023 A 
HETATM    8  C   LIG     1      17.835  38.540  23.601  1.00  0.00     0.031 A 
HETATM    9  C   LIG     1      17.434  38.231  24.903  1.00  0.00     0.117 A 
HETATM   10  N   LIG     1      16.974  36.987  25.198  1.00  0.00    -0.273 NA
HETATM   11  C   LIG     1      16.889  36.017  24.251  1.00  0.00     0.117 A 
HETATM   12  C   LIG     1      17.278  36.283  22.937  1.00  0.00     0.031 A 
ENDBRANCH   1   7
TORSDOF 1
ENDMDL
MODEL 10
REMARK VINA RESULT:      -5.9      2.208      5.275
REMARK  1 active torsions:
REMARK  status: ('A' for Active; 'I' for Inactive)
REMARK    1  A    between atoms: C_1  and  C_2 
ROOT
HETATM    1  C   LIG     1      17.755  37.560  22.602  1.00  0.00    -0.023 A 
HETATM    2  C   LIG     1      17.846  38.538  23.608  1.00  0.00     0.031 A 
HETATM    3  C   LIG     1      17.446  38.232  24.911  1.00  0.00     0.117 A 
HETATM    4  N   LIG     1      16.972  36.994  25.206  1.00  0.00    -0.273 NA
HETATM    5  C   LIG     1      16.873  36.026  24.258  1.00  0.00     0.117 A 
HETATM    6  C   LIG     1      17.259  36.290  22.942  1.00  0.00     0.031 A 
ENDROOT
BRANCH   1   7
HETATM    7  C   LIG     1      18.174  37.863  21.210  1.00  0.00    -0.023 A 
HETATM    8  C   LIG     1      18.260  36.839  20.249  1.00  0.00     0.031 A 
HETATM    9  C   LIG     1      18.656  37.145  18.944  1.00  0.00     0.117 A 
HETATM   10  N   LIG     1      18.956  38.426  18.605  1.00  0.00    -0.273 NA
HETATM   11  C   LIG     1      18.884  39.437  19.510  1.00  0.00     0.117 A 
HETATM   12  C   LIG     1      18.492  39.176  20.824  1.00  0.00     0.031 A 
ENDBRANCH   1   7
TORSDOF 1
ENDMDL
MODEL 11
REMARK VINA RESULT:      -5.8      7.428      9.889
REMARK  1 active torsions:
REMARK  status: ('A' for Active; 'I' for Inactive)
REMARK    1  A    between atoms: C_1  and  C_2 
ROOT
HETATM    1  C   LIG     1      14.757  30.544  14.804  1.00  0.00    -0.023 A 
HETATM    2  C   LIG     1      13.402  30.191  14.926  1.00  0.00     0.031 A 
HETATM    3  C   LIG     1      12.960  28.957  14.441  1.00  0.00     0.117 A 
HETATM    4  N   LIG     1      13.836  28.102  13.854  1.00  0.00    -0.273 NA
HETATM    5  C   LIG     1      15.153  28.411  13.721  1.00  0.00     0.117 A 
HETATM    6  C   LIG     1      15.637  29.635  14.190  1.00  0.00     0.031 A 
ENDROOT
BRANCH   1   7
HETATM    7  C   LIG     1      15.250  31.849  15.311  1.00  0.00    -0.023 A 
HETATM    8  C   LIG     1      14.606  32.491  16.383  1.00  0.00     0.031 A 
HETATM    9  C   LIG     1      15.086  33.719  16.845  1.00  0.00     0.117 A 
HETATM   10  N   LIG     1      16.171  34.291  16.260  1.00  0.00    -0.273 NA
HETATM   11  C   LIG     1      16.815  33.698  15.222  1.00  0.00     0.117 A 
HETATM   12  C   LIG     1      16.370  32.470  14.729  1.00  0.00     0.031 A 
ENDBRANCH   1   7
TORSDOF 1
ENDMDL
MODEL 12
REMARK VINA RESULT:      -5.6      5.289      7.875
REMARK  1 active torsions:
REMARK  status: ('A' for Active; 'I' for Inactive)
REMARK    1  A    between atoms: C_1  and  C_2 
ROOT
HETATM    1  C   LIG     1      14.579  31.651  16.295  1.00  0.00    -0.023 A 
HETATM    2  C   LIG     1      15.420  31.569  15.171  1.00  0.00     0.031 A 
HETATM    3  C   LIG     1      15.072  30.738  14.104  1.00  0.00     0.117 A 
HETATM    4  N   LIG     1      13.924  30.012  14.150  1.00  0.00    -0.273 NA
HETATM    5  C   LIG     1      13.089  30.070  15.220  1.00  0.00     0.117 A 
HETATM    6  C   LIG     1      13.399  30.887  16.310  1.00  0.00     0.031 A 
ENDROOT
BRANCH   1   7
HETATM    7  C   LIG     1      14.929  32.527  17.442  1.00  0.00    -0.023 A 
HETATM    8  C   LIG     1      15.062  31.994  18.736  1.00  0.00     0.031 A 
HETATM    9  C   LIG     1      15.392  32.836  19.801  1.00  0.00     0.117 A 
HETATM   10  N   LIG     1      15.582  34.164  19.588  1.00  0.00    -0.273 NA
HETATM   11  C   LIG     1      15.460  34.711  18.350  1.00  0.00     0.117 A 
HETATM   12  C   LIG     1      15.133  33.906  17.257  1.00  0.00     0.031 A 
ENDBRANCH   1   7
TORSDOF 1
ENDMDL
MODEL 13
REMARK VINA RESULT:      -5.6      5.128      7.669
REMARK  1 active torsions:
REMARK  status: ('A' for Active; 'I' for Inactive)
REMARK    1  A    between atoms: C_1  and  C_2 
ROOT
HETATM    1  C   LIG     1      14.701  31.767  16.427  1.00  0.00    -0.023 A 
HETATM    2  C   LIG     1      13.541  30.972  16.406  1.00  0.00     0.031 A 
HETATM    3  C   LIG     1      13.255  30.191  15.284  1.00  0.00     0.117 A 
HETATM    4  N   LIG     1      14.095  30.198  14.217  1.00  0.00    -0.273 NA
HETATM    5  C   LIG     1      15.224  30.953  14.205  1.00  0.00     0.117 A 
HETATM    6  C   LIG     1      15.547  31.751  15.305  1.00  0.00     0.031 A 
ENDROOT
BRANCH   1   7
HETATM    7  C   LIG     1      15.025  32.606  17.608  1.00  0.00    -0.023 A 
HETATM    8  C   LIG     1      15.234  33.989  17.469  1.00  0.00     0.031 A 
HETATM    9  C   LIG     1      15.538  34.761  18.594  1.00  0.00     0.117 A 
HETATM   10  N   LIG     1      15.632  34.176  19.817  1.00  0.00    -0.273 NA
HETATM   11  C   LIG     1      15.436  32.842  19.985  1.00  0.00     0.117 A 
HETATM   12  C   LIG     1      15.129  32.034  18.889  1.00  0.00     0.031 A 
ENDBRANCH   1   7
TORSDOF 1
ENDMDL
MODEL 14
REMARK VINA RESULT:      -4.9      7.713      9.215
REMARK  1 active torsions:
REMARK  status: ('A' for Active; 'I' for Inactive)
REMARK    1  A    between atoms: C_1  and  C_2 
ROOT
HETATM    1  C   LIG     1      16.257  32.739  14.821  1.00  0.00    -0.023 A 
HETATM    2  C   LIG     1      17.008  33.855  15.227  1.00  0.00     0.031 A 
HETATM    3  C   LIG     1      17.914  34.441  14.340  1.00  0.00     0.117 A 
HETATM    4  N   LIG     1      18.068  33.936  13.089  1.00  0.00    -0.273 NA
HETATM    5  C   LIG     1      17.356  32.859  12.664  1.00  0.00     0.117 A 
HETATM    6  C   LIG     1      16.441  32.241  13.520  1.00  0.00     0.031 A 
ENDROOT
BRANCH   1   7
HETATM    7  C   LIG     1      15.288  32.098  15.747  1.00  0.00    -0.023 A 
HETATM    8  C   LIG     1      15.194  32.515  17.087  1.00  0.00     0.031 A 
HETATM    9  C   LIG     1      14.276  31.898  17.941  1.00  0.00     0.117 A 
HETATM   10  N   LIG     1      13.478  30.900  17.480  1.00  0.00    -0.273 NA
HETATM   11  C   LIG     1      13.545  30.473  16.192  1.00  0.00     0.117 A 
HETATM   12  C   LIG     1      14.448  31.062  15.303  1.00  0.00     0.031 A 
ENDBRANCH   1   7
TORSDOF 1
ENDMDL
MODEL 15
REMARK VINA RESULT:      -4.9      7.970      9.742
REMARK  1 active torsions:
REMARK  status: ('A' for Active; 'I' for Inactive)
REMARK    1  A    between atoms: C_1  and  C_2 
ROOT
HETATM    1  C   LIG     1      15.170  31.989  15.658  1.00  0.00    -0.023 A 
HETATM    2  C   LIG     1      15.013  32.364  17.003  1.00  0.00     0.031 A 
HETATM    3  C   LIG     1      14.056  31.725  17.794  1.00  0.00     0.117 A 
HETATM    4  N   LIG     1      13.279  30.744  17.266  1.00  0.00    -0.273 NA
HETATM    5  C   LIG     1      13.406  30.357  15.970  1.00  0.00     0.117 A 
HETATM    6  C   LIG     1      14.350  30.971  15.143  1.00  0.00     0.031 A 
ENDROOT
BRANCH   1   7
HETATM    7  C   LIG     1      16.181  32.655  14.797  1.00  0.00    -0.023 A 
HETATM    8  C   LIG     1      16.922  33.749  15.277  1.00  0.00     0.031 A 
HETATM    9  C   LIG     1      17.868  34.361  14.451  1.00  0.00     0.117 A 
HETATM   10  N   LIG     1      18.071  33.901  13.188  1.00  0.00    -0.273 NA
HETATM   11  C   LIG     1      17.371  32.846  12.694  1.00  0.00     0.117 A 
HETATM   12  C   LIG     1      16.417  32.205  13.486  1.00  0.00     0.031 A 
ENDBRANCH   1   7
TORSDOF 1
ENDMDL
MODEL 16
REMARK VINA RESULT:      -4.9      8.828     10.258
REMARK  1 active torsions:
REMARK  status: ('A' for Active; 'I' for Inactive)
REMARK    1  A    between atoms: C_1  and  C_2 
ROOT
HETATM    1  C   LIG     1      16.283  32.508  14.326  1.00  0.00    -0.023 A 
HETATM    2  C   LIG     1      16.941  32.521  13.085  1.00  0.00     0.031 A 
HETATM    3  C   LIG     1      17.892  33.508  12.814  1.00  0.00     0.117 A 
HETATM    4  N   LIG     1      18.181  34.451  13.748  1.00  0.00    -0.273 NA
HETATM    5  C   LIG     1      17.564  34.466  14.959  1.00  0.00     0.117 A 
HETATM    6  C   LIG     1      16.605  33.500  15.270  1.00  0.00     0.031 A 
ENDROOT
BRANCH   1   7
HETATM    7  C   LIG     1      15.267  31.470  14.636  1.00  0.00    -0.023 A 
HETATM    8  C   LIG     1      15.098  30.358  13.792  1.00  0.00     0.031 A 
HETATM    9  C   LIG     1      14.137  29.393  14.102  1.00  0.00     0.117 A 
HETATM   10  N   LIG     1      13.369  29.527  15.215  1.00  0.00    -0.273 NA
HETATM   11  C   LIG     1      13.507  30.589  16.050  1.00  0.00     0.117 A 
HETATM   12  C   LIG     1      14.455  31.577  15.779  1.00  0.00     0.031 A 
ENDBRANCH   1   7
TORSDOF 1
ENDMDL
MODEL 17
REMARK VINA RESULT:      -4.8      8.468     11.335
REMARK  1 active torsions:
REMARK  status: ('A' for Active; 'I' for Inactive)
REMARK    1  A    between atoms: C_1  and  C_2 
ROOT
HETATM    1  C   LIG     1      17.807  33.569  13.384  1.00  0.00    -0.023 A 
HETATM    2  C   LIG     1      17.646  34.189  14.634  1.00  0.00     0.031 A 
HETATM    3  C   LIG     1      16.645  33.749  15.503  1.00  0.00     0.117 A 
HETATM    4  N   LIG     1      15.830  32.725  15.142  1.00  0.00    -0.273 NA
HETATM    5  C   LIG     1      15.960  32.102  13.941  1.00  0.00     0.117 A 
HETATM    6  C   LIG     1      16.946  32.512  13.041  1.00  0.00     0.031 A 
ENDROOT
BRANCH   1   7
HETATM    7  C   LIG     1      18.864  34.020  12.443  1.00  0.00    -0.023 A 
HETATM    8  C   LIG     1      20.224  33.866  12.765  1.00  0.00     0.031 A 
HETATM    9  C   LIG     1      21.203  34.297  11.866  1.00  0.00     0.117 A 
HETATM   10  N   LIG     1      20.842  34.864  10.685  1.00  0.00    -0.273 NA
HETATM   11  C   LIG     1      19.537  35.028  10.344  1.00  0.00     0.117 A 
HETATM   12  C   LIG     1      18.527  34.610  11.212  1.00  0.00     0.031 A 
ENDBRANCH   1   7
TORSDOF 1
ENDMDL
MODEL 18
REMARK VINA RESULT:      -4.7     16.749     17.335
REMARK  1 active torsions:
REMARK  status: ('A' for Active; 'I' for Inactive)
REMARK    1  A    between atoms: C_1  and  C_2 
ROOT
HETATM    1  C   LIG     1       3.468  40.902  32.193  1.00  0.00    -0.023 A 
HETATM    2  C   LIG     1       3.062  39.830  31.380  1.00  0.00     0.031 A 
HETATM    3  C   LIG     1       2.647  40.073  30.069  1.00  0.00     0.117 A 
HETATM    4  N   LIG     1       2.636  41.340  29.580  1.00  0.00    -0.273 NA
HETATM    5  C   LIG     1       3.024  42.399  30.339  1.00  0.00     0.117 A 
HETATM    6  C   LIG     1       3.444  42.201  31.657  1.00  0.00     0.031 A 
ENDROOT
BRANCH   1   7
HETATM    7  C   LIG     1       3.913  40.668  33.591  1.00  0.00    -0.023 A 
HETATM    8  C   LIG     1       4.199  41.750  34.443  1.00  0.00     0.031 A 
HETATM    9  C   LIG     1       4.616  41.508  35.754  1.00  0.00     0.117 A 
HETATM   10  N   LIG     1       4.744  40.232  36.205  1.00  0.00    -0.273 NA
HETATM   11  C   LIG     1       4.477  39.166  35.407  1.00  0.00     0.117 A 
HETATM   12  C   LIG     1       4.057  39.362  34.090  1.00  0.00     0.031 A 
ENDBRANCH   1   7
TORSDOF 1
ENDMDL
MODEL 19
REMARK VINA RESULT:      -4.7      8.478     10.940
REMARK  1 active torsions:
REMARK  status: ('A' for Active; 'I' for Inactive)
REMARK    1  A    between atoms: C_1  and  C_2 
ROOT
HETATM    1  C   LIG     1      18.875  34.035  12.449  1.00  0.00    -0.023 A 
HETATM    2  C   LIG     1      18.544  34.594  11.202  1.00  0.00     0.031 A 
HETATM    3  C   LIG     1      19.559  35.018  10.341  1.00  0.00     0.117 A 
HETATM    4  N   LIG     1      20.861  34.890  10.706  1.00  0.00    -0.273 NA
HETATM    5  C   LIG     1      21.215  34.352  11.903  1.00  0.00     0.117 A 
HETATM    6  C   LIG     1      20.232  33.918  12.795  1.00  0.00     0.031 A 
ENDROOT
BRANCH   1   7
HETATM    7  C   LIG     1      17.813  33.579  13.381  1.00  0.00    -0.023 A 
HETATM    8  C   LIG     1      17.639  34.201  14.630  1.00  0.00     0.031 A 
HETATM    9  C   LIG     1      16.634  33.756  15.492  1.00  0.00     0.117 A 
HETATM   10  N   LIG     1      15.828  32.725  15.126  1.00  0.00    -0.273 NA
HETATM   11  C   LIG     1      15.971  32.102  13.927  1.00  0.00     0.117 A 
HETATM   12  C   LIG     1      16.961  32.515  13.035  1.00  0.00     0.031 A 
ENDBRANCH   1   7
TORSDOF 1
ENDMDL
MODEL 20
REMARK VINA RESULT:      -4.6     17.508     18.316
REMARK  1 active torsions:
REMARK  status: ('A' for Active; 'I' for Inactive)
REMARK    1  A    between atoms: C_1  and  C_2 
ROOT
HETATM    1  C   LIG     1       4.010  41.706  33.745  1.00  0.00    -0.023 A 
HETATM    2  C   LIG     1       4.427  41.857  35.078  1.00  0.00     0.031 A 
HETATM    3  C   LIG     1       4.551  40.732  35.898  1.00  0.00     0.117 A 
HETATM    4  N   LIG     1       4.269  39.497  35.408  1.00  0.00    -0.273 NA
HETATM    5  C   LIG     1       3.865  39.316  34.124  1.00  0.00     0.117 A 
HETATM    6  C   LIG     1       3.726  40.413  33.270  1.00  0.00     0.031 A 
ENDROOT
BRANCH   1   7
HETATM    7  C   LIG     1       3.870  42.887  32.855  1.00  0.00    -0.023 A 
HETATM    8  C   LIG     1       4.035  44.189  33.360  1.00  0.00     0.031 A 
HETATM    9  C   LIG     1       3.899  45.286  32.506  1.00  0.00     0.117 A 
HETATM   10  N   LIG     1       3.610  45.096  31.192  1.00  0.00    -0.273 NA
HETATM   11  C   LIG     1       3.444  43.851  30.673  1.00  0.00     0.117 A 
HETATM   12  C   LIG     1       3.571  42.727  31.491  1.00  0.00     0.031 A 
ENDBRANCH   1   7
TORSDOF 1
ENDMDL
