REMARK  1 active torsions:
REMARK  status: ('A' for Active; 'I' for Inactive)
REMARK    1  A    between atoms: C_7  and  C_11 
ROOT
HETATM    1 CL   LIG     1      -0.801  -1.222   2.416  1.00  0.00    -0.082 Cl
HETATM    2  C   LIG     1      -1.507  -0.574   0.932  1.00  0.00     0.068 A 
HETATM    3  C   LIG     1      -2.904  -0.590   0.753  1.00  0.00     0.080 A 
HETATM    4 CL   LIG     1      -3.946  -1.285   1.997  1.00  0.00    -0.081 Cl
HETATM    5  C   LIG     1      -3.470  -0.047  -0.416  1.00  0.00     0.079 A 
HETATM    6 CL   LIG     1      -5.220  -0.063  -0.647  1.00  0.00    -0.081 Cl
HETATM    7  C   LIG     1      -0.679  -0.014  -0.062  1.00  0.00     0.001 A 
HETATM    8  C   LIG     1      -1.255   0.523  -1.221  1.00  0.00     0.040 A 
HETATM    9  C   LIG     1      -2.639   0.510  -1.401  1.00  0.00     0.058 A 
HETATM   10 CL   LIG     1      -3.304   1.199  -2.877  1.00  0.00    -0.082 Cl
ENDROOT
BRANCH   7  11
HETATM   11  C   LIG     1       0.792   0.006   0.083  1.00  0.00    -0.002 A 
HETATM   12  C   LIG     1       1.507  -1.201   0.017  1.00  0.00     0.014 A 
HETATM   13  C   LIG     1       2.899  -1.205   0.137  1.00  0.00     0.001 A 
HETATM   14  C   LIG     1       3.589  -0.005   0.323  1.00  0.00     0.002 A 
HETATM   15  C   LIG     1       2.888   1.202   0.389  1.00  0.00     0.024 A 
HETATM   16  C   LIG     1       1.493   1.217   0.270  1.00  0.00     0.045 A 
HETATM   17 CL   LIG     1       0.652   2.759   0.391  1.00  0.00    -0.083 Cl
ENDBRANCH   7  11
TORSDOF 1
