MODEL 1
REMARK VINA RESULT:      -5.3      0.000      0.000
REMARK  1 active torsions:
REMARK  status: ('A' for Active; 'I' for Inactive)
REMARK    1  A    between atoms: C_7  and  C_11 
ROOT
HETATM    1 CL   LIG     1      13.256  30.394  16.938  1.00  0.00    -0.082 Cl
HETATM    2  C   LIG     1      14.387  31.110  15.786  1.00  0.00     0.068 A 
HETATM    3  C   LIG     1      15.141  32.242  16.153  1.00  0.00     0.080 A 
HETATM    4 CL   LIG     1      14.934  32.961  17.751  1.00  0.00    -0.081 Cl
HETATM    5  C   LIG     1      16.064  32.796  15.246  1.00  0.00     0.079 A 
HETATM    6 CL   LIG     1      17.014  34.214  15.699  1.00  0.00    -0.081 Cl
HETATM    7  C   LIG     1      14.559  30.537  14.510  1.00  0.00     0.001 A 
HETATM    8  C   LIG     1      15.481  31.098  13.617  1.00  0.00     0.040 A 
HETATM    9  C   LIG     1      16.231  32.219  13.977  1.00  0.00     0.058 A 
HETATM   10 CL   LIG     1      17.373  32.879  12.814  1.00  0.00    -0.082 Cl
ENDROOT
BRANCH   7  11
HETATM   11  C   LIG     1      13.773  29.359  14.083  1.00  0.00    -0.002 A 
HETATM   12  C   LIG     1      12.389  29.490  13.883  1.00  0.00     0.014 A 
HETATM   13  C   LIG     1      11.629  28.395  13.466  1.00  0.00     0.001 A 
HETATM   14  C   LIG     1      12.243  27.160  13.244  1.00  0.00     0.002 A 
HETATM   15  C   LIG     1      13.620  27.019  13.438  1.00  0.00     0.024 A 
HETATM   16  C   LIG     1      14.391  28.110  13.856  1.00  0.00     0.045 A 
HETATM   17 CL   LIG     1      16.116  27.874  14.117  1.00  0.00    -0.083 Cl
ENDBRANCH   7  11
TORSDOF 1
ENDMDL
MODEL 2
REMARK VINA RESULT:      -5.2     14.588     15.695
REMARK  1 active torsions:
REMARK  status: ('A' for Active; 'I' for Inactive)
REMARK    1  A    between atoms: C_7  and  C_11 
ROOT
HETATM    1 CL   LIG     1      22.490  19.479  22.988  1.00  0.00    -0.082 Cl
HETATM    2  C   LIG     1      23.472  20.783  23.664  1.00  0.00     0.068 A 
HETATM    3  C   LIG     1      23.552  20.951  25.060  1.00  0.00     0.080 A 
HETATM    4 CL   LIG     1      22.649  19.878  26.132  1.00  0.00    -0.081 Cl
HETATM    5  C   LIG     1      24.358  21.971  25.601  1.00  0.00     0.079 A 
HETATM    6 CL   LIG     1      24.465  22.187  27.349  1.00  0.00    -0.081 Cl
HETATM    7  C   LIG     1      24.199  21.638  22.811  1.00  0.00     0.001 A 
HETATM    8  C   LIG     1      24.997  22.650  23.362  1.00  0.00     0.040 A 
HETATM    9  C   LIG     1      25.080  22.818  24.745  1.00  0.00     0.058 A 
HETATM   10 CL   LIG     1      26.098  24.106  25.378  1.00  0.00    -0.082 Cl
ENDROOT
BRANCH   7  11
HETATM   11  C   LIG     1      24.126  21.503  21.341  1.00  0.00    -0.002 A 
HETATM   12  C   LIG     1      25.119  20.774  20.667  1.00  0.00     0.014 A 
HETATM   13  C   LIG     1      25.063  20.621  19.279  1.00  0.00     0.001 A 
HETATM   14  C   LIG     1      24.016  21.193  18.553  1.00  0.00     0.002 A 
HETATM   15  C   LIG     1      23.022  21.919  19.214  1.00  0.00     0.024 A 
HETATM   16  C   LIG     1      23.069  22.079  20.604  1.00  0.00     0.045 A 
HETATM   17 CL   LIG     1      21.810  23.029  21.387  1.00  0.00    -0.083 Cl
ENDBRANCH   7  11
TORSDOF 1
ENDMDL
MODEL 3
REMARK VINA RESULT:      -5.0     14.809     15.822
REMARK  1 active torsions:
REMARK  status: ('A' for Active; 'I' for Inactive)
REMARK    1  A    between atoms: C_7  and  C_11 
ROOT
HETATM    1 CL   LIG     1      22.388  19.555  23.386  1.00  0.00    -0.082 Cl
HETATM    2  C   LIG     1      23.379  20.867  24.033  1.00  0.00     0.068 A 
HETATM    3  C   LIG     1      23.582  20.975  25.422  1.00  0.00     0.080 A 
HETATM    4 CL   LIG     1      22.822  19.819  26.519  1.00  0.00    -0.081 Cl
HETATM    5  C   LIG     1      24.396  22.002  25.937  1.00  0.00     0.079 A 
HETATM    6 CL   LIG     1      24.655  22.144  27.677  1.00  0.00    -0.081 Cl
HETATM    7  C   LIG     1      23.992  21.790  23.161  1.00  0.00     0.001 A 
HETATM    8  C   LIG     1      24.799  22.807  23.686  1.00  0.00     0.040 A 
HETATM    9  C   LIG     1      25.004  22.917  25.062  1.00  0.00     0.058 A 
HETATM   10 CL   LIG     1      26.028  24.215  25.662  1.00  0.00    -0.082 Cl
ENDROOT
BRANCH   7  11
HETATM   11  C   LIG     1      23.789  21.718  21.698  1.00  0.00    -0.002 A 
HETATM   12  C   LIG     1      22.721  22.420  21.116  1.00  0.00     0.014 A 
HETATM   13  C   LIG     1      22.518  22.379  19.734  1.00  0.00     0.001 A 
HETATM   14  C   LIG     1      23.379  21.638  18.922  1.00  0.00     0.002 A 
HETATM   15  C   LIG     1      24.446  20.936  19.490  1.00  0.00     0.024 A 
HETATM   16  C   LIG     1      24.658  20.971  20.874  1.00  0.00     0.045 A 
HETATM   17 CL   LIG     1      25.996  20.045  21.546  1.00  0.00    -0.083 Cl
ENDBRANCH   7  11
TORSDOF 1
ENDMDL
MODEL 4
REMARK VINA RESULT:      -5.0      8.106     10.814
REMARK  1 active torsions:
REMARK  status: ('A' for Active; 'I' for Inactive)
REMARK    1  A    between atoms: C_7  and  C_11 
ROOT
HETATM    1 CL   LIG     1      15.996  38.410  22.318  1.00  0.00    -0.082 Cl
HETATM    2  C   LIG     1      16.743  37.275  23.446  1.00  0.00     0.068 A 
HETATM    3  C   LIG     1      17.219  37.731  24.691  1.00  0.00     0.080 A 
HETATM    4 CL   LIG     1      17.096  39.441  25.111  1.00  0.00    -0.081 Cl
HETATM    5  C   LIG     1      17.788  36.822  25.603  1.00  0.00     0.079 A 
HETATM    6 CL   LIG     1      18.385  37.386  27.165  1.00  0.00    -0.081 Cl
HETATM    7  C   LIG     1      16.840  35.907  23.117  1.00  0.00     0.001 A 
HETATM    8  C   LIG     1      17.409  35.013  24.033  1.00  0.00     0.040 A 
HETATM    9  C   LIG     1      17.879  35.462  25.268  1.00  0.00     0.058 A 
HETATM   10 CL   LIG     1      18.583  34.292  26.378  1.00  0.00    -0.082 Cl
ENDROOT
BRANCH   7  11
HETATM   11  C   LIG     1      16.367  35.394  21.814  1.00  0.00    -0.002 A 
HETATM   12  C   LIG     1      15.302  34.479  21.779  1.00  0.00     0.014 A 
HETATM   13  C   LIG     1      14.829  33.992  20.558  1.00  0.00     0.001 A 
HETATM   14  C   LIG     1      15.413  34.414  19.362  1.00  0.00     0.002 A 
HETATM   15  C   LIG     1      16.473  35.324  19.384  1.00  0.00     0.024 A 
HETATM   16  C   LIG     1      16.955  35.819  20.602  1.00  0.00     0.045 A 
HETATM   17 CL   LIG     1      18.312  36.940  20.581  1.00  0.00    -0.083 Cl
ENDBRANCH   7  11
TORSDOF 1
ENDMDL
MODEL 5
REMARK VINA RESULT:      -4.9     14.563     15.760
REMARK  1 active torsions:
REMARK  status: ('A' for Active; 'I' for Inactive)
REMARK    1  A    between atoms: C_7  and  C_11 
ROOT
HETATM    1 CL   LIG     1      25.988  23.333  22.102  1.00  0.00    -0.082 Cl
HETATM    2  C   LIG     1      25.016  22.387  23.233  1.00  0.00     0.068 A 
HETATM    3  C   LIG     1      25.148  22.596  24.620  1.00  0.00     0.080 A 
HETATM    4 CL   LIG     1      26.308  23.780  25.228  1.00  0.00    -0.081 Cl
HETATM    5  C   LIG     1      24.353  21.864  25.521  1.00  0.00     0.079 A 
HETATM    6 CL   LIG     1      24.513  22.121  27.260  1.00  0.00    -0.081 Cl
HETATM    7  C   LIG     1      24.085  21.443  22.752  1.00  0.00     0.001 A 
HETATM    8  C   LIG     1      23.299  20.721  23.660  1.00  0.00     0.040 A 
HETATM    9  C   LIG     1      23.427  20.927  25.035  1.00  0.00     0.058 A 
HETATM   10 CL   LIG     1      22.413  19.990  26.126  1.00  0.00    -0.082 Cl
ENDROOT
BRANCH   7  11
HETATM   11  C   LIG     1      23.929  21.185  21.305  1.00  0.00    -0.002 A 
HETATM   12  C   LIG     1      24.741  20.221  20.686  1.00  0.00     0.014 A 
HETATM   13  C   LIG     1      24.602  19.949  19.323  1.00  0.00     0.001 A 
HETATM   14  C   LIG     1      23.651  20.637  18.566  1.00  0.00     0.002 A 
HETATM   15  C   LIG     1      22.836  21.597  19.172  1.00  0.00     0.024 A 
HETATM   16  C   LIG     1      22.968  21.877  20.537  1.00  0.00     0.045 A 
HETATM   17 CL   LIG     1      21.940  23.118  21.248  1.00  0.00    -0.083 Cl
ENDBRANCH   7  11
TORSDOF 1
ENDMDL
MODEL 6
REMARK VINA RESULT:      -4.9     13.810     15.325
REMARK  1 active torsions:
REMARK  status: ('A' for Active; 'I' for Inactive)
REMARK    1  A    between atoms: C_7  and  C_11 
ROOT
HETATM    1 CL   LIG     1      27.635  24.348  21.909  1.00  0.00    -0.082 Cl
HETATM    2  C   LIG     1      26.409  23.605  20.877  1.00  0.00     0.068 A 
HETATM    3  C   LIG     1      25.450  22.739  21.436  1.00  0.00     0.080 A 
HETATM    4 CL   LIG     1      25.491  22.373  23.162  1.00  0.00    -0.081 Cl
HETATM    5  C   LIG     1      24.454  22.170  20.620  1.00  0.00     0.079 A 
HETATM    6 CL   LIG     1      23.248  21.085  21.314  1.00  0.00    -0.081 Cl
HETATM    7  C   LIG     1      26.370  23.899  19.498  1.00  0.00     0.001 A 
HETATM    8  C   LIG     1      25.374  23.326  18.697  1.00  0.00     0.040 A 
HETATM    9  C   LIG     1      24.420  22.468  19.248  1.00  0.00     0.058 A 
HETATM   10 CL   LIG     1      23.194  21.779  18.191  1.00  0.00    -0.082 Cl
ENDROOT
BRANCH   7  11
HETATM   11  C   LIG     1      27.370  24.790  18.872  1.00  0.00    -0.002 A 
HETATM   12  C   LIG     1      27.258  26.179  19.045  1.00  0.00     0.014 A 
HETATM   13  C   LIG     1      28.199  27.040  18.475  1.00  0.00     0.001 A 
HETATM   14  C   LIG     1      29.260  26.522  17.728  1.00  0.00     0.002 A 
HETATM   15  C   LIG     1      29.382  25.141  17.551  1.00  0.00     0.024 A 
HETATM   16  C   LIG     1      28.444  24.270  18.118  1.00  0.00     0.045 A 
HETATM   17 CL   LIG     1      28.622  22.540  17.840  1.00  0.00    -0.083 Cl
ENDBRANCH   7  11
TORSDOF 1
ENDMDL
MODEL 7
REMARK VINA RESULT:      -4.8     14.109     14.937
REMARK  1 active torsions:
REMARK  status: ('A' for Active; 'I' for Inactive)
REMARK    1  A    between atoms: C_7  and  C_11 
ROOT
HETATM    1 CL   LIG     1      27.314  21.754  21.839  1.00  0.00    -0.082 Cl
HETATM    2  C   LIG     1      27.476  23.299  20.997  1.00  0.00     0.068 A 
HETATM    3  C   LIG     1      28.726  23.946  20.949  1.00  0.00     0.080 A 
HETATM    4 CL   LIG     1      30.122  23.230  21.757  1.00  0.00    -0.081 Cl
HETATM    5  C   LIG     1      28.863  25.162  20.253  1.00  0.00     0.079 A 
HETATM    6 CL   LIG     1      30.426  25.979  20.189  1.00  0.00    -0.081 Cl
HETATM    7  C   LIG     1      26.364  23.872  20.346  1.00  0.00     0.001 A 
HETATM    8  C   LIG     1      26.514  25.083  19.657  1.00  0.00     0.040 A 
HETATM    9  C   LIG     1      27.751  25.726  19.607  1.00  0.00     0.058 A 
HETATM   10 CL   LIG     1      27.878  27.244  18.727  1.00  0.00    -0.082 Cl
ENDROOT
BRANCH   7  11
HETATM   11  C   LIG     1      25.033  23.231  20.388  1.00  0.00    -0.002 A 
HETATM   12  C   LIG     1      24.161  23.522  21.449  1.00  0.00     0.014 A 
HETATM   13  C   LIG     1      22.892  22.939  21.502  1.00  0.00     0.001 A 
HETATM   14  C   LIG     1      22.483  22.061  20.496  1.00  0.00     0.002 A 
HETATM   15  C   LIG     1      23.342  21.765  19.434  1.00  0.00     0.024 A 
HETATM   16  C   LIG     1      24.615  22.344  19.372  1.00  0.00     0.045 A 
HETATM   17 CL   LIG     1      25.673  21.915  18.031  1.00  0.00    -0.083 Cl
ENDBRANCH   7  11
TORSDOF 1
ENDMDL
MODEL 8
REMARK VINA RESULT:      -4.7     13.672     14.856
REMARK  1 active torsions:
REMARK  status: ('A' for Active; 'I' for Inactive)
REMARK    1  A    between atoms: C_7  and  C_11 
ROOT
HETATM    1 CL   LIG     1      26.436  20.623  18.757  1.00  0.00    -0.082 Cl
HETATM    2  C   LIG     1      26.799  22.351  18.760  1.00  0.00     0.068 A 
HETATM    3  C   LIG     1      27.803  22.860  17.913  1.00  0.00     0.080 A 
HETATM    4 CL   LIG     1      28.719  21.766  16.872  1.00  0.00    -0.081 Cl
HETATM    5  C   LIG     1      28.073  24.241  17.892  1.00  0.00     0.079 A 
HETATM    6 CL   LIG     1      29.329  24.886  16.832  1.00  0.00    -0.081 Cl
HETATM    7  C   LIG     1      26.068  23.229  19.586  1.00  0.00     0.001 A 
HETATM    8  C   LIG     1      26.346  24.602  19.555  1.00  0.00     0.040 A 
HETATM    9  C   LIG     1      27.340  25.109  18.716  1.00  0.00     0.058 A 
HETATM   10 CL   LIG     1      27.644  26.842  18.722  1.00  0.00    -0.082 Cl
ENDROOT
BRANCH   7  11
HETATM   11  C   LIG     1      25.018  22.730  20.499  1.00  0.00    -0.002 A 
HETATM   12  C   LIG     1      25.256  22.725  21.884  1.00  0.00     0.014 A 
HETATM   13  C   LIG     1      24.274  22.271  22.767  1.00  0.00     0.001 A 
HETATM   14  C   LIG     1      23.046  21.821  22.278  1.00  0.00     0.002 A 
HETATM   15  C   LIG     1      22.797  21.823  20.903  1.00  0.00     0.024 A 
HETATM   16  C   LIG     1      23.775  22.275  20.008  1.00  0.00     0.045 A 
HETATM   17 CL   LIG     1      23.427  22.230  18.283  1.00  0.00    -0.083 Cl
ENDBRANCH   7  11
TORSDOF 1
ENDMDL
MODEL 9
REMARK VINA RESULT:      -4.7     13.990     14.833
REMARK  1 active torsions:
REMARK  status: ('A' for Active; 'I' for Inactive)
REMARK    1  A    between atoms: C_7  and  C_11 
ROOT
HETATM    1 CL   LIG     1      26.642  21.408  21.931  1.00  0.00    -0.082 Cl
HETATM    2  C   LIG     1      26.951  22.950  21.126  1.00  0.00     0.068 A 
HETATM    3  C   LIG     1      27.977  23.794  21.593  1.00  0.00     0.080 A 
HETATM    4 CL   LIG     1      28.933  23.326  23.002  1.00  0.00    -0.081 Cl
HETATM    5  C   LIG     1      28.245  25.009  20.934  1.00  0.00     0.079 A 
HETATM    6 CL   LIG     1      29.529  26.071  21.514  1.00  0.00    -0.081 Cl
HETATM    7  C   LIG     1      26.193  23.326  19.998  1.00  0.00     0.001 A 
HETATM    8  C   LIG     1      26.469  24.538  19.351  1.00  0.00     0.040 A 
HETATM    9  C   LIG     1      27.486  25.376  19.811  1.00  0.00     0.058 A 
HETATM   10 CL   LIG     1      27.786  26.885  18.958  1.00  0.00    -0.082 Cl
ENDROOT
BRANCH   7  11
HETATM   11  C   LIG     1      25.098  22.474  19.488  1.00  0.00    -0.002 A 
HETATM   12  C   LIG     1      25.307  21.701  18.334  1.00  0.00     0.014 A 
HETATM   13  C   LIG     1      24.291  20.878  17.842  1.00  0.00     0.001 A 
HETATM   14  C   LIG     1      23.059  20.818  18.498  1.00  0.00     0.002 A 
HETATM   15  C   LIG     1      22.841  21.582  19.647  1.00  0.00     0.024 A 
HETATM   16  C   LIG     1      23.852  22.410  20.149  1.00  0.00     0.045 A 
HETATM   17 CL   LIG     1      23.519  23.377  21.582  1.00  0.00    -0.083 Cl
ENDBRANCH   7  11
TORSDOF 1
ENDMDL
MODEL 10
REMARK VINA RESULT:      -4.7     13.956     15.490
REMARK  1 active torsions:
REMARK  status: ('A' for Active; 'I' for Inactive)
REMARK    1  A    between atoms: C_7  and  C_11 
ROOT
HETATM    1 CL   LIG     1      24.926  22.305  17.937  1.00  0.00    -0.082 Cl
HETATM    2  C   LIG     1      24.815  22.335  19.700  1.00  0.00     0.068 A 
HETATM    3  C   LIG     1      23.875  21.518  20.359  1.00  0.00     0.080 A 
HETATM    4 CL   LIG     1      22.789  20.489  19.422  1.00  0.00    -0.081 Cl
HETATM    5  C   LIG     1      23.805  21.519  21.765  1.00  0.00     0.079 A 
HETATM    6 CL   LIG     1      22.630  20.498  22.597  1.00  0.00    -0.081 Cl
HETATM    7  C   LIG     1      25.683  23.152  20.452  1.00  0.00     0.001 A 
HETATM    8  C   LIG     1      25.603  23.143  21.851  1.00  0.00     0.040 A 
HETATM    9  C   LIG     1      24.674  22.334  22.507  1.00  0.00     0.058 A 
HETATM   10 CL   LIG     1      24.621  22.366  24.265  1.00  0.00    -0.082 Cl
ENDROOT
BRANCH   7  11
HETATM   11  C   LIG     1      26.671  24.034  19.796  1.00  0.00    -0.002 A 
HETATM   12  C   LIG     1      26.353  25.385  19.581  1.00  0.00     0.014 A 
HETATM   13  C   LIG     1      27.276  26.241  18.976  1.00  0.00     0.001 A 
HETATM   14  C   LIG     1      28.525  25.756  18.580  1.00  0.00     0.002 A 
HETATM   15  C   LIG     1      28.853  24.414  18.789  1.00  0.00     0.024 A 
HETATM   16  C   LIG     1      27.935  23.548  19.395  1.00  0.00     0.045 A 
HETATM   17 CL   LIG     1      28.382  21.859  19.609  1.00  0.00    -0.083 Cl
ENDBRANCH   7  11
TORSDOF 1
ENDMDL
MODEL 11
REMARK VINA RESULT:      -4.5     18.529     19.944
REMARK  1 active torsions:
REMARK  status: ('A' for Active; 'I' for Inactive)
REMARK    1  A    between atoms: C_7  and  C_11 
ROOT
HETATM    1 CL   LIG     1      30.094  26.204  27.527  1.00  0.00    -0.082 Cl
HETATM    2  C   LIG     1      28.636  25.433  26.894  1.00  0.00     0.068 A 
HETATM    3  C   LIG     1      28.583  25.031  25.545  1.00  0.00     0.080 A 
HETATM    4 CL   LIG     1      29.960  25.326  24.481  1.00  0.00    -0.081 Cl
HETATM    5  C   LIG     1      27.433  24.390  25.047  1.00  0.00     0.079 A 
HETATM    6 CL   LIG     1      27.359  23.883  23.357  1.00  0.00    -0.081 Cl
HETATM    7  C   LIG     1      27.536  25.191  27.742  1.00  0.00     0.001 A 
HETATM    8  C   LIG     1      26.397  24.552  27.233  1.00  0.00     0.040 A 
HETATM    9  C   LIG     1      26.342  24.152  25.897  1.00  0.00     0.058 A 
HETATM   10 CL   LIG     1      24.885  23.354  25.316  1.00  0.00    -0.082 Cl
ENDROOT
BRANCH   7  11
HETATM   11  C   LIG     1      27.549  25.613  29.159  1.00  0.00    -0.002 A 
HETATM   12  C   LIG     1      27.219  26.938  29.486  1.00  0.00     0.014 A 
HETATM   13  C   LIG     1      27.210  27.356  30.819  1.00  0.00     0.001 A 
HETATM   14  C   LIG     1      27.530  26.454  31.837  1.00  0.00     0.002 A 
HETATM   15  C   LIG     1      27.859  25.133  31.523  1.00  0.00     0.024 A 
HETATM   16  C   LIG     1      27.870  24.705  30.190  1.00  0.00     0.045 A 
HETATM   17 CL   LIG     1      28.322  23.039  29.843  1.00  0.00    -0.083 Cl
ENDBRANCH   7  11
TORSDOF 1
ENDMDL
MODEL 12
REMARK VINA RESULT:      -4.4     15.515     17.133
REMARK  1 active torsions:
REMARK  status: ('A' for Active; 'I' for Inactive)
REMARK    1  A    between atoms: C_7  and  C_11 
ROOT
HETATM    1 CL   LIG     1      27.079  20.352  24.092  1.00  0.00    -0.082 Cl
HETATM    2  C   LIG     1      25.695  21.027  23.226  1.00  0.00     0.068 A 
HETATM    3  C   LIG     1      25.040  20.259  22.244  1.00  0.00     0.080 A 
HETATM    4 CL   LIG     1      25.619  18.637  21.857  1.00  0.00    -0.081 Cl
HETATM    5  C   LIG     1      23.918  20.784  21.573  1.00  0.00     0.079 A 
HETATM    6 CL   LIG     1      23.091  19.828  20.342  1.00  0.00    -0.081 Cl
HETATM    7  C   LIG     1      25.226  22.320  23.535  1.00  0.00     0.001 A 
HETATM    8  C   LIG     1      24.109  22.830  22.860  1.00  0.00     0.040 A 
HETATM    9  C   LIG     1      23.456  22.072  21.887  1.00  0.00     0.058 A 
HETATM   10 CL   LIG     1      22.059  22.766  21.074  1.00  0.00    -0.082 Cl
ENDROOT
BRANCH   7  11
HETATM   11  C   LIG     1      25.898  23.161  24.548  1.00  0.00    -0.002 A 
HETATM   12  C   LIG     1      26.997  23.949  24.169  1.00  0.00     0.014 A 
HETATM   13  C   LIG     1      27.639  24.763  25.106  1.00  0.00     0.001 A 
HETATM   14  C   LIG     1      27.189  24.797  26.428  1.00  0.00     0.002 A 
HETATM   15  C   LIG     1      26.097  24.018  26.816  1.00  0.00     0.024 A 
HETATM   16  C   LIG     1      25.446  23.199  25.885  1.00  0.00     0.045 A 
HETATM   17 CL   LIG     1      24.094  22.211  26.428  1.00  0.00    -0.083 Cl
ENDBRANCH   7  11
TORSDOF 1
ENDMDL
MODEL 13
REMARK VINA RESULT:      -4.3     21.669     22.647
REMARK  1 active torsions:
REMARK  status: ('A' for Active; 'I' for Inactive)
REMARK    1  A    between atoms: C_7  and  C_11 
ROOT
HETATM    1 CL   LIG     1      18.850  19.234  34.651  1.00  0.00    -0.082 Cl
HETATM    2  C   LIG     1      20.346  20.142  34.893  1.00  0.00     0.068 A 
HETATM    3  C   LIG     1      20.901  20.251  36.183  1.00  0.00     0.080 A 
HETATM    4 CL   LIG     1      20.086  19.507  37.561  1.00  0.00    -0.081 Cl
HETATM    5  C   LIG     1      22.109  20.949  36.373  1.00  0.00     0.079 A 
HETATM    6 CL   LIG     1      22.810  21.089  37.987  1.00  0.00    -0.081 Cl
HETATM    7  C   LIG     1      21.003  20.733  33.795  1.00  0.00     0.001 A 
HETATM    8  C   LIG     1      22.204  21.425  33.997  1.00  0.00     0.040 A 
HETATM    9  C   LIG     1      22.758  21.534  35.274  1.00  0.00     0.058 A 
HETATM   10 CL   LIG     1      24.268  22.415  35.466  1.00  0.00    -0.082 Cl
ENDROOT
BRANCH   7  11
HETATM   11  C   LIG     1      20.443  20.654  32.429  1.00  0.00    -0.002 A 
HETATM   12  C   LIG     1      20.638  19.488  31.671  1.00  0.00     0.014 A 
HETATM   13  C   LIG     1      20.106  19.385  30.383  1.00  0.00     0.001 A 
HETATM   14  C   LIG     1      19.373  20.443  29.842  1.00  0.00     0.002 A 
HETATM   15  C   LIG     1      19.171  21.608  30.588  1.00  0.00     0.024 A 
HETATM   16  C   LIG     1      19.700  21.721  31.879  1.00  0.00     0.045 A 
HETATM   17 CL   LIG     1      19.445  23.220  32.767  1.00  0.00    -0.083 Cl
ENDBRANCH   7  11
TORSDOF 1
ENDMDL
MODEL 14
REMARK VINA RESULT:      -4.3     16.174     17.493
REMARK  1 active torsions:
REMARK  status: ('A' for Active; 'I' for Inactive)
REMARK    1  A    between atoms: C_7  and  C_11 
ROOT
HETATM    1 CL   LIG     1      28.600  23.921  23.839  1.00  0.00    -0.082 Cl
HETATM    2  C   LIG     1      26.981  23.423  23.336  1.00  0.00     0.068 A 
HETATM    3  C   LIG     1      26.689  23.262  21.968  1.00  0.00     0.080 A 
HETATM    4 CL   LIG     1      27.930  23.586  20.755  1.00  0.00    -0.081 Cl
HETATM    5  C   LIG     1      25.408  22.837  21.567  1.00  0.00     0.079 A 
HETATM    6 CL   LIG     1      25.034  22.632  19.854  1.00  0.00    -0.081 Cl
HETATM    7  C   LIG     1      25.988  23.159  24.302  1.00  0.00     0.001 A 
HETATM    8  C   LIG     1      24.717  22.737  23.889  1.00  0.00     0.040 A 
HETATM    9  C   LIG     1      24.424  22.575  22.534  1.00  0.00     0.058 A 
HETATM   10 CL   LIG     1      22.811  22.042  22.078  1.00  0.00    -0.082 Cl
ENDROOT
BRANCH   7  11
HETATM   11  C   LIG     1      26.253  23.333  25.746  1.00  0.00    -0.002 A 
HETATM   12  C   LIG     1      26.104  24.604  26.325  1.00  0.00     0.014 A 
HETATM   13  C   LIG     1      26.335  24.789  27.690  1.00  0.00     0.001 A 
HETATM   14  C   LIG     1      26.714  23.708  28.489  1.00  0.00     0.002 A 
HETATM   15  C   LIG     1      26.864  22.439  27.924  1.00  0.00     0.024 A 
HETATM   16  C   LIG     1      26.635  22.243  26.556  1.00  0.00     0.045 A 
HETATM   17 CL   LIG     1      26.867  20.632  25.885  1.00  0.00    -0.083 Cl
ENDBRANCH   7  11
TORSDOF 1
ENDMDL
MODEL 15
REMARK VINA RESULT:      -4.2     19.207     20.724
REMARK  1 active torsions:
REMARK  status: ('A' for Active; 'I' for Inactive)
REMARK    1  A    between atoms: C_7  and  C_11 
ROOT
HETATM    1 CL   LIG     1      25.963  24.850  26.532  1.00  0.00    -0.082 Cl
HETATM    2  C   LIG     1      26.390  23.785  27.875  1.00  0.00     0.068 A 
HETATM    3  C   LIG     1      25.848  22.486  27.942  1.00  0.00     0.080 A 
HETATM    4 CL   LIG     1      24.719  21.935  26.702  1.00  0.00    -0.081 Cl
HETATM    5  C   LIG     1      26.210  21.626  28.996  1.00  0.00     0.079 A 
HETATM    6 CL   LIG     1      25.536  19.997  29.086  1.00  0.00    -0.081 Cl
HETATM    7  C   LIG     1      27.294  24.219  28.865  1.00  0.00     0.001 A 
HETATM    8  C   LIG     1      27.647  23.353  29.908  1.00  0.00     0.040 A 
HETATM    9  C   LIG     1      27.113  22.065  29.977  1.00  0.00     0.058 A 
HETATM   10 CL   LIG     1      27.593  21.023  31.311  1.00  0.00    -0.082 Cl
ENDROOT
BRANCH   7  11
HETATM   11  C   LIG     1      27.871  25.580  28.837  1.00  0.00    -0.002 A 
HETATM   12  C   LIG     1      27.258  26.603  29.578  1.00  0.00     0.014 A 
HETATM   13  C   LIG     1      27.793  27.894  29.578  1.00  0.00     0.001 A 
HETATM   14  C   LIG     1      28.945  28.174  28.839  1.00  0.00     0.002 A 
HETATM   15  C   LIG     1      29.564  27.163  28.099  1.00  0.00     0.024 A 
HETATM   16  C   LIG     1      29.036  25.866  28.092  1.00  0.00     0.045 A 
HETATM   17 CL   LIG     1      29.833  24.635  27.119  1.00  0.00    -0.083 Cl
ENDBRANCH   7  11
TORSDOF 1
ENDMDL
MODEL 16
REMARK VINA RESULT:      -4.2     17.930     19.387
REMARK  1 active torsions:
REMARK  status: ('A' for Active; 'I' for Inactive)
REMARK    1  A    between atoms: C_7  and  C_11 
ROOT
HETATM    1 CL   LIG     1      28.208  24.781  25.858  1.00  0.00    -0.082 Cl
HETATM    2  C   LIG     1      26.729  23.842  26.078  1.00  0.00     0.068 A 
HETATM    3  C   LIG     1      26.109  23.236  24.968  1.00  0.00     0.080 A 
HETATM    4 CL   LIG     1      26.792  23.442  23.354  1.00  0.00    -0.081 Cl
HETATM    5  C   LIG     1      24.946  22.463  25.147  1.00  0.00     0.079 A 
HETATM    6 CL   LIG     1      24.164  21.701  23.760  1.00  0.00    -0.081 Cl
HETATM    7  C   LIG     1      26.182  23.672  27.367  1.00  0.00     0.001 A 
HETATM    8  C   LIG     1      25.024  22.899  27.530  1.00  0.00     0.040 A 
HETATM    9  C   LIG     1      24.408  22.297  26.433  1.00  0.00     0.058 A 
HETATM   10 CL   LIG     1      22.957  21.339  26.701  1.00  0.00    -0.082 Cl
ENDROOT
BRANCH   7  11
HETATM   11  C   LIG     1      26.795  24.305  28.553  1.00  0.00    -0.002 A 
HETATM   12  C   LIG     1      26.632  25.685  28.759  1.00  0.00     0.014 A 
HETATM   13  C   LIG     1      27.190  26.303  29.881  1.00  0.00     0.001 A 
HETATM   14  C   LIG     1      27.915  25.549  30.807  1.00  0.00     0.002 A 
HETATM   15  C   LIG     1      28.083  24.175  30.613  1.00  0.00     0.024 A 
HETATM   16  C   LIG     1      27.527  23.547  29.492  1.00  0.00     0.045 A 
HETATM   17 CL   LIG     1      27.792  21.820  29.275  1.00  0.00    -0.083 Cl
ENDBRANCH   7  11
TORSDOF 1
ENDMDL
MODEL 17
REMARK VINA RESULT:      -4.2     13.647     14.608
REMARK  1 active torsions:
REMARK  status: ('A' for Active; 'I' for Inactive)
REMARK    1  A    between atoms: C_7  and  C_11 
ROOT
HETATM    1 CL   LIG     1      24.195  20.060  21.334  1.00  0.00    -0.082 Cl
HETATM    2  C   LIG     1      24.937  21.334  20.361  1.00  0.00     0.068 A 
HETATM    3  C   LIG     1      25.642  22.378  20.991  1.00  0.00     0.080 A 
HETATM    4 CL   LIG     1      25.756  22.431  22.751  1.00  0.00    -0.081 Cl
HETATM    5  C   LIG     1      26.260  23.378  20.215  1.00  0.00     0.079 A 
HETATM    6 CL   LIG     1      27.145  24.690  20.998  1.00  0.00    -0.081 Cl
HETATM    7  C   LIG     1      24.852  21.293  18.955  1.00  0.00     0.001 A 
HETATM    8  C   LIG     1      25.471  22.295  18.195  1.00  0.00     0.040 A 
HETATM    9  C   LIG     1      26.172  23.330  18.815  1.00  0.00     0.058 A 
HETATM   10 CL   LIG     1      26.928  24.559  17.808  1.00  0.00    -0.082 Cl
ENDROOT
BRANCH   7  11
HETATM   11  C   LIG     1      24.108  20.222  18.259  1.00  0.00    -0.002 A 
HETATM   12  C   LIG     1      22.746  20.406  17.970  1.00  0.00     0.014 A 
HETATM   13  C   LIG     1      22.025  19.414  17.300  1.00  0.00     0.001 A 
HETATM   14  C   LIG     1      22.658  18.230  16.913  1.00  0.00     0.002 A 
HETATM   15  C   LIG     1      24.013  18.037  17.195  1.00  0.00     0.024 A 
HETATM   16  C   LIG     1      24.744  19.025  17.865  1.00  0.00     0.045 A 
HETATM   17 CL   LIG     1      26.440  18.722  18.225  1.00  0.00    -0.083 Cl
ENDBRANCH   7  11
TORSDOF 1
ENDMDL
MODEL 18
REMARK VINA RESULT:      -4.1     19.765     20.920
REMARK  1 active torsions:
REMARK  status: ('A' for Active; 'I' for Inactive)
REMARK    1  A    between atoms: C_7  and  C_11 
ROOT
HETATM    1 CL   LIG     1      28.760  22.490  29.458  1.00  0.00    -0.082 Cl
HETATM    2  C   LIG     1      28.126  23.922  30.275  1.00  0.00     0.068 A 
HETATM    3  C   LIG     1      28.243  24.043  31.674  1.00  0.00     0.080 A 
HETATM    4 CL   LIG     1      28.995  22.751  32.612  1.00  0.00    -0.081 Cl
HETATM    5  C   LIG     1      27.765  25.198  32.323  1.00  0.00     0.079 A 
HETATM    6 CL   LIG     1      27.909  25.357  34.075  1.00  0.00    -0.081 Cl
HETATM    7  C   LIG     1      27.529  24.958  29.529  1.00  0.00     0.001 A 
HETATM    8  C   LIG     1      27.056  26.102  30.187  1.00  0.00     0.040 A 
HETATM    9  C   LIG     1      27.172  26.226  31.573  1.00  0.00     0.058 A 
HETATM   10 CL   LIG     1      26.561  27.685  32.343  1.00  0.00    -0.082 Cl
ENDROOT
BRANCH   7  11
HETATM   11  C   LIG     1      27.373  24.860  28.062  1.00  0.00    -0.002 A 
HETATM   12  C   LIG     1      26.183  24.338  27.530  1.00  0.00     0.014 A 
HETATM   13  C   LIG     1      26.008  24.248  26.146  1.00  0.00     0.001 A 
HETATM   14  C   LIG     1      27.018  24.680  25.284  1.00  0.00     0.002 A 
HETATM   15  C   LIG     1      28.206  25.202  25.803  1.00  0.00     0.024 A 
HETATM   16  C   LIG     1      28.391  25.296  27.187  1.00  0.00     0.045 A 
HETATM   17 CL   LIG     1      29.917  25.932  27.793  1.00  0.00    -0.083 Cl
ENDBRANCH   7  11
TORSDOF 1
ENDMDL
MODEL 19
REMARK VINA RESULT:      -4.0     18.130     19.024
REMARK  1 active torsions:
REMARK  status: ('A' for Active; 'I' for Inactive)
REMARK    1  A    between atoms: C_7  and  C_11 
ROOT
HETATM    1 CL   LIG     1      27.158  20.912  27.475  1.00  0.00    -0.082 Cl
HETATM    2  C   LIG     1      27.104  22.592  28.019  1.00  0.00     0.068 A 
HETATM    3  C   LIG     1      27.510  22.920  29.328  1.00  0.00     0.080 A 
HETATM    4 CL   LIG     1      28.042  21.649  30.432  1.00  0.00    -0.081 Cl
HETATM    5  C   LIG     1      27.496  24.261  29.754  1.00  0.00     0.079 A 
HETATM    6 CL   LIG     1      28.003  24.680  31.392  1.00  0.00    -0.081 Cl
HETATM    7  C   LIG     1      26.685  23.610  27.139  1.00  0.00     0.001 A 
HETATM    8  C   LIG     1      26.675  24.942  27.576  1.00  0.00     0.040 A 
HETATM    9  C   LIG     1      27.077  25.270  28.871  1.00  0.00     0.058 A 
HETATM   10 CL   LIG     1      27.044  26.959  29.362  1.00  0.00    -0.082 Cl
ENDROOT
BRANCH   7  11
HETATM   11  C   LIG     1      26.237  23.303  25.765  1.00  0.00    -0.002 A 
HETATM   12  C   LIG     1      27.085  23.592  24.683  1.00  0.00     0.014 A 
HETATM   13  C   LIG     1      26.689  23.297  23.376  1.00  0.00     0.001 A 
HETATM   14  C   LIG     1      25.443  22.711  23.138  1.00  0.00     0.002 A 
HETATM   15  C   LIG     1      24.592  22.419  24.206  1.00  0.00     0.024 A 
HETATM   16  C   LIG     1      24.979  22.710  25.520  1.00  0.00     0.045 A 
HETATM   17 CL   LIG     1      23.859  22.351  26.829  1.00  0.00    -0.083 Cl
ENDBRANCH   7  11
TORSDOF 1
ENDMDL
MODEL 20
REMARK VINA RESULT:      -3.9     15.267     16.460
REMARK  1 active torsions:
REMARK  status: ('A' for Active; 'I' for Inactive)
REMARK    1  A    between atoms: C_7  and  C_11 
ROOT
HETATM    1 CL   LIG     1      27.992  23.602  23.088  1.00  0.00    -0.082 Cl
HETATM    2  C   LIG     1      26.553  23.186  22.152  1.00  0.00     0.068 A 
HETATM    3  C   LIG     1      26.504  23.472  20.774  1.00  0.00     0.080 A 
HETATM    4 CL   LIG     1      27.866  24.274  19.989  1.00  0.00    -0.081 Cl
HETATM    5  C   LIG     1      25.369  23.114  20.021  1.00  0.00     0.079 A 
HETATM    6 CL   LIG     1      25.301  23.469  18.293  1.00  0.00    -0.081 Cl
HETATM    7  C   LIG     1      25.464  22.541  22.774  1.00  0.00     0.001 A 
HETATM    8  C   LIG     1      24.341  22.190  22.013  1.00  0.00     0.040 A 
HETATM    9  C   LIG     1      24.290  22.471  20.646  1.00  0.00     0.058 A 
HETATM   10 CL   LIG     1      22.853  22.006  19.744  1.00  0.00    -0.082 Cl
ENDROOT
BRANCH   7  11
HETATM   11  C   LIG     1      25.473  22.239  24.221  1.00  0.00    -0.002 A 
HETATM   12  C   LIG     1      24.971  23.188  25.125  1.00  0.00     0.014 A 
HETATM   13  C   LIG     1      24.956  22.919  26.496  1.00  0.00     0.001 A 
HETATM   14  C   LIG     1      25.440  21.700  26.975  1.00  0.00     0.002 A 
HETATM   15  C   LIG     1      25.941  20.747  26.084  1.00  0.00     0.024 A 
HETATM   16  C   LIG     1      25.961  21.007  24.709  1.00  0.00     0.045 A 
HETATM   17 CL   LIG     1      26.630  19.788  23.629  1.00  0.00    -0.083 Cl
ENDBRANCH   7  11
TORSDOF 1
ENDMDL
