MODEL 1
REMARK VINA RESULT:      -4.2      0.000      0.000
REMARK  2 active torsions:
REMARK  status: ('A' for Active; 'I' for Inactive)
REMARK    1  A    between atoms: C_2  and  C_5 
REMARK    2  A    between atoms: C_2  and  O_3 
ROOT
HETATM    1  O   LIG     1      17.147  38.535  25.455  1.00  0.00    -0.265 OA
HETATM    2  C   LIG     1      17.539  37.349  25.276  1.00  0.00     0.258 C 
ENDROOT
BRANCH   2   3
HETATM    3  C   LIG     1      18.342  36.663  26.335  1.00  0.00     0.106 C 
HETATM    4  C   LIG     1      18.150  35.153  26.259  1.00  0.00     0.015 C 
ENDBRANCH   2   3
BRANCH   2   5
HETATM    5  O   LIG     1      17.193  36.651  24.115  1.00  0.00    -0.327 OA
HETATM    6  C   LIG     1      16.478  37.254  23.044  1.00  0.00     0.213 C 
ENDBRANCH   2   5
TORSDOF 2
ENDMDL
MODEL 2
REMARK VINA RESULT:      -3.7      1.806      3.717
REMARK  2 active torsions:
REMARK  status: ('A' for Active; 'I' for Inactive)
REMARK    1  A    between atoms: C_2  and  C_5 
REMARK    2  A    between atoms: C_2  and  O_3 
ROOT
HETATM    1  O   LIG     1      15.271  37.998  23.061  1.00  0.00    -0.265 OA
HETATM    2  C   LIG     1      16.505  38.184  23.247  1.00  0.00     0.258 C 
ENDROOT
BRANCH   2   3
HETATM    3  C   LIG     1      17.470  37.943  22.130  1.00  0.00     0.106 C 
HETATM    4  C   LIG     1      18.280  39.201  21.841  1.00  0.00     0.015 C 
ENDBRANCH   2   3
BRANCH   2   5
HETATM    5  O   LIG     1      16.979  38.656  24.475  1.00  0.00    -0.327 OA
HETATM    6  C   LIG     1      17.394  37.786  25.520  1.00  0.00     0.213 C 
ENDBRANCH   2   5
TORSDOF 2
ENDMDL
MODEL 3
REMARK VINA RESULT:      -3.6      1.681      3.151
REMARK  2 active torsions:
REMARK  status: ('A' for Active; 'I' for Inactive)
REMARK    1  A    between atoms: C_2  and  C_5 
REMARK    2  A    between atoms: C_2  and  O_3 
ROOT
HETATM    1  O   LIG     1      15.410  38.074  23.143  1.00  0.00    -0.265 OA
HETATM    2  C   LIG     1      16.596  37.643  23.104  1.00  0.00     0.258 C 
ENDROOT
BRANCH   2   3
HETATM    3  C   LIG     1      17.010  36.702  22.018  1.00  0.00     0.106 C 
HETATM    4  C   LIG     1      16.896  35.257  22.489  1.00  0.00     0.015 C 
ENDBRANCH   2   3
BRANCH   2   5
HETATM    5  O   LIG     1      17.541  38.070  24.042  1.00  0.00    -0.327 OA
HETATM    6  C   LIG     1      17.370  37.881  25.441  1.00  0.00     0.213 C 
ENDBRANCH   2   5
TORSDOF 2
ENDMDL
MODEL 4
REMARK VINA RESULT:      -3.6      0.964      3.110
REMARK  2 active torsions:
REMARK  status: ('A' for Active; 'I' for Inactive)
REMARK    1  A    between atoms: C_2  and  C_5 
REMARK    2  A    between atoms: C_2  and  O_3 
ROOT
HETATM    1  O   LIG     1      16.793  38.498  25.294  1.00  0.00    -0.265 OA
HETATM    2  C   LIG     1      16.982  37.443  24.627  1.00  0.00     0.258 C 
ENDROOT
BRANCH   2   3
HETATM    3  C   LIG     1      16.705  37.433  23.158  1.00  0.00     0.106 C 
HETATM    4  C   LIG     1      17.396  38.607  22.474  1.00  0.00     0.015 C 
ENDBRANCH   2   3
BRANCH   2   5
HETATM    5  O   LIG     1      17.489  36.293  25.239  1.00  0.00    -0.327 OA
HETATM    6  C   LIG     1      18.286  36.341  26.416  1.00  0.00     0.213 C 
ENDBRANCH   2   5
TORSDOF 2
ENDMDL
MODEL 5
REMARK VINA RESULT:      -3.6      4.407      5.618
REMARK  2 active torsions:
REMARK  status: ('A' for Active; 'I' for Inactive)
REMARK    1  A    between atoms: C_2  and  C_5 
REMARK    2  A    between atoms: C_2  and  O_3 
ROOT
HETATM    1  O   LIG     1      14.588  34.108  21.612  1.00  0.00    -0.265 OA
HETATM    2  C   LIG     1      15.593  34.258  20.864  1.00  0.00     0.258 C 
ENDROOT
BRANCH   2   3
HETATM    3  C   LIG     1      16.646  35.257  21.225  1.00  0.00     0.106 C 
HETATM    4  C   LIG     1      16.944  35.205  22.719  1.00  0.00     0.015 C 
ENDBRANCH   2   3
BRANCH   2   5
HETATM    5  O   LIG     1      15.757  33.469  19.722  1.00  0.00    -0.327 OA
HETATM    6  C   LIG     1      15.329  32.114  19.660  1.00  0.00     0.213 C 
ENDBRANCH   2   5
TORSDOF 2
ENDMDL
MODEL 6
REMARK VINA RESULT:      -3.6      2.028      2.485
REMARK  2 active torsions:
REMARK  status: ('A' for Active; 'I' for Inactive)
REMARK    1  A    between atoms: C_2  and  C_5 
REMARK    2  A    between atoms: C_2  and  O_3 
ROOT
HETATM    1  O   LIG     1      15.688  37.986  23.956  1.00  0.00    -0.265 OA
HETATM    2  C   LIG     1      16.874  37.562  23.891  1.00  0.00     0.258 C 
ENDROOT
BRANCH   2   3
HETATM    3  C   LIG     1      17.157  36.110  24.114  1.00  0.00     0.106 C 
HETATM    4  C   LIG     1      16.961  35.321  22.825  1.00  0.00     0.015 C 
ENDBRANCH   2   3
BRANCH   2   5
HETATM    5  O   LIG     1      17.925  38.425  23.568  1.00  0.00    -0.327 OA
HETATM    6  C   LIG     1      18.183  38.853  22.236  1.00  0.00     0.213 C 
ENDBRANCH   2   5
TORSDOF 2
ENDMDL
MODEL 7
REMARK VINA RESULT:      -3.5      4.015      5.294
REMARK  2 active torsions:
REMARK  status: ('A' for Active; 'I' for Inactive)
REMARK    1  A    between atoms: C_2  and  C_5 
REMARK    2  A    between atoms: C_2  and  O_3 
ROOT
HETATM    1  O   LIG     1      19.642  39.538  19.936  1.00  0.00    -0.265 OA
HETATM    2  C   LIG     1      18.840  38.959  20.720  1.00  0.00     0.258 C 
ENDROOT
BRANCH   2   3
HETATM    3  C   LIG     1      18.390  37.564  20.424  1.00  0.00     0.106 C 
HETATM    4  C   LIG     1      19.367  36.874  19.479  1.00  0.00     0.015 C 
ENDBRANCH   2   3
BRANCH   2   5
HETATM    5  O   LIG     1      18.401  39.590  21.887  1.00  0.00    -0.327 OA
HETATM    6  C   LIG     1      17.358  39.061  22.697  1.00  0.00     0.213 C 
ENDBRANCH   2   5
TORSDOF 2
ENDMDL
MODEL 8
REMARK VINA RESULT:      -3.4      3.861      5.489
REMARK  2 active torsions:
REMARK  status: ('A' for Active; 'I' for Inactive)
REMARK    1  A    between atoms: C_2  and  C_5 
REMARK    2  A    between atoms: C_2  and  O_3 
ROOT
HETATM    1  O   LIG     1      18.606  36.643  18.986  1.00  0.00    -0.265 OA
HETATM    2  C   LIG     1      18.341  37.038  20.155  1.00  0.00     0.258 C 
ENDROOT
BRANCH   2   3
HETATM    3  C   LIG     1      18.769  38.402  20.593  1.00  0.00     0.106 C 
HETATM    4  C   LIG     1      19.982  38.865  19.795  1.00  0.00     0.015 C 
ENDBRANCH   2   3
BRANCH   2   5
HETATM    5  O   LIG     1      17.612  36.231  21.033  1.00  0.00    -0.327 OA
HETATM    6  C   LIG     1      16.819  36.767  22.085  1.00  0.00     0.213 C 
ENDBRANCH   2   5
TORSDOF 2
ENDMDL
MODEL 9
REMARK VINA RESULT:      -3.4      1.899      2.106
REMARK  2 active torsions:
REMARK  status: ('A' for Active; 'I' for Inactive)
REMARK    1  A    between atoms: C_2  and  C_5 
REMARK    2  A    between atoms: C_2  and  O_3 
ROOT
HETATM    1  O   LIG     1      15.931  38.481  23.493  1.00  0.00    -0.265 OA
HETATM    2  C   LIG     1      17.100  38.286  23.925  1.00  0.00     0.258 C 
ENDROOT
BRANCH   2   3
HETATM    3  C   LIG     1      17.301  37.646  25.262  1.00  0.00     0.106 C 
HETATM    4  C   LIG     1      17.491  36.141  25.113  1.00  0.00     0.015 C 
ENDBRANCH   2   3
BRANCH   2   5
HETATM    5  O   LIG     1      18.213  38.622  23.150  1.00  0.00    -0.327 OA
HETATM    6  C   LIG     1      18.169  38.670  21.729  1.00  0.00     0.213 C 
ENDBRANCH   2   5
TORSDOF 2
ENDMDL
MODEL 10
REMARK VINA RESULT:      -3.3      7.309      8.594
REMARK  2 active torsions:
REMARK  status: ('A' for Active; 'I' for Inactive)
REMARK    1  A    between atoms: C_2  and  C_5 
REMARK    2  A    between atoms: C_2  and  O_3 
ROOT
HETATM    1  O   LIG     1      13.970  31.210  18.084  1.00  0.00    -0.265 OA
HETATM    2  C   LIG     1      14.844  32.017  18.504  1.00  0.00     0.258 C 
ENDROOT
BRANCH   2   3
HETATM    3  C   LIG     1      15.074  32.165  19.975  1.00  0.00     0.106 C 
HETATM    4  C   LIG     1      15.581  33.565  20.299  1.00  0.00     0.015 C 
ENDBRANCH   2   3
BRANCH   2   5
HETATM    5  O   LIG     1      15.632  32.746  17.608  1.00  0.00    -0.327 OA
HETATM    6  C   LIG     1      15.333  32.832  16.221  1.00  0.00     0.213 C 
ENDBRANCH   2   5
TORSDOF 2
ENDMDL
MODEL 11
REMARK VINA RESULT:      -3.2      2.345      3.356
REMARK  2 active torsions:
REMARK  status: ('A' for Active; 'I' for Inactive)
REMARK    1  A    between atoms: C_2  and  C_5 
REMARK    2  A    between atoms: C_2  and  O_3 
ROOT
HETATM    1  O   LIG     1      18.209  38.239  24.454  1.00  0.00    -0.265 OA
HETATM    2  C   LIG     1      17.374  37.905  23.568  1.00  0.00     0.258 C 
ENDROOT
BRANCH   2   3
HETATM    3  C   LIG     1      17.063  38.847  22.448  1.00  0.00     0.106 C 
HETATM    4  C   LIG     1      18.321  39.163  21.648  1.00  0.00     0.015 C 
ENDBRANCH   2   3
BRANCH   2   5
HETATM    5  O   LIG     1      16.768  36.646  23.596  1.00  0.00    -0.327 OA
HETATM    6  C   LIG     1      16.866  35.725  22.517  1.00  0.00     0.213 C 
ENDBRANCH   2   5
TORSDOF 2
ENDMDL
MODEL 12
REMARK VINA RESULT:      -3.2      9.699     11.343
REMARK  2 active torsions:
REMARK  status: ('A' for Active; 'I' for Inactive)
REMARK    1  A    between atoms: C_2  and  C_5 
REMARK    2  A    between atoms: C_2  and  O_3 
ROOT
HETATM    1  O   LIG     1      17.169  31.874  14.956  1.00  0.00    -0.265 OA
HETATM    2  C   LIG     1      15.982  32.194  15.242  1.00  0.00     0.258 C 
ENDROOT
BRANCH   2   3
HETATM    3  C   LIG     1      14.898  31.166  15.173  1.00  0.00     0.106 C 
HETATM    4  C   LIG     1      15.067  30.291  13.936  1.00  0.00     0.015 C 
ENDBRANCH   2   3
BRANCH   2   5
HETATM    5  O   LIG     1      15.674  33.490  15.666  1.00  0.00    -0.327 OA
HETATM    6  C   LIG     1      14.996  33.754  16.888  1.00  0.00     0.213 C 
ENDBRANCH   2   5
TORSDOF 2
ENDMDL
MODEL 13
REMARK VINA RESULT:      -3.2      8.852     10.480
REMARK  2 active torsions:
REMARK  status: ('A' for Active; 'I' for Inactive)
REMARK    1  A    between atoms: C_2  and  C_5 
REMARK    2  A    between atoms: C_2  and  O_3 
ROOT
HETATM    1  O   LIG     1      14.887  33.151  16.739  1.00  0.00    -0.265 OA
HETATM    2  C   LIG     1      14.434  31.985  16.902  1.00  0.00     0.258 C 
ENDROOT
BRANCH   2   3
HETATM    3  C   LIG     1      14.371  31.043  15.742  1.00  0.00     0.106 C 
HETATM    4  C   LIG     1      12.970  30.461  15.599  1.00  0.00     0.015 C 
ENDBRANCH   2   3
BRANCH   2   5
HETATM    5  O   LIG     1      14.028  31.547  18.166  1.00  0.00    -0.327 OA
HETATM    6  C   LIG     1      14.813  31.750  19.334  1.00  0.00     0.213 C 
ENDBRANCH   2   5
TORSDOF 2
ENDMDL
MODEL 14
REMARK VINA RESULT:      -3.2      3.469      4.540
REMARK  2 active torsions:
REMARK  status: ('A' for Active; 'I' for Inactive)
REMARK    1  A    between atoms: C_2  and  C_5 
REMARK    2  A    between atoms: C_2  and  O_3 
ROOT
HETATM    1  O   LIG     1      18.028  36.295  19.961  1.00  0.00    -0.265 OA
HETATM    2  C   LIG     1      17.595  36.901  20.981  1.00  0.00     0.258 C 
ENDROOT
BRANCH   2   3
HETATM    3  C   LIG     1      18.090  38.277  21.293  1.00  0.00     0.106 C 
HETATM    4  C   LIG     1      17.205  38.939  22.342  1.00  0.00     0.015 C 
ENDBRANCH   2   3
BRANCH   2   5
HETATM    5  O   LIG     1      16.624  36.317  21.799  1.00  0.00    -0.327 OA
HETATM    6  C   LIG     1      16.898  35.194  22.629  1.00  0.00     0.213 C 
ENDBRANCH   2   5
TORSDOF 2
ENDMDL
MODEL 15
REMARK VINA RESULT:      -3.2     10.132     11.755
REMARK  2 active torsions:
REMARK  status: ('A' for Active; 'I' for Inactive)
REMARK    1  A    between atoms: C_2  and  C_5 
REMARK    2  A    between atoms: C_2  and  O_3 
ROOT
HETATM    1  O   LIG     1      12.545  30.857  16.753  1.00  0.00    -0.265 OA
HETATM    2  C   LIG     1      13.587  30.856  16.042  1.00  0.00     0.258 C 
ENDROOT
BRANCH   2   3
HETATM    3  C   LIG     1      13.666  29.970  14.839  1.00  0.00     0.106 C 
HETATM    4  C   LIG     1      14.922  30.274  14.031  1.00  0.00     0.015 C 
ENDBRANCH   2   3
BRANCH   2   5
HETATM    5  O   LIG     1      14.656  31.706  16.341  1.00  0.00    -0.327 OA
HETATM    6  C   LIG     1      14.693  32.504  17.517  1.00  0.00     0.213 C 
ENDBRANCH   2   5
TORSDOF 2
ENDMDL
MODEL 16
REMARK VINA RESULT:      -3.2      4.507      5.410
REMARK  2 active torsions:
REMARK  status: ('A' for Active; 'I' for Inactive)
REMARK    1  A    between atoms: C_2  and  C_5 
REMARK    2  A    between atoms: C_2  and  O_3 
ROOT
HETATM    1  O   LIG     1      14.813  35.597  21.160  1.00  0.00    -0.265 OA
HETATM    2  C   LIG     1      15.905  35.055  20.834  1.00  0.00     0.258 C 
ENDROOT
BRANCH   2   3
HETATM    3  C   LIG     1      17.175  35.486  21.496  1.00  0.00     0.106 C 
HETATM    4  C   LIG     1      17.787  36.672  20.762  1.00  0.00     0.015 C 
ENDBRANCH   2   3
BRANCH   2   5
HETATM    5  O   LIG     1      15.938  34.025  19.889  1.00  0.00    -0.327 OA
HETATM    6  C   LIG     1      15.211  32.813  20.053  1.00  0.00     0.213 C 
ENDBRANCH   2   5
TORSDOF 2
ENDMDL
MODEL 17
REMARK VINA RESULT:      -3.1     11.589     12.208
REMARK  2 active torsions:
REMARK  status: ('A' for Active; 'I' for Inactive)
REMARK    1  A    between atoms: C_2  and  C_5 
REMARK    2  A    between atoms: C_2  and  O_3 
ROOT
HETATM    1  O   LIG     1      15.899  30.733  13.317  1.00  0.00    -0.265 OA
HETATM    2  C   LIG     1      15.817  31.726  14.091  1.00  0.00     0.258 C 
ENDROOT
BRANCH   2   3
HETATM    3  C   LIG     1      15.131  31.585  15.412  1.00  0.00     0.106 C 
HETATM    4  C   LIG     1      14.033  30.531  15.336  1.00  0.00     0.015 C 
ENDBRANCH   2   3
BRANCH   2   5
HETATM    5  O   LIG     1      16.398  32.950  13.746  1.00  0.00    -0.327 OA
HETATM    6  C   LIG     1      17.538  33.472  14.417  1.00  0.00     0.213 C 
ENDBRANCH   2   5
TORSDOF 2
ENDMDL
MODEL 18
REMARK VINA RESULT:      -3.1     11.087     11.886
REMARK  2 active torsions:
REMARK  status: ('A' for Active; 'I' for Inactive)
REMARK    1  A    between atoms: C_2  and  C_5 
REMARK    2  A    between atoms: C_2  and  O_3 
ROOT
HETATM    1  O   LIG     1      16.116  32.790  13.414  1.00  0.00    -0.265 OA
HETATM    2  C   LIG     1      16.098  32.085  14.461  1.00  0.00     0.258 C 
ENDROOT
BRANCH   2   3
HETATM    3  C   LIG     1      15.934  32.741  15.795  1.00  0.00     0.106 C 
HETATM    4  C   LIG     1      14.713  32.184  16.518  1.00  0.00     0.015 C 
ENDBRANCH   2   3
BRANCH   2   5
HETATM    5  O   LIG     1      16.187  30.692  14.385  1.00  0.00    -0.327 OA
HETATM    6  C   LIG     1      15.221  29.899  13.707  1.00  0.00     0.213 C 
ENDBRANCH   2   5
TORSDOF 2
ENDMDL
MODEL 19
REMARK VINA RESULT:      -3.0      2.005      3.852
REMARK  2 active torsions:
REMARK  status: ('A' for Active; 'I' for Inactive)
REMARK    1  A    between atoms: C_2  and  C_5 
REMARK    2  A    between atoms: C_2  and  O_3 
ROOT
HETATM    1  O   LIG     1      17.221  37.244  23.122  1.00  0.00    -0.265 OA
HETATM    2  C   LIG     1      16.791  36.101  22.804  1.00  0.00     0.258 C 
ENDROOT
BRANCH   2   3
HETATM    3  C   LIG     1      15.929  35.941  21.593  1.00  0.00     0.106 C 
HETATM    4  C   LIG     1      16.098  34.550  20.995  1.00  0.00     0.015 C 
ENDBRANCH   2   3
BRANCH   2   5
HETATM    5  O   LIG     1      17.148  34.972  23.548  1.00  0.00    -0.327 OA
HETATM    6  C   LIG     1      17.345  35.015  24.956  1.00  0.00     0.213 C 
ENDBRANCH   2   5
TORSDOF 2
ENDMDL
MODEL 20
REMARK VINA RESULT:      -2.9     12.309     12.905
REMARK  2 active torsions:
REMARK  status: ('A' for Active; 'I' for Inactive)
REMARK    1  A    between atoms: C_2  and  C_5 
REMARK    2  A    between atoms: C_2  and  O_3 
ROOT
HETATM    1  O   LIG     1      18.210  34.660  13.502  1.00  0.00    -0.265 OA
HETATM    2  C   LIG     1      18.474  33.661  12.779  1.00  0.00     0.258 C 
ENDROOT
BRANCH   2   3
HETATM    3  C   LIG     1      19.692  33.673  11.910  1.00  0.00     0.106 C 
HETATM    4  C   LIG     1      20.909  34.136  12.701  1.00  0.00     0.015 C 
ENDBRANCH   2   3
BRANCH   2   5
HETATM    5  O   LIG     1      17.665  32.522  12.813  1.00  0.00    -0.327 OA
HETATM    6  C   LIG     1      16.446  32.470  13.544  1.00  0.00     0.213 C 
ENDBRANCH   2   5
TORSDOF 2
ENDMDL
