REMARK  4 active torsions:
REMARK  status: ('A' for Active; 'I' for Inactive)
REMARK       I    between atoms: C_2  and  N_3 
REMARK       I    between atoms: C_2  and  N_12 
REMARK    1  A    between atoms: N_3  and  C_4 
REMARK    2  A    between atoms: N_12  and  C_14 
REMARK    3  A    between atoms: C_14  and  C_15 
REMARK    4  A    between atoms: C_15  and  C_16 
ROOT
HETATM    1  O   LIG     1      -0.583  -0.011   1.409  1.00  0.00    -0.247 OA
HETATM    2  C   LIG     1      -0.214  -0.325   0.244  1.00  0.00     0.322 C 
HETATM    3  N   LIG     1      -1.141  -0.204  -0.850  1.00  0.00    -0.309 N 
HETATM    4  N   LIG     1       1.141  -0.770   0.018  1.00  0.00    -0.338 N 
HETATM    5  C   LIG     1       1.502  -1.402  -1.256  1.00  0.00     0.154 C 
HETATM    6  H   LIG     1      -0.758  -0.059  -1.811  1.00  0.00     0.170 HD
ENDROOT
BRANCH   3   7
HETATM    7  C   LIG     1      -2.567  -0.128  -0.683  1.00  0.00     0.038 A 
HETATM    8  C   LIG     1      -3.330   0.604  -1.605  1.00  0.00     0.031 A 
HETATM    9  C   LIG     1      -4.720   0.676  -1.475  1.00  0.00     0.028 A 
HETATM   10  C   LIG     1      -5.367   0.005  -0.432  1.00  0.00     0.055 A 
HETATM   11  C   LIG     1      -4.615  -0.750   0.483  1.00  0.00     0.058 A 
HETATM   12 CL   LIG     1      -7.117   0.118  -0.303  1.00  0.00    -0.083 Cl
HETATM   13  C   LIG     1      -3.223  -0.820   0.351  1.00  0.00     0.055 A 
HETATM   14 CL   LIG     1      -5.391  -1.627   1.794  1.00  0.00    -0.082 Cl
ENDBRANCH   3   7
BRANCH   4  15
HETATM   15  C   LIG     1       2.136  -0.681   1.100  1.00  0.00     0.127 C 
BRANCH  15  16
HETATM   16  C   LIG     1       2.558   0.775   1.360  1.00  0.00     0.020 C 
BRANCH  16  17
HETATM   17  C   LIG     1       3.160   1.476   0.131  1.00  0.00    -0.003 C 
HETATM   18  C   LIG     1       4.511   0.891  -0.281  1.00  0.00     0.005 C 
ENDBRANCH  16  17
ENDBRANCH  15  16
ENDBRANCH   4  15
TORSDOF 4
