MODEL 1
REMARK VINA RESULT:      -3.6      0.000      0.000
REMARK  2 active torsions:
REMARK  status: ('A' for Active; 'I' for Inactive)
REMARK    1  A    between atoms: O_2  and  C_3 
REMARK    2  A    between atoms: C_3  and  C_4 
ROOT
HETATM    1  C   LIG     1      18.065  37.436  25.321  1.00  0.00     0.166 C 
ENDROOT
BRANCH   1   2
HETATM    2  O   LIG     1      16.726  37.842  25.128  1.00  0.00    -0.396 OA
HETATM    3  C   LIG     1      16.382  37.684  23.769  1.00  0.00     0.201 C 
ENDBRANCH   1   2
BRANCH   1   4
HETATM    4  C   LIG     1      18.134  36.511  26.535  1.00  0.00     0.022 C 
HETATM    5  C   LIG     1      17.979  35.047  26.129  1.00  0.00     0.007 C 
ENDBRANCH   1   4
TORSDOF 2
ENDMDL
MODEL 2
REMARK VINA RESULT:      -3.4      1.344      1.848
REMARK  2 active torsions:
REMARK  status: ('A' for Active; 'I' for Inactive)
REMARK    1  A    between atoms: O_2  and  C_3 
REMARK    2  A    between atoms: C_3  and  C_4 
ROOT
HETATM    1  C   LIG     1      17.291  34.986  24.877  1.00  0.00     0.166 C 
ENDROOT
BRANCH   1   2
HETATM    2  O   LIG     1      17.250  36.329  24.445  1.00  0.00    -0.396 OA
HETATM    3  C   LIG     1      16.900  36.370  23.079  1.00  0.00     0.201 C 
ENDBRANCH   1   2
BRANCH   1   4
HETATM    4  C   LIG     1      18.046  34.914  26.203  1.00  0.00     0.022 C 
HETATM    5  C   LIG     1      18.378  36.307  26.733  1.00  0.00     0.007 C 
ENDBRANCH   1   4
TORSDOF 2
ENDMDL
MODEL 3
REMARK VINA RESULT:      -3.3      1.915      3.776
REMARK  2 active torsions:
REMARK  status: ('A' for Active; 'I' for Inactive)
REMARK    1  A    between atoms: O_2  and  C_3 
REMARK    2  A    between atoms: C_3  and  C_4 
ROOT
HETATM    1  C   LIG     1      16.281  37.852  22.944  1.00  0.00     0.166 C 
ENDROOT
BRANCH   1   2
HETATM    2  O   LIG     1      16.037  38.004  24.326  1.00  0.00    -0.396 OA
HETATM    3  C   LIG     1      17.263  37.970  25.023  1.00  0.00     0.201 C 
ENDBRANCH   1   2
BRANCH   1   4
HETATM    4  C   LIG     1      17.166  39.002  22.466  1.00  0.00     0.022 C 
HETATM    5  C   LIG     1      18.119  38.549  21.362  1.00  0.00     0.007 C 
ENDBRANCH   1   4
TORSDOF 2
ENDMDL
MODEL 4
REMARK VINA RESULT:      -3.2      1.896      2.990
REMARK  2 active torsions:
REMARK  status: ('A' for Active; 'I' for Inactive)
REMARK    1  A    between atoms: O_2  and  C_3 
REMARK    2  A    between atoms: C_3  and  C_4 
ROOT
HETATM    1  C   LIG     1      16.170  37.391  22.938  1.00  0.00     0.166 C 
ENDROOT
BRANCH   1   2
HETATM    2  O   LIG     1      15.987  38.034  24.181  1.00  0.00    -0.396 OA
HETATM    3  C   LIG     1      17.103  37.783  25.006  1.00  0.00     0.201 C 
ENDBRANCH   1   2
BRANCH   1   4
HETATM    4  C   LIG     1      16.964  36.104  23.156  1.00  0.00     0.022 C 
HETATM    5  C   LIG     1      16.974  35.236  21.900  1.00  0.00     0.007 C 
ENDBRANCH   1   4
TORSDOF 2
ENDMDL
MODEL 5
REMARK VINA RESULT:      -3.2      0.989      1.319
REMARK  2 active torsions:
REMARK  status: ('A' for Active; 'I' for Inactive)
REMARK    1  A    between atoms: O_2  and  C_3 
REMARK    2  A    between atoms: C_3  and  C_4 
ROOT
HETATM    1  C   LIG     1      17.143  36.120  24.464  1.00  0.00     0.166 C 
ENDROOT
BRANCH   1   2
HETATM    2  O   LIG     1      16.871  37.460  24.813  1.00  0.00    -0.396 OA
HETATM    3  C   LIG     1      17.044  38.283  23.681  1.00  0.00     0.201 C 
ENDBRANCH   1   2
BRANCH   1   4
HETATM    4  C   LIG     1      17.706  35.392  25.684  1.00  0.00     0.022 C 
HETATM    5  C   LIG     1      18.415  36.358  26.631  1.00  0.00     0.007 C 
ENDBRANCH   1   4
TORSDOF 2
ENDMDL
MODEL 6
REMARK VINA RESULT:      -3.1      6.528      7.451
REMARK  2 active torsions:
REMARK  status: ('A' for Active; 'I' for Inactive)
REMARK    1  A    between atoms: O_2  and  C_3 
REMARK    2  A    between atoms: C_3  and  C_4 
ROOT
HETATM    1  C   LIG     1      19.074  38.842  18.553  1.00  0.00     0.166 C 
ENDROOT
BRANCH   1   2
HETATM    2  O   LIG     1      19.565  39.729  17.571  1.00  0.00    -0.396 OA
HETATM    3  C   LIG     1      18.653  39.788  16.497  1.00  0.00     0.201 C 
ENDBRANCH   1   2
BRANCH   1   4
HETATM    4  C   LIG     1      19.914  38.989  19.821  1.00  0.00     0.022 C 
HETATM    5  C   LIG     1      19.033  39.104  21.063  1.00  0.00     0.007 C 
ENDBRANCH   1   4
TORSDOF 2
ENDMDL
MODEL 7
REMARK VINA RESULT:      -3.0      9.784     10.804
REMARK  2 active torsions:
REMARK  status: ('A' for Active; 'I' for Inactive)
REMARK    1  A    between atoms: O_2  and  C_3 
REMARK    2  A    between atoms: C_3  and  C_4 
ROOT
HETATM    1  C   LIG     1      13.910  31.849  17.165  1.00  0.00     0.166 C 
ENDROOT
BRANCH   1   2
HETATM    2  O   LIG     1      14.123  31.308  18.451  1.00  0.00    -0.396 OA
HETATM    3  C   LIG     1      15.019  32.133  19.163  1.00  0.00     0.201 C 
ENDBRANCH   1   2
BRANCH   1   4
HETATM    4  C   LIG     1      13.161  30.826  16.312  1.00  0.00     0.022 C 
HETATM    5  C   LIG     1      13.986  30.401  15.099  1.00  0.00     0.007 C 
ENDBRANCH   1   4
TORSDOF 2
ENDMDL
MODEL 8
REMARK VINA RESULT:      -3.0      8.883      9.528
REMARK  2 active torsions:
REMARK  status: ('A' for Active; 'I' for Inactive)
REMARK    1  A    between atoms: O_2  and  C_3 
REMARK    2  A    between atoms: C_3  and  C_4 
ROOT
HETATM    1  C   LIG     1      14.629  32.226  17.785  1.00  0.00     0.166 C 
ENDROOT
BRANCH   1   2
HETATM    2  O   LIG     1      13.784  31.095  17.774  1.00  0.00    -0.396 OA
HETATM    3  C   LIG     1      13.348  30.851  16.455  1.00  0.00     0.201 C 
ENDBRANCH   1   2
BRANCH   1   4
HETATM    4  C   LIG     1      15.234  32.382  19.179  1.00  0.00     0.022 C 
HETATM    5  C   LIG     1      14.845  31.219  20.088  1.00  0.00     0.007 C 
ENDBRANCH   1   4
TORSDOF 2
ENDMDL
MODEL 9
REMARK VINA RESULT:      -2.9      4.336      5.133
REMARK  2 active torsions:
REMARK  status: ('A' for Active; 'I' for Inactive)
REMARK    1  A    between atoms: O_2  and  C_3 
REMARK    2  A    between atoms: C_3  and  C_4 
ROOT
HETATM    1  C   LIG     1      17.612  38.057  21.752  1.00  0.00     0.166 C 
ENDROOT
BRANCH   1   2
HETATM    2  O   LIG     1      17.974  37.106  20.773  1.00  0.00    -0.396 OA
HETATM    3  C   LIG     1      17.158  35.963  20.908  1.00  0.00     0.201 C 
ENDBRANCH   1   2
BRANCH   1   4
HETATM    4  C   LIG     1      18.489  39.297  21.589  1.00  0.00     0.022 C 
HETATM    5  C   LIG     1      19.307  39.236  20.302  1.00  0.00     0.007 C 
ENDBRANCH   1   4
TORSDOF 2
ENDMDL
MODEL 10
REMARK VINA RESULT:      -2.9     11.164     12.139
REMARK  2 active torsions:
REMARK  status: ('A' for Active; 'I' for Inactive)
REMARK    1  A    between atoms: O_2  and  C_3 
REMARK    2  A    between atoms: C_3  and  C_4 
ROOT
HETATM    1  C   LIG     1      13.022  30.499  15.588  1.00  0.00     0.166 C 
ENDROOT
BRANCH   1   2
HETATM    2  O   LIG     1      12.708  31.116  16.818  1.00  0.00    -0.396 OA
HETATM    3  C   LIG     1      13.774  31.952  17.208  1.00  0.00     0.201 C 
ENDBRANCH   1   2
BRANCH   1   4
HETATM    4  C   LIG     1      14.487  30.776  15.253  1.00  0.00     0.022 C 
HETATM    5  C   LIG     1      14.921  30.032  13.992  1.00  0.00     0.007 C 
ENDBRANCH   1   4
TORSDOF 2
ENDMDL
MODEL 11
REMARK VINA RESULT:      -2.9      1.383      3.363
REMARK  2 active torsions:
REMARK  status: ('A' for Active; 'I' for Inactive)
REMARK    1  A    between atoms: O_2  and  C_3 
REMARK    2  A    between atoms: C_3  and  C_4 
ROOT
HETATM    1  C   LIG     1      17.272  38.094  24.685  1.00  0.00     0.166 C 
ENDROOT
BRANCH   1   2
HETATM    2  O   LIG     1      17.265  36.828  25.308  1.00  0.00    -0.396 OA
HETATM    3  C   LIG     1      18.389  36.715  26.152  1.00  0.00     0.201 C 
ENDBRANCH   1   2
BRANCH   1   4
HETATM    4  C   LIG     1      17.034  37.913  23.187  1.00  0.00     0.022 C 
HETATM    5  C   LIG     1      17.907  38.859  22.366  1.00  0.00     0.007 C 
ENDBRANCH   1   4
TORSDOF 2
ENDMDL
MODEL 12
REMARK VINA RESULT:      -2.9      4.706      5.527
REMARK  2 active torsions:
REMARK  status: ('A' for Active; 'I' for Inactive)
REMARK    1  A    between atoms: O_2  and  C_3 
REMARK    2  A    between atoms: C_3  and  C_4 
ROOT
HETATM    1  C   LIG     1      18.892  39.337  20.354  1.00  0.00     0.166 C 
ENDROOT
BRANCH   1   2
HETATM    2  O   LIG     1      19.828  38.419  19.830  1.00  0.00    -0.396 OA
HETATM    3  C   LIG     1      19.166  37.221  19.489  1.00  0.00     0.201 C 
ENDBRANCH   1   2
BRANCH   1   4
HETATM    4  C   LIG     1      18.717  39.072  21.848  1.00  0.00     0.022 C 
HETATM    5  C   LIG     1      17.247  38.884  22.212  1.00  0.00     0.007 C 
ENDBRANCH   1   4
TORSDOF 2
ENDMDL
MODEL 13
REMARK VINA RESULT:      -2.8      6.449      7.989
REMARK  2 active torsions:
REMARK  status: ('A' for Active; 'I' for Inactive)
REMARK    1  A    between atoms: O_2  and  C_3 
REMARK    2  A    between atoms: C_3  and  C_4 
ROOT
HETATM    1  C   LIG     1      19.080  38.878  18.547  1.00  0.00     0.166 C 
ENDROOT
BRANCH   1   2
HETATM    2  O   LIG     1      19.682  39.554  19.631  1.00  0.00    -0.396 OA
HETATM    3  C   LIG     1      18.917  39.342  20.796  1.00  0.00     0.201 C 
ENDBRANCH   1   2
BRANCH   1   4
HETATM    4  C   LIG     1      18.348  39.893  17.672  1.00  0.00     0.022 C 
HETATM    5  C   LIG     1      18.594  39.631  16.188  1.00  0.00     0.007 C 
ENDBRANCH   1   4
TORSDOF 2
ENDMDL
MODEL 14
REMARK VINA RESULT:      -2.7     13.226     13.622
REMARK  2 active torsions:
REMARK  status: ('A' for Active; 'I' for Inactive)
REMARK    1  A    between atoms: O_2  and  C_3 
REMARK    2  A    between atoms: C_3  and  C_4 
ROOT
HETATM    1  C   LIG     1      20.947  34.485  11.670  1.00  0.00     0.166 C 
ENDROOT
BRANCH   1   2
HETATM    2  O   LIG     1      19.591  34.689  12.005  1.00  0.00    -0.396 OA
HETATM    3  C   LIG     1      19.177  33.686  12.906  1.00  0.00     0.201 C 
ENDBRANCH   1   2
BRANCH   1   4
HETATM    4  C   LIG     1      21.735  34.190  12.944  1.00  0.00     0.022 C 
HETATM    5  C   LIG     1      22.759  35.285  13.233  1.00  0.00     0.007 C 
ENDBRANCH   1   4
TORSDOF 2
ENDMDL
MODEL 15
REMARK VINA RESULT:      -2.7      3.893      4.745
REMARK  2 active torsions:
REMARK  status: ('A' for Active; 'I' for Inactive)
REMARK    1  A    between atoms: O_2  and  C_3 
REMARK    2  A    between atoms: C_3  and  C_4 
ROOT
HETATM    1  C   LIG     1      17.801  36.716  20.741  1.00  0.00     0.166 C 
ENDROOT
BRANCH   1   2
HETATM    2  O   LIG     1      17.075  35.533  21.000  1.00  0.00    -0.396 OA
HETATM    3  C   LIG     1      16.859  35.414  22.389  1.00  0.00     0.201 C 
ENDBRANCH   1   2
BRANCH   1   4
HETATM    4  C   LIG     1      17.450  37.758  21.800  1.00  0.00     0.022 C 
HETATM    5  C   LIG     1      18.226  39.056  21.585  1.00  0.00     0.007 C 
ENDBRANCH   1   4
TORSDOF 2
ENDMDL
MODEL 16
REMARK VINA RESULT:      -2.7      3.093      3.543
REMARK  2 active torsions:
REMARK  status: ('A' for Active; 'I' for Inactive)
REMARK    1  A    between atoms: O_2  and  C_3 
REMARK    2  A    between atoms: C_3  and  C_4 
ROOT
HETATM    1  C   LIG     1      16.590  37.516  22.975  1.00  0.00     0.166 C 
ENDROOT
BRANCH   1   2
HETATM    2  O   LIG     1      17.195  38.791  22.926  1.00  0.00    -0.396 OA
HETATM    3  C   LIG     1      17.908  38.923  21.716  1.00  0.00     0.201 C 
ENDBRANCH   1   2
BRANCH   1   4
HETATM    4  C   LIG     1      17.087  36.684  21.794  1.00  0.00     0.022 C 
HETATM    5  C   LIG     1      16.977  35.188  22.080  1.00  0.00     0.007 C 
ENDBRANCH   1   4
TORSDOF 2
ENDMDL
MODEL 17
REMARK VINA RESULT:      -2.7      4.040      4.825
REMARK  2 active torsions:
REMARK  status: ('A' for Active; 'I' for Inactive)
REMARK    1  A    between atoms: O_2  and  C_3 
REMARK    2  A    between atoms: C_3  and  C_4 
ROOT
HETATM    1  C   LIG     1      17.947  36.579  20.535  1.00  0.00     0.166 C 
ENDROOT
BRANCH   1   2
HETATM    2  O   LIG     1      18.529  37.865  20.561  1.00  0.00    -0.396 OA
HETATM    3  C   LIG     1      19.455  37.980  19.504  1.00  0.00     0.201 C 
ENDBRANCH   1   2
BRANCH   1   4
HETATM    4  C   LIG     1      16.884  36.492  21.629  1.00  0.00     0.022 C 
HETATM    5  C   LIG     1      16.944  35.152  22.359  1.00  0.00     0.007 C 
ENDBRANCH   1   4
TORSDOF 2
ENDMDL
MODEL 18
REMARK VINA RESULT:      -2.7     12.587     12.842
REMARK  2 active torsions:
REMARK  status: ('A' for Active; 'I' for Inactive)
REMARK    1  A    between atoms: O_2  and  C_3 
REMARK    2  A    between atoms: C_3  and  C_4 
ROOT
HETATM    1  C   LIG     1      15.933  31.767  14.304  1.00  0.00     0.166 C 
ENDROOT
BRANCH   1   2
HETATM    2  O   LIG     1      16.714  31.998  13.151  1.00  0.00    -0.396 OA
HETATM    3  C   LIG     1      17.405  33.220  13.292  1.00  0.00     0.201 C 
ENDBRANCH   1   2
BRANCH   1   4
HETATM    4  C   LIG     1      15.125  30.485  14.109  1.00  0.00     0.022 C 
HETATM    5  C   LIG     1      14.002  30.372  15.138  1.00  0.00     0.007 C 
ENDBRANCH   1   4
TORSDOF 2
ENDMDL
MODEL 19
REMARK VINA RESULT:      -2.7     10.707     11.658
REMARK  2 active torsions:
REMARK  status: ('A' for Active; 'I' for Inactive)
REMARK    1  A    between atoms: O_2  and  C_3 
REMARK    2  A    between atoms: C_3  and  C_4 
ROOT
HETATM    1  C   LIG     1      15.960  32.154  14.835  1.00  0.00     0.166 C 
ENDROOT
BRANCH   1   2
HETATM    2  O   LIG     1      15.685  33.304  15.606  1.00  0.00    -0.396 OA
HETATM    3  C   LIG     1      14.901  32.943  16.721  1.00  0.00     0.201 C 
ENDBRANCH   1   2
BRANCH   1   4
HETATM    4  C   LIG     1      14.888  31.101  15.114  1.00  0.00     0.022 C 
HETATM    5  C   LIG     1      14.919  29.985  14.072  1.00  0.00     0.007 C 
ENDBRANCH   1   4
TORSDOF 2
ENDMDL
MODEL 20
REMARK VINA RESULT:      -2.6      9.629     10.197
REMARK  2 active torsions:
REMARK  status: ('A' for Active; 'I' for Inactive)
REMARK    1  A    between atoms: O_2  and  C_3 
REMARK    2  A    between atoms: C_3  and  C_4 
ROOT
HETATM    1  C   LIG     1      15.038  33.813  16.787  1.00  0.00     0.166 C 
ENDROOT
BRANCH   1   2
HETATM    2  O   LIG     1      16.121  34.405  16.103  1.00  0.00    -0.396 OA
HETATM    3  C   LIG     1      16.749  33.436  15.295  1.00  0.00     0.201 C 
ENDBRANCH   1   2
BRANCH   1   4
HETATM    4  C   LIG     1      14.955  32.336  16.405  1.00  0.00     0.022 C 
HETATM    5  C   LIG     1      13.773  31.649  17.085  1.00  0.00     0.007 C 
ENDBRANCH   1   4
TORSDOF 2
ENDMDL
