REMARK  1 active torsions:
REMARK  status: ('A' for Active; 'I' for Inactive)
REMARK    1  A    between atoms: C_7  and  C_8 
ROOT
HETATM    1 CL   LIG     1       3.918  -0.860   2.348  1.00  0.00    -0.083 Cl
HETATM    2  C   LIG     1       2.917  -0.438   0.964  1.00  0.00     0.056 A 
HETATM    3  C   LIG     1       3.543  -0.159  -0.253  1.00  0.00     0.027 A 
HETATM    4  C   LIG     1       2.785   0.183  -1.372  1.00  0.00     0.026 A 
HETATM    5  C   LIG     1       1.392   0.251  -1.288  1.00  0.00     0.046 A 
HETATM    6 CL   LIG     1       0.485   0.655  -2.744  1.00  0.00    -0.083 Cl
HETATM    7  C   LIG     1       0.744  -0.028  -0.066  1.00  0.00     0.019 A 
HETATM    8  C   LIG     1       1.515  -0.374   1.066  1.00  0.00     0.068 A 
HETATM    9 CL   LIG     1       0.737  -0.694   2.620  1.00  0.00    -0.082 Cl
ENDROOT
BRANCH   7  10
HETATM   10  C   LIG     1      -0.730   0.040   0.025  1.00  0.00    -0.022 A 
HETATM   11  C   LIG     1      -1.386   1.280  -0.046  1.00  0.00     0.012 A 
HETATM   12  C   LIG     1      -2.780   1.343   0.039  1.00  0.00     0.001 A 
HETATM   13  C   LIG     1      -3.526   0.171   0.196  1.00  0.00     0.000 A 
HETATM   14  C   LIG     1      -2.879  -1.066   0.268  1.00  0.00     0.001 A 
HETATM   15  C   LIG     1      -1.484  -1.133   0.182  1.00  0.00     0.012 A 
ENDBRANCH   7  10
TORSDOF 1
