MODEL 1
REMARK VINA RESULT:      -6.1      0.000      0.000
REMARK  1 active torsions:
REMARK  status: ('A' for Active; 'I' for Inactive)
REMARK    1  A    between atoms: C_7  and  C_8 
ROOT
HETATM    1 CL   LIG     1      18.330  35.941  27.117  1.00  0.00    -0.083 Cl
HETATM    2  C   LIG     1      17.763  36.886  25.746  1.00  0.00     0.056 A 
HETATM    3  C   LIG     1      17.711  38.276  25.868  1.00  0.00     0.027 A 
HETATM    4  C   LIG     1      17.264  39.059  24.804  1.00  0.00     0.026 A 
HETATM    5  C   LIG     1      16.862  38.462  23.607  1.00  0.00     0.046 A 
HETATM    6 CL   LIG     1      16.339  39.506  22.286  1.00  0.00    -0.083 Cl
HETATM    7  C   LIG     1      16.908  37.059  23.467  1.00  0.00     0.019 A 
HETATM    8  C   LIG     1      17.361  36.268  24.547  1.00  0.00     0.068 A 
HETATM    9 CL   LIG     1      17.397  34.506  24.417  1.00  0.00    -0.082 Cl
ENDROOT
BRANCH   7  10
HETATM   10  C   LIG     1      16.487  36.425  22.200  1.00  0.00    -0.022 A 
HETATM   11  C   LIG     1      17.411  36.244  21.159  1.00  0.00     0.012 A 
HETATM   12  C   LIG     1      17.012  35.643  19.961  1.00  0.00     0.001 A 
HETATM   13  C   LIG     1      15.689  35.221  19.796  1.00  0.00     0.000 A 
HETATM   14  C   LIG     1      14.764  35.399  20.829  1.00  0.00     0.001 A 
HETATM   15  C   LIG     1      15.161  35.999  22.029  1.00  0.00     0.012 A 
ENDBRANCH   7  10
TORSDOF 1
ENDMDL
MODEL 2
REMARK VINA RESULT:      -6.0      6.500      9.767
REMARK  1 active torsions:
REMARK  status: ('A' for Active; 'I' for Inactive)
REMARK    1  A    between atoms: C_7  and  C_8 
ROOT
HETATM    1 CL   LIG     1      12.938  29.102  14.171  1.00  0.00    -0.083 Cl
HETATM    2  C   LIG     1      14.169  30.313  14.506  1.00  0.00     0.056 A 
HETATM    3  C   LIG     1      15.123  30.586  13.522  1.00  0.00     0.027 A 
HETATM    4  C   LIG     1      16.117  31.536  13.751  1.00  0.00     0.026 A 
HETATM    5  C   LIG     1      16.170  32.225  14.965  1.00  0.00     0.046 A 
HETATM    6 CL   LIG     1      17.429  33.440  15.183  1.00  0.00    -0.083 Cl
HETATM    7  C   LIG     1      15.215  31.962  15.969  1.00  0.00     0.019 A 
HETATM    8  C   LIG     1      14.209  30.998  15.735  1.00  0.00     0.068 A 
HETATM    9 CL   LIG     1      13.019  30.618  16.984  1.00  0.00    -0.082 Cl
ENDROOT
BRANCH   7  10
HETATM   10  C   LIG     1      15.267  32.692  17.253  1.00  0.00    -0.022 A 
HETATM   11  C   LIG     1      15.435  31.990  18.459  1.00  0.00     0.012 A 
HETATM   12  C   LIG     1      15.485  32.681  19.673  1.00  0.00     0.001 A 
HETATM   13  C   LIG     1      15.368  34.074  19.691  1.00  0.00     0.000 A 
HETATM   14  C   LIG     1      15.200  34.778  18.495  1.00  0.00     0.001 A 
HETATM   15  C   LIG     1      15.150  34.090  17.278  1.00  0.00     0.012 A 
ENDBRANCH   7  10
TORSDOF 1
ENDMDL
MODEL 3
REMARK VINA RESULT:      -5.5      8.854     10.638
REMARK  1 active torsions:
REMARK  status: ('A' for Active; 'I' for Inactive)
REMARK    1  A    between atoms: C_7  and  C_8 
ROOT
HETATM    1 CL   LIG     1      12.956  28.296  14.238  1.00  0.00    -0.083 Cl
HETATM    2  C   LIG     1      13.531  29.800  14.947  1.00  0.00     0.056 A 
HETATM    3  C   LIG     1      12.812  30.357  16.007  1.00  0.00     0.027 A 
HETATM    4  C   LIG     1      13.234  31.550  16.593  1.00  0.00     0.026 A 
HETATM    5  C   LIG     1      14.379  32.200  16.127  1.00  0.00     0.046 A 
HETATM    6 CL   LIG     1      14.883  33.686  16.929  1.00  0.00    -0.083 Cl
HETATM    7  C   LIG     1      15.117  31.650  15.057  1.00  0.00     0.019 A 
HETATM    8  C   LIG     1      14.687  30.442  14.465  1.00  0.00     0.068 A 
HETATM    9 CL   LIG     1      15.568  29.746  13.101  1.00  0.00    -0.082 Cl
ENDROOT
BRANCH   7  10
HETATM   10  C   LIG     1      16.331  32.334  14.564  1.00  0.00    -0.022 A 
HETATM   11  C   LIG     1      17.487  32.385  15.361  1.00  0.00     0.012 A 
HETATM   12  C   LIG     1      18.635  33.032  14.893  1.00  0.00     0.001 A 
HETATM   13  C   LIG     1      18.636  33.631  13.629  1.00  0.00     0.000 A 
HETATM   14  C   LIG     1      17.489  33.584  12.832  1.00  0.00     0.001 A 
HETATM   15  C   LIG     1      16.338  32.937  13.296  1.00  0.00     0.012 A 
ENDBRANCH   7  10
TORSDOF 1
ENDMDL
MODEL 4
REMARK VINA RESULT:      -5.5      2.424      3.577
REMARK  1 active torsions:
REMARK  status: ('A' for Active; 'I' for Inactive)
REMARK    1  A    between atoms: C_7  and  C_8 
ROOT
HETATM    1 CL   LIG     1      17.967  36.837  26.452  1.00  0.00    -0.083 Cl
HETATM    2  C   LIG     1      17.560  36.394  24.799  1.00  0.00     0.056 A 
HETATM    3  C   LIG     1      16.781  35.254  24.585  1.00  0.00     0.027 A 
HETATM    4  C   LIG     1      16.440  34.867  23.290  1.00  0.00     0.026 A 
HETATM    5  C   LIG     1      16.874  35.615  22.192  1.00  0.00     0.046 A 
HETATM    6 CL   LIG     1      16.383  35.097  20.581  1.00  0.00    -0.083 Cl
HETATM    7  C   LIG     1      17.661  36.769  22.390  1.00  0.00     0.019 A 
HETATM    8  C   LIG     1      18.005  37.158  23.704  1.00  0.00     0.068 A 
HETATM    9 CL   LIG     1      19.019  38.577  23.985  1.00  0.00    -0.082 Cl
ENDROOT
BRANCH   7  10
HETATM   10  C   LIG     1      18.119  37.564  21.231  1.00  0.00    -0.022 A 
HETATM   11  C   LIG     1      18.032  38.965  21.256  1.00  0.00     0.012 A 
HETATM   12  C   LIG     1      18.466  39.716  20.160  1.00  0.00     0.001 A 
HETATM   13  C   LIG     1      18.987  39.073  19.033  1.00  0.00     0.000 A 
HETATM   14  C   LIG     1      19.075  37.678  19.001  1.00  0.00     0.001 A 
HETATM   15  C   LIG     1      18.643  36.924  20.097  1.00  0.00     0.012 A 
ENDBRANCH   7  10
TORSDOF 1
ENDMDL
MODEL 5
REMARK VINA RESULT:      -4.8      7.449     10.048
REMARK  1 active torsions:
REMARK  status: ('A' for Active; 'I' for Inactive)
REMARK    1  A    between atoms: C_7  and  C_8 
ROOT
HETATM    1 CL   LIG     1      14.977  33.441  18.944  1.00  0.00    -0.083 Cl
HETATM    2  C   LIG     1      15.311  32.987  17.278  1.00  0.00     0.056 A 
HETATM    3  C   LIG     1      16.095  33.840  16.497  1.00  0.00     0.027 A 
HETATM    4  C   LIG     1      16.378  33.518  15.171  1.00  0.00     0.026 A 
HETATM    5  C   LIG     1      15.882  32.339  14.608  1.00  0.00     0.046 A 
HETATM    6 CL   LIG     1      16.302  31.968  12.938  1.00  0.00    -0.083 Cl
HETATM    7  C   LIG     1      15.089  31.466  15.383  1.00  0.00     0.019 A 
HETATM    8  C   LIG     1      14.803  31.796  16.727  1.00  0.00     0.068 A 
HETATM    9 CL   LIG     1      13.784  30.743  17.714  1.00  0.00    -0.082 Cl
ENDROOT
BRANCH   7  10
HETATM   10  C   LIG     1      14.565  30.217  14.792  1.00  0.00    -0.022 A 
HETATM   11  C   LIG     1      15.450  29.235  14.316  1.00  0.00     0.012 A 
HETATM   12  C   LIG     1      14.954  28.053  13.758  1.00  0.00     0.001 A 
HETATM   13  C   LIG     1      13.574  27.845  13.671  1.00  0.00     0.000 A 
HETATM   14  C   LIG     1      12.688  28.819  14.142  1.00  0.00     0.001 A 
HETATM   15  C   LIG     1      13.181  30.002  14.703  1.00  0.00     0.012 A 
ENDBRANCH   7  10
TORSDOF 1
ENDMDL
MODEL 6
REMARK VINA RESULT:      -4.6     18.046     19.654
REMARK  1 active torsions:
REMARK  status: ('A' for Active; 'I' for Inactive)
REMARK    1  A    between atoms: C_7  and  C_8 
ROOT
HETATM    1 CL   LIG     1      18.720  20.485  29.732  1.00  0.00    -0.083 Cl
HETATM    2  C   LIG     1      19.536  20.158  31.256  1.00  0.00     0.056 A 
HETATM    3  C   LIG     1      19.874  18.837  31.563  1.00  0.00     0.027 A 
HETATM    4  C   LIG     1      20.517  18.536  32.762  1.00  0.00     0.026 A 
HETATM    5  C   LIG     1      20.831  19.551  33.670  1.00  0.00     0.046 A 
HETATM    6 CL   LIG     1      21.675  19.114  35.154  1.00  0.00    -0.083 Cl
HETATM    7  C   LIG     1      20.497  20.890  33.376  1.00  0.00     0.019 A 
HETATM    8  C   LIG     1      19.844  21.191  32.160  1.00  0.00     0.068 A 
HETATM    9 CL   LIG     1      19.380  22.853  31.777  1.00  0.00    -0.082 Cl
ENDROOT
BRANCH   7  10
HETATM   10  C   LIG     1      20.830  21.966  34.333  1.00  0.00    -0.022 A 
HETATM   11  C   LIG     1      22.103  22.559  34.313  1.00  0.00     0.012 A 
HETATM   12  C   LIG     1      22.417  23.578  35.219  1.00  0.00     0.001 A 
HETATM   13  C   LIG     1      21.464  24.008  36.147  1.00  0.00     0.000 A 
HETATM   14  C   LIG     1      20.196  23.420  36.172  1.00  0.00     0.001 A 
HETATM   15  C   LIG     1      19.878  22.402  35.267  1.00  0.00     0.012 A 
ENDBRANCH   7  10
TORSDOF 1
ENDMDL
MODEL 7
REMARK VINA RESULT:      -4.5     16.130     16.904
REMARK  1 active torsions:
REMARK  status: ('A' for Active; 'I' for Inactive)
REMARK    1  A    between atoms: C_7  and  C_8 
ROOT
HETATM    1 CL   LIG     1      24.712  22.692  24.382  1.00  0.00    -0.083 Cl
HETATM    2  C   LIG     1      24.402  22.519  22.659  1.00  0.00     0.056 A 
HETATM    3  C   LIG     1      23.166  22.016  22.249  1.00  0.00     0.027 A 
HETATM    4  C   LIG     1      22.884  21.861  20.892  1.00  0.00     0.026 A 
HETATM    5  C   LIG     1      23.835  22.206  19.929  1.00  0.00     0.046 A 
HETATM    6 CL   LIG     1      23.409  22.020  18.229  1.00  0.00    -0.083 Cl
HETATM    7  C   LIG     1      25.089  22.716  20.326  1.00  0.00     0.019 A 
HETATM    8  C   LIG     1      25.372  22.872  21.701  1.00  0.00     0.068 A 
HETATM    9 CL   LIG     1      26.946  23.474  22.233  1.00  0.00    -0.082 Cl
ENDROOT
BRANCH   7  10
HETATM   10  C   LIG     1      26.097  23.085  19.309  1.00  0.00    -0.022 A 
HETATM   11  C   LIG     1      27.001  22.124  18.828  1.00  0.00     0.012 A 
HETATM   12  C   LIG     1      27.952  22.474  17.865  1.00  0.00     0.001 A 
HETATM   13  C   LIG     1      28.007  23.784  17.378  1.00  0.00     0.000 A 
HETATM   14  C   LIG     1      27.110  24.745  17.853  1.00  0.00     0.001 A 
HETATM   15  C   LIG     1      26.156  24.398  18.816  1.00  0.00     0.012 A 
ENDBRANCH   7  10
TORSDOF 1
ENDMDL
MODEL 8
REMARK VINA RESULT:      -4.5     15.645     17.504
REMARK  1 active torsions:
REMARK  status: ('A' for Active; 'I' for Inactive)
REMARK    1  A    between atoms: C_7  and  C_8 
ROOT
HETATM    1 CL   LIG     1      24.955  19.602  16.733  1.00  0.00    -0.083 Cl
HETATM    2  C   LIG     1      24.569  20.686  18.064  1.00  0.00     0.056 A 
HETATM    3  C   LIG     1      23.331  20.553  18.697  1.00  0.00     0.027 A 
HETATM    4  C   LIG     1      22.986  21.395  19.753  1.00  0.00     0.026 A 
HETATM    5  C   LIG     1      23.874  22.382  20.189  1.00  0.00     0.046 A 
HETATM    6 CL   LIG     1      23.397  23.394  21.550  1.00  0.00    -0.083 Cl
HETATM    7  C   LIG     1      25.129  22.530  19.560  1.00  0.00     0.019 A 
HETATM    8  C   LIG     1      25.475  21.674  18.491  1.00  0.00     0.068 A 
HETATM    9 CL   LIG     1      27.024  21.857  17.659  1.00  0.00    -0.082 Cl
ENDROOT
BRANCH   7  10
HETATM   10  C   LIG     1      26.072  23.571  20.022  1.00  0.00    -0.022 A 
HETATM   11  C   LIG     1      26.139  24.807  19.358  1.00  0.00     0.012 A 
HETATM   12  C   LIG     1      27.031  25.791  19.796  1.00  0.00     0.001 A 
HETATM   13  C   LIG     1      27.859  25.547  20.896  1.00  0.00     0.000 A 
HETATM   14  C   LIG     1      27.796  24.319  21.560  1.00  0.00     0.001 A 
HETATM   15  C   LIG     1      26.905  23.332  21.125  1.00  0.00     0.012 A 
ENDBRANCH   7  10
TORSDOF 1
ENDMDL
MODEL 9
REMARK VINA RESULT:      -4.4     16.247     18.238
REMARK  1 active torsions:
REMARK  status: ('A' for Active; 'I' for Inactive)
REMARK    1  A    between atoms: C_7  and  C_8 
ROOT
HETATM    1 CL   LIG     1      25.697  18.506  15.951  1.00  0.00    -0.083 Cl
HETATM    2  C   LIG     1      24.835  19.633  16.992  1.00  0.00     0.056 A 
HETATM    3  C   LIG     1      23.483  19.399  17.255  1.00  0.00     0.027 A 
HETATM    4  C   LIG     1      22.764  20.270  18.072  1.00  0.00     0.026 A 
HETATM    5  C   LIG     1      23.387  21.386  18.636  1.00  0.00     0.046 A 
HETATM    6 CL   LIG     1      22.436  22.433  19.688  1.00  0.00    -0.083 Cl
HETATM    7  C   LIG     1      24.752  21.637  18.381  1.00  0.00     0.019 A 
HETATM    8  C   LIG     1      25.478  20.752  17.552  1.00  0.00     0.068 A 
HETATM    9 CL   LIG     1      27.179  21.057  17.183  1.00  0.00    -0.082 Cl
ENDROOT
BRANCH   7  10
HETATM   10  C   LIG     1      25.415  22.815  18.978  1.00  0.00    -0.022 A 
HETATM   11  C   LIG     1      25.559  23.998  18.235  1.00  0.00     0.012 A 
HETATM   12  C   LIG     1      26.184  25.112  18.802  1.00  0.00     0.001 A 
HETATM   13  C   LIG     1      26.671  25.052  20.111  1.00  0.00     0.000 A 
HETATM   14  C   LIG     1      26.531  23.878  20.856  1.00  0.00     0.001 A 
HETATM   15  C   LIG     1      25.904  22.761  20.292  1.00  0.00     0.012 A 
ENDBRANCH   7  10
TORSDOF 1
ENDMDL
MODEL 10
REMARK VINA RESULT:      -4.3     16.623     17.897
REMARK  1 active torsions:
REMARK  status: ('A' for Active; 'I' for Inactive)
REMARK    1  A    between atoms: C_7  and  C_8 
ROOT
HETATM    1 CL   LIG     1      28.019  25.467  32.955  1.00  0.00    -0.083 Cl
HETATM    2  C   LIG     1      28.263  27.209  32.964  1.00  0.00     0.056 A 
HETATM    3  C   LIG     1      28.894  27.801  31.868  1.00  0.00     0.027 A 
HETATM    4  C   LIG     1      29.109  29.178  31.840  1.00  0.00     0.026 A 
HETATM    5  C   LIG     1      28.696  29.981  32.906  1.00  0.00     0.046 A 
HETATM    6 CL   LIG     1      28.964  31.719  32.798  1.00  0.00    -0.083 Cl
HETATM    7  C   LIG     1      28.056  29.398  34.021  1.00  0.00     0.019 A 
HETATM    8  C   LIG     1      27.840  28.002  34.047  1.00  0.00     0.068 A 
HETATM    9 CL   LIG     1      27.074  27.237  35.444  1.00  0.00    -0.082 Cl
ENDROOT
BRANCH   7  10
HETATM   10  C   LIG     1      27.615  30.245  35.150  1.00  0.00    -0.022 A 
HETATM   11  C   LIG     1      28.532  30.640  36.137  1.00  0.00     0.012 A 
HETATM   12  C   LIG     1      28.113  31.442  37.204  1.00  0.00     0.001 A 
HETATM   13  C   LIG     1      26.780  31.852  37.291  1.00  0.00     0.000 A 
HETATM   14  C   LIG     1      25.862  31.461  36.311  1.00  0.00     0.001 A 
HETATM   15  C   LIG     1      26.278  30.660  35.242  1.00  0.00     0.012 A 
ENDBRANCH   7  10
TORSDOF 1
ENDMDL
MODEL 11
REMARK VINA RESULT:      -4.3      2.073      5.027
REMARK  1 active torsions:
REMARK  status: ('A' for Active; 'I' for Inactive)
REMARK    1  A    between atoms: C_7  and  C_8 
ROOT
HETATM    1 CL   LIG     1      15.687  34.339  19.004  1.00  0.00    -0.083 Cl
HETATM    2  C   LIG     1      16.693  35.584  19.735  1.00  0.00     0.056 A 
HETATM    3  C   LIG     1      17.563  36.306  18.916  1.00  0.00     0.027 A 
HETATM    4  C   LIG     1      18.380  37.298  19.457  1.00  0.00     0.026 A 
HETATM    5  C   LIG     1      18.336  37.580  20.825  1.00  0.00     0.046 A 
HETATM    6 CL   LIG     1      19.365  38.868  21.447  1.00  0.00    -0.083 Cl
HETATM    7  C   LIG     1      17.462  36.860  21.667  1.00  0.00     0.019 A 
HETATM    8  C   LIG     1      16.636  35.855  21.115  1.00  0.00     0.068 A 
HETATM    9 CL   LIG     1      15.557  34.911  22.147  1.00  0.00    -0.082 Cl
ENDROOT
BRANCH   7  10
HETATM   10  C   LIG     1      17.411  37.158  23.114  1.00  0.00    -0.022 A 
HETATM   11  C   LIG     1      17.531  36.122  24.054  1.00  0.00     0.012 A 
HETATM   12  C   LIG     1      17.484  36.405  25.422  1.00  0.00     0.001 A 
HETATM   13  C   LIG     1      17.316  37.723  25.859  1.00  0.00     0.000 A 
HETATM   14  C   LIG     1      17.196  38.759  24.929  1.00  0.00     0.001 A 
HETATM   15  C   LIG     1      17.244  38.479  23.559  1.00  0.00     0.012 A 
ENDBRANCH   7  10
TORSDOF 1
ENDMDL
MODEL 12
REMARK VINA RESULT:      -4.3     15.735     16.566
REMARK  1 active torsions:
REMARK  status: ('A' for Active; 'I' for Inactive)
REMARK    1  A    between atoms: C_7  and  C_8 
ROOT
HETATM    1 CL   LIG     1      28.059  26.931  18.630  1.00  0.00    -0.083 Cl
HETATM    2  C   LIG     1      27.685  25.765  19.894  1.00  0.00     0.056 A 
HETATM    3  C   LIG     1      28.457  25.771  21.058  1.00  0.00     0.027 A 
HETATM    4  C   LIG     1      28.194  24.861  22.081  1.00  0.00     0.026 A 
HETATM    5  C   LIG     1      27.158  23.932  21.952  1.00  0.00     0.046 A 
HETATM    6 CL   LIG     1      26.852  22.829  23.292  1.00  0.00    -0.083 Cl
HETATM    7  C   LIG     1      26.370  23.912  20.782  1.00  0.00     0.019 A 
HETATM    8  C   LIG     1      26.638  24.836  19.747  1.00  0.00     0.068 A 
HETATM    9 CL   LIG     1      25.693  24.814  18.255  1.00  0.00    -0.082 Cl
ENDROOT
BRANCH   7  10
HETATM   10  C   LIG     1      25.271  22.933  20.644  1.00  0.00    -0.022 A 
HETATM   11  C   LIG     1      24.017  23.192  21.221  1.00  0.00     0.012 A 
HETATM   12  C   LIG     1      22.978  22.266  21.089  1.00  0.00     0.001 A 
HETATM   13  C   LIG     1      23.185  21.077  20.382  1.00  0.00     0.000 A 
HETATM   14  C   LIG     1      24.431  20.814  19.805  1.00  0.00     0.001 A 
HETATM   15  C   LIG     1      25.472  21.739  19.935  1.00  0.00     0.012 A 
ENDBRANCH   7  10
TORSDOF 1
ENDMDL
MODEL 13
REMARK VINA RESULT:      -4.2      3.056      5.167
REMARK  1 active torsions:
REMARK  status: ('A' for Active; 'I' for Inactive)
REMARK    1  A    between atoms: C_7  and  C_8 
ROOT
HETATM    1 CL   LIG     1      15.018  33.289  19.079  1.00  0.00    -0.083 Cl
HETATM    2  C   LIG     1      15.730  34.363  20.277  1.00  0.00     0.056 A 
HETATM    3  C   LIG     1      15.369  34.202  21.617  1.00  0.00     0.027 A 
HETATM    4  C   LIG     1      15.908  35.035  22.596  1.00  0.00     0.026 A 
HETATM    5  C   LIG     1      16.814  36.040  22.247  1.00  0.00     0.046 A 
HETATM    6 CL   LIG     1      17.488  37.040  23.532  1.00  0.00    -0.083 Cl
HETATM    7  C   LIG     1      17.189  36.216  20.899  1.00  0.00     0.019 A 
HETATM    8  C   LIG     1      16.641  35.370  19.909  1.00  0.00     0.068 A 
HETATM    9 CL   LIG     1      17.062  35.588  18.207  1.00  0.00    -0.082 Cl
ENDROOT
BRANCH   7  10
HETATM   10  C   LIG     1      18.150  37.277  20.528  1.00  0.00    -0.022 A 
HETATM   11  C   LIG     1      17.953  38.595  20.971  1.00  0.00     0.012 A 
HETATM   12  C   LIG     1      18.863  39.597  20.621  1.00  0.00     0.001 A 
HETATM   13  C   LIG     1      19.972  39.290  19.826  1.00  0.00     0.000 A 
HETATM   14  C   LIG     1      20.173  37.980  19.382  1.00  0.00     0.001 A 
HETATM   15  C   LIG     1      19.265  36.975  19.731  1.00  0.00     0.012 A 
ENDBRANCH   7  10
TORSDOF 1
ENDMDL
MODEL 14
REMARK VINA RESULT:      -4.2      2.172      3.018
REMARK  1 active torsions:
REMARK  status: ('A' for Active; 'I' for Inactive)
REMARK    1  A    between atoms: C_7  and  C_8 
ROOT
HETATM    1 CL   LIG     1      17.449  38.947  24.732  1.00  0.00    -0.083 Cl
HETATM    2  C   LIG     1      17.753  38.384  23.093  1.00  0.00     0.056 A 
HETATM    3  C   LIG     1      18.661  39.091  22.301  1.00  0.00     0.027 A 
HETATM    4  C   LIG     1      18.926  38.679  20.996  1.00  0.00     0.026 A 
HETATM    5  C   LIG     1      18.286  37.555  20.466  1.00  0.00     0.046 A 
HETATM    6 CL   LIG     1      18.686  37.062  18.822  1.00  0.00    -0.083 Cl
HETATM    7  C   LIG     1      17.366  36.830  21.253  1.00  0.00     0.019 A 
HETATM    8  C   LIG     1      17.100  37.250  22.575  1.00  0.00     0.068 A 
HETATM    9 CL   LIG     1      15.926  36.386  23.574  1.00  0.00    -0.082 Cl
ENDROOT
BRANCH   7  10
HETATM   10  C   LIG     1      16.690  35.639  20.696  1.00  0.00    -0.022 A 
HETATM   11  C   LIG     1      16.048  35.710  19.449  1.00  0.00     0.012 A 
HETATM   12  C   LIG     1      15.409  34.583  18.922  1.00  0.00     0.001 A 
HETATM   13  C   LIG     1      15.408  33.381  19.637  1.00  0.00     0.000 A 
HETATM   14  C   LIG     1      16.045  33.304  20.879  1.00  0.00     0.001 A 
HETATM   15  C   LIG     1      16.685  34.430  21.408  1.00  0.00     0.012 A 
ENDBRANCH   7  10
TORSDOF 1
ENDMDL
MODEL 15
REMARK VINA RESULT:      -4.1     16.230     17.097
REMARK  1 active torsions:
REMARK  status: ('A' for Active; 'I' for Inactive)
REMARK    1  A    between atoms: C_7  and  C_8 
ROOT
HETATM    1 CL   LIG     1      28.198  25.489  20.884  1.00  0.00    -0.083 Cl
HETATM    2  C   LIG     1      26.967  24.467  20.152  1.00  0.00     0.056 A 
HETATM    3  C   LIG     1      26.719  24.597  18.783  1.00  0.00     0.027 A 
HETATM    4  C   LIG     1      25.749  23.809  18.166  1.00  0.00     0.026 A 
HETATM    5  C   LIG     1      25.015  22.881  18.910  1.00  0.00     0.046 A 
HETATM    6 CL   LIG     1      23.826  21.888  18.069  1.00  0.00    -0.083 Cl
HETATM    7  C   LIG     1      25.253  22.737  20.293  1.00  0.00     0.019 A 
HETATM    8  C   LIG     1      26.237  23.538  20.915  1.00  0.00     0.068 A 
HETATM    9 CL   LIG     1      26.535  23.408  22.652  1.00  0.00    -0.082 Cl
ENDROOT
BRANCH   7  10
HETATM   10  C   LIG     1      24.480  21.754  21.081  1.00  0.00    -0.022 A 
HETATM   11  C   LIG     1      23.270  22.129  21.687  1.00  0.00     0.012 A 
HETATM   12  C   LIG     1      22.539  21.199  22.431  1.00  0.00     0.001 A 
HETATM   13  C   LIG     1      23.012  19.891  22.576  1.00  0.00     0.000 A 
HETATM   14  C   LIG     1      24.216  19.512  21.976  1.00  0.00     0.001 A 
HETATM   15  C   LIG     1      24.950  20.440  21.230  1.00  0.00     0.012 A 
ENDBRANCH   7  10
TORSDOF 1
ENDMDL
MODEL 16
REMARK VINA RESULT:      -4.0     16.214     16.969
REMARK  1 active torsions:
REMARK  status: ('A' for Active; 'I' for Inactive)
REMARK    1  A    between atoms: C_7  and  C_8 
ROOT
HETATM    1 CL   LIG     1      22.853  20.494  26.177  1.00  0.00    -0.083 Cl
HETATM    2  C   LIG     1      23.725  21.294  24.875  1.00  0.00     0.056 A 
HETATM    3  C   LIG     1      24.688  22.250  25.205  1.00  0.00     0.027 A 
HETATM    4  C   LIG     1      25.398  22.909  24.202  1.00  0.00     0.026 A 
HETATM    5  C   LIG     1      25.152  22.622  22.857  1.00  0.00     0.046 A 
HETATM    6 CL   LIG     1      26.104  23.462  21.634  1.00  0.00    -0.083 Cl
HETATM    7  C   LIG     1      24.182  21.658  22.506  1.00  0.00     0.019 A 
HETATM    8  C   LIG     1      23.465  20.993  23.525  1.00  0.00     0.068 A 
HETATM    9 CL   LIG     1      22.219  19.807  23.120  1.00  0.00    -0.082 Cl
ENDROOT
BRANCH   7  10
HETATM   10  C   LIG     1      23.923  21.349  21.084  1.00  0.00    -0.022 A 
HETATM   11  C   LIG     1      24.594  20.286  20.458  1.00  0.00     0.012 A 
HETATM   12  C   LIG     1      24.347  19.994  19.114  1.00  0.00     0.001 A 
HETATM   13  C   LIG     1      23.431  20.761  18.387  1.00  0.00     0.000 A 
HETATM   14  C   LIG     1      22.761  21.821  19.004  1.00  0.00     0.001 A 
HETATM   15  C   LIG     1      23.005  22.116  20.350  1.00  0.00     0.012 A 
ENDBRANCH   7  10
TORSDOF 1
ENDMDL
MODEL 17
REMARK VINA RESULT:      -4.0     15.698     16.713
REMARK  1 active torsions:
REMARK  status: ('A' for Active; 'I' for Inactive)
REMARK    1  A    between atoms: C_7  and  C_8 
ROOT
HETATM    1 CL   LIG     1      22.437  20.703  22.655  1.00  0.00    -0.083 Cl
HETATM    2  C   LIG     1      23.913  21.661  22.642  1.00  0.00     0.056 A 
HETATM    3  C   LIG     1      24.585  21.869  23.848  1.00  0.00     0.027 A 
HETATM    4  C   LIG     1      25.756  22.626  23.880  1.00  0.00     0.026 A 
HETATM    5  C   LIG     1      26.269  23.183  22.706  1.00  0.00     0.046 A 
HETATM    6 CL   LIG     1      27.770  24.100  22.802  1.00  0.00    -0.083 Cl
HETATM    7  C   LIG     1      25.602  22.982  21.479  1.00  0.00     0.019 A 
HETATM    8  C   LIG     1      24.416  22.215  21.450  1.00  0.00     0.068 A 
HETATM    9 CL   LIG     1      23.537  21.974  19.936  1.00  0.00    -0.082 Cl
ENDROOT
BRANCH   7  10
HETATM   10  C   LIG     1      26.144  23.567  20.234  1.00  0.00    -0.022 A 
HETATM   11  C   LIG     1      25.811  24.882  19.868  1.00  0.00     0.012 A 
HETATM   12  C   LIG     1      26.325  25.435  18.692  1.00  0.00     0.001 A 
HETATM   13  C   LIG     1      27.173  24.681  17.875  1.00  0.00     0.000 A 
HETATM   14  C   LIG     1      27.508  23.372  18.234  1.00  0.00     0.001 A 
HETATM   15  C   LIG     1      26.996  22.815  19.411  1.00  0.00     0.012 A 
ENDBRANCH   7  10
TORSDOF 1
ENDMDL
MODEL 18
REMARK VINA RESULT:      -4.0     16.051     17.403
REMARK  1 active torsions:
REMARK  status: ('A' for Active; 'I' for Inactive)
REMARK    1  A    between atoms: C_7  and  C_8 
ROOT
HETATM    1 CL   LIG     1      29.003  26.621  18.949  1.00  0.00    -0.083 Cl
HETATM    2  C   LIG     1      28.551  24.943  19.222  1.00  0.00     0.056 A 
HETATM    3  C   LIG     1      29.564  24.002  19.417  1.00  0.00     0.027 A 
HETATM    4  C   LIG     1      29.246  22.661  19.632  1.00  0.00     0.026 A 
HETATM    5  C   LIG     1      27.913  22.246  19.656  1.00  0.00     0.046 A 
HETATM    6 CL   LIG     1      27.572  20.545  19.967  1.00  0.00    -0.083 Cl
HETATM    7  C   LIG     1      26.877  23.184  19.462  1.00  0.00     0.019 A 
HETATM    8  C   LIG     1      27.202  24.542  19.243  1.00  0.00     0.068 A 
HETATM    9 CL   LIG     1      25.931  25.736  18.960  1.00  0.00    -0.082 Cl
ENDROOT
BRANCH   7  10
HETATM   10  C   LIG     1      25.465  22.748  19.489  1.00  0.00    -0.022 A 
HETATM   11  C   LIG     1      24.833  22.326  18.308  1.00  0.00     0.012 A 
HETATM   12  C   LIG     1      23.497  21.912  18.336  1.00  0.00     0.001 A 
HETATM   13  C   LIG     1      22.787  21.919  19.540  1.00  0.00     0.000 A 
HETATM   14  C   LIG     1      23.410  22.338  20.718  1.00  0.00     0.001 A 
HETATM   15  C   LIG     1      24.747  22.752  20.695  1.00  0.00     0.012 A 
ENDBRANCH   7  10
TORSDOF 1
ENDMDL
MODEL 19
REMARK VINA RESULT:      -3.8     15.901     17.040
REMARK  1 active torsions:
REMARK  status: ('A' for Active; 'I' for Inactive)
REMARK    1  A    between atoms: C_7  and  C_8 
ROOT
HETATM    1 CL   LIG     1      21.633  19.372  26.599  1.00  0.00    -0.083 Cl
HETATM    2  C   LIG     1      22.844  20.557  26.124  1.00  0.00     0.056 A 
HETATM    3  C   LIG     1      23.435  21.343  27.116  1.00  0.00     0.027 A 
HETATM    4  C   LIG     1      24.395  22.296  26.779  1.00  0.00     0.026 A 
HETATM    5  C   LIG     1      24.776  22.475  25.447  1.00  0.00     0.046 A 
HETATM    6 CL   LIG     1      26.019  23.671  25.086  1.00  0.00    -0.083 Cl
HETATM    7  C   LIG     1      24.189  21.689  24.433  1.00  0.00     0.019 A 
HETATM    8  C   LIG     1      23.216  20.725  24.777  1.00  0.00     0.068 A 
HETATM    9 CL   LIG     1      22.435  19.749  23.528  1.00  0.00    -0.082 Cl
ENDROOT
BRANCH   7  10
HETATM   10  C   LIG     1      24.592  21.874  23.022  1.00  0.00    -0.022 A 
HETATM   11  C   LIG     1      23.925  22.808  22.213  1.00  0.00     0.012 A 
HETATM   12  C   LIG     1      24.308  22.983  20.880  1.00  0.00     0.001 A 
HETATM   13  C   LIG     1      25.357  22.228  20.348  1.00  0.00     0.000 A 
HETATM   14  C   LIG     1      26.025  21.296  21.148  1.00  0.00     0.001 A 
HETATM   15  C   LIG     1      25.645  21.119  22.483  1.00  0.00     0.012 A 
ENDBRANCH   7  10
TORSDOF 1
ENDMDL
MODEL 20
REMARK VINA RESULT:      -3.8     15.808     16.877
REMARK  1 active torsions:
REMARK  status: ('A' for Active; 'I' for Inactive)
REMARK    1  A    between atoms: C_7  and  C_8 
ROOT
HETATM    1 CL   LIG     1      23.225  21.579  20.173  1.00  0.00    -0.083 Cl
HETATM    2  C   LIG     1      24.661  22.404  20.768  1.00  0.00     0.056 A 
HETATM    3  C   LIG     1      24.998  22.271  22.117  1.00  0.00     0.027 A 
HETATM    4  C   LIG     1      26.126  22.912  22.627  1.00  0.00     0.026 A 
HETATM    5  C   LIG     1      26.930  23.695  21.795  1.00  0.00     0.046 A 
HETATM    6 CL   LIG     1      28.362  24.453  22.489  1.00  0.00    -0.083 Cl
HETATM    7  C   LIG     1      26.604  23.840  20.430  1.00  0.00     0.019 A 
HETATM    8  C   LIG     1      25.461  23.189  19.916  1.00  0.00     0.068 A 
HETATM    9 CL   LIG     1      25.005  23.379  18.220  1.00  0.00    -0.082 Cl
ENDROOT
BRANCH   7  10
HETATM   10  C   LIG     1      27.456  24.665  19.547  1.00  0.00    -0.022 A 
HETATM   11  C   LIG     1      27.253  26.052  19.464  1.00  0.00     0.012 A 
HETATM   12  C   LIG     1      28.059  26.831  18.629  1.00  0.00     0.001 A 
HETATM   13  C   LIG     1      29.071  26.231  17.874  1.00  0.00     0.000 A 
HETATM   14  C   LIG     1      29.278  24.851  17.952  1.00  0.00     0.001 A 
HETATM   15  C   LIG     1      28.474  24.068  18.787  1.00  0.00     0.012 A 
ENDBRANCH   7  10
TORSDOF 1
ENDMDL
