REMARK  0 active torsions:
REMARK  status: ('A' for Active; 'I' for Inactive)
ROOT
HETATM    1 BR   LIG     1       1.895  -0.370  -0.092  1.00  0.00    -0.047 Br
HETATM    2  C   LIG     1       0.000   0.000   0.000  1.00  0.00     0.190 C 
HETATM    3 BR   LIG     1      -0.322   1.841  -0.496  1.00  0.00    -0.047 Br
HETATM    4 BR   LIG     1      -0.629  -0.301   1.803  1.00  0.00    -0.047 Br
HETATM    5 BR   LIG     1      -0.945  -1.170  -1.216  1.00  0.00    -0.047 Br
ENDROOT
TORSDOF 0
