MODEL 1
REMARK VINA RESULT:      -3.1      0.000      0.000
REMARK  0 active torsions:
REMARK  status: ('A' for Active; 'I' for Inactive)
ROOT
HETATM    1 BR   LIG     1      17.110  35.197  23.425  1.00  0.00    -0.047 Br
HETATM    2  C   LIG     1      16.513  36.373  22.013  1.00  0.00     0.190 C 
HETATM    3 BR   LIG     1      16.163  38.130  22.741  1.00  0.00    -0.047 Br
HETATM    4 BR   LIG     1      14.894  35.667  21.227  1.00  0.00    -0.047 Br
HETATM    5 BR   LIG     1      17.885  36.499  20.656  1.00  0.00    -0.047 Br
ENDROOT
TORSDOF 0
ENDMDL
MODEL 2
REMARK VINA RESULT:      -3.1      0.036      2.449
REMARK  0 active torsions:
REMARK  status: ('A' for Active; 'I' for Inactive)
ROOT
HETATM    1 BR   LIG     1      14.907  35.627  21.202  1.00  0.00    -0.047 Br
HETATM    2  C   LIG     1      16.502  36.362  22.009  1.00  0.00     0.190 C 
HETATM    3 BR   LIG     1      16.110  38.111  22.735  1.00  0.00    -0.047 Br
HETATM    4 BR   LIG     1      17.889  36.517  20.671  1.00  0.00    -0.047 Br
HETATM    5 BR   LIG     1      17.103  35.194  23.428  1.00  0.00    -0.047 Br
ENDROOT
TORSDOF 0
ENDMDL
MODEL 3
REMARK VINA RESULT:      -3.1      0.068      2.436
REMARK  0 active torsions:
REMARK  status: ('A' for Active; 'I' for Inactive)
ROOT
HETATM    1 BR   LIG     1      16.059  38.093  22.756  1.00  0.00    -0.047 Br
HETATM    2  C   LIG     1      16.487  36.357  22.021  1.00  0.00     0.190 C 
HETATM    3 BR   LIG     1      17.880  36.545  20.694  1.00  0.00    -0.047 Br
HETATM    4 BR   LIG     1      14.910  35.599  21.198  1.00  0.00    -0.047 Br
HETATM    5 BR   LIG     1      17.098  35.191  23.437  1.00  0.00    -0.047 Br
ENDROOT
TORSDOF 0
ENDMDL
MODEL 4
REMARK VINA RESULT:      -3.1      0.040      2.453
REMARK  0 active torsions:
REMARK  status: ('A' for Active; 'I' for Inactive)
ROOT
HETATM    1 BR   LIG     1      16.109  38.101  22.741  1.00  0.00    -0.047 Br
HETATM    2  C   LIG     1      16.502  36.356  22.008  1.00  0.00     0.190 C 
HETATM    3 BR   LIG     1      14.906  35.621  21.200  1.00  0.00    -0.047 Br
HETATM    4 BR   LIG     1      17.106  35.184  23.421  1.00  0.00    -0.047 Br
HETATM    5 BR   LIG     1      17.887  36.517  20.668  1.00  0.00    -0.047 Br
ENDROOT
TORSDOF 0
ENDMDL
MODEL 5
REMARK VINA RESULT:      -3.1      0.036      2.824
REMARK  0 active torsions:
REMARK  status: ('A' for Active; 'I' for Inactive)
ROOT
HETATM    1 BR   LIG     1      14.911  35.628  21.199  1.00  0.00    -0.047 Br
HETATM    2  C   LIG     1      16.507  36.362  22.007  1.00  0.00     0.190 C 
HETATM    3 BR   LIG     1      17.892  36.523  20.668  1.00  0.00    -0.047 Br
HETATM    4 BR   LIG     1      17.110  35.191  23.422  1.00  0.00    -0.047 Br
HETATM    5 BR   LIG     1      16.113  38.108  22.740  1.00  0.00    -0.047 Br
ENDROOT
TORSDOF 0
ENDMDL
MODEL 6
REMARK VINA RESULT:      -3.1      0.002      2.446
REMARK  0 active torsions:
REMARK  status: ('A' for Active; 'I' for Inactive)
ROOT
HETATM    1 BR   LIG     1      17.111  35.196  23.424  1.00  0.00    -0.047 Br
HETATM    2  C   LIG     1      16.513  36.372  22.011  1.00  0.00     0.190 C 
HETATM    3 BR   LIG     1      14.893  35.665  21.227  1.00  0.00    -0.047 Br
HETATM    4 BR   LIG     1      17.884  36.499  20.654  1.00  0.00    -0.047 Br
HETATM    5 BR   LIG     1      16.163  38.129  22.740  1.00  0.00    -0.047 Br
ENDROOT
TORSDOF 0
ENDMDL
MODEL 7
REMARK VINA RESULT:      -2.9     10.384     11.705
REMARK  0 active torsions:
REMARK  status: ('A' for Active; 'I' for Inactive)
ROOT
HETATM    1 BR   LIG     1      18.290  33.544  12.652  1.00  0.00    -0.047 Br
HETATM    2  C   LIG     1      19.798  33.750  11.460  1.00  0.00     0.190 C 
HETATM    3 BR   LIG     1      20.184  32.057  10.610  1.00  0.00    -0.047 Br
HETATM    4 BR   LIG     1      21.341  34.332  12.469  1.00  0.00    -0.047 Br
HETATM    5 BR   LIG     1      19.377  35.069  10.109  1.00  0.00    -0.047 Br
ENDROOT
TORSDOF 0
ENDMDL
MODEL 8
REMARK VINA RESULT:      -2.9     10.464     11.754
REMARK  0 active torsions:
REMARK  status: ('A' for Active; 'I' for Inactive)
ROOT
HETATM    1 BR   LIG     1      20.506  32.128  10.647  1.00  0.00    -0.047 Br
HETATM    2  C   LIG     1      20.015  33.813  11.457  1.00  0.00     0.190 C 
HETATM    3 BR   LIG     1      19.598  35.097  10.073  1.00  0.00    -0.047 Br
HETATM    4 BR   LIG     1      21.489  34.469  12.522  1.00  0.00    -0.047 Br
HETATM    5 BR   LIG     1      18.467  33.557  12.588  1.00  0.00    -0.047 Br
ENDROOT
TORSDOF 0
ENDMDL
MODEL 9
REMARK VINA RESULT:      -2.9     10.469     11.612
REMARK  0 active torsions:
REMARK  status: ('A' for Active; 'I' for Inactive)
ROOT
HETATM    1 BR   LIG     1      20.547  32.132  10.662  1.00  0.00    -0.047 Br
HETATM    2  C   LIG     1      20.042  33.818  11.462  1.00  0.00     0.190 C 
HETATM    3 BR   LIG     1      18.491  33.558  12.587  1.00  0.00    -0.047 Br
HETATM    4 BR   LIG     1      19.623  35.093  10.071  1.00  0.00    -0.047 Br
HETATM    5 BR   LIG     1      21.508  34.488  12.531  1.00  0.00    -0.047 Br
ENDROOT
TORSDOF 0
ENDMDL
MODEL 10
REMARK VINA RESULT:      -2.9     10.432     11.562
REMARK  0 active torsions:
REMARK  status: ('A' for Active; 'I' for Inactive)
ROOT
HETATM    1 BR   LIG     1      21.492  34.452  12.530  1.00  0.00    -0.047 Br
HETATM    2  C   LIG     1      20.003  33.805  11.479  1.00  0.00     0.190 C 
HETATM    3 BR   LIG     1      18.465  33.559  12.624  1.00  0.00    -0.047 Br
HETATM    4 BR   LIG     1      20.476  32.118  10.662  1.00  0.00    -0.047 Br
HETATM    5 BR   LIG     1      19.580  35.094  10.100  1.00  0.00    -0.047 Br
ENDROOT
TORSDOF 0
ENDMDL
MODEL 11
REMARK VINA RESULT:      -2.9     10.451     11.561
REMARK  0 active torsions:
REMARK  status: ('A' for Active; 'I' for Inactive)
ROOT
HETATM    1 BR   LIG     1      20.534  32.129  10.677  1.00  0.00    -0.047 Br
HETATM    2  C   LIG     1      20.036  33.819  11.473  1.00  0.00     0.190 C 
HETATM    3 BR   LIG     1      21.508  34.490  12.532  1.00  0.00    -0.047 Br
HETATM    4 BR   LIG     1      18.490  33.568  12.605  1.00  0.00    -0.047 Br
HETATM    5 BR   LIG     1      19.614  35.089  10.077  1.00  0.00    -0.047 Br
ENDROOT
TORSDOF 0
ENDMDL
MODEL 12
REMARK VINA RESULT:      -2.9     10.442     11.758
REMARK  0 active torsions:
REMARK  status: ('A' for Active; 'I' for Inactive)
ROOT
HETATM    1 BR   LIG     1      19.609  35.093  10.040  1.00  0.00    -0.047 Br
HETATM    2  C   LIG     1      19.980  33.815  11.442  1.00  0.00     0.190 C 
HETATM    3 BR   LIG     1      21.488  34.425  12.487  1.00  0.00    -0.047 Br
HETATM    4 BR   LIG     1      20.393  32.098  10.657  1.00  0.00    -0.047 Br
HETATM    5 BR   LIG     1      18.430  33.645  12.586  1.00  0.00    -0.047 Br
ENDROOT
TORSDOF 0
ENDMDL
MODEL 13
REMARK VINA RESULT:      -2.9     10.491     11.779
REMARK  0 active torsions:
REMARK  status: ('A' for Active; 'I' for Inactive)
ROOT
HETATM    1 BR   LIG     1      19.647  35.078  10.032  1.00  0.00    -0.047 Br
HETATM    2  C   LIG     1      19.990  33.786  11.428  1.00  0.00     0.190 C 
HETATM    3 BR   LIG     1      18.415  33.599  12.535  1.00  0.00    -0.047 Br
HETATM    4 BR   LIG     1      21.472  34.388  12.513  1.00  0.00    -0.047 Br
HETATM    5 BR   LIG     1      20.425  32.078  10.632  1.00  0.00    -0.047 Br
ENDROOT
TORSDOF 0
ENDMDL
MODEL 14
REMARK VINA RESULT:      -2.7      1.758      2.804
REMARK  0 active torsions:
REMARK  status: ('A' for Active; 'I' for Inactive)
ROOT
HETATM    1 BR   LIG     1      17.189  35.390  22.275  1.00  0.00    -0.047 Br
HETATM    2  C   LIG     1      17.019  37.222  22.867  1.00  0.00     0.190 C 
HETATM    3 BR   LIG     1      15.170  37.772  22.738  1.00  0.00    -0.047 Br
HETATM    4 BR   LIG     1      18.110  38.364  21.753  1.00  0.00    -0.047 Br
HETATM    5 BR   LIG     1      17.606  37.363  24.705  1.00  0.00    -0.047 Br
ENDROOT
TORSDOF 0
ENDMDL
MODEL 15
REMARK VINA RESULT:      -2.7      1.689      2.885
REMARK  0 active torsions:
REMARK  status: ('A' for Active; 'I' for Inactive)
ROOT
HETATM    1 BR   LIG     1      15.215  37.884  22.796  1.00  0.00    -0.047 Br
HETATM    2  C   LIG     1      17.045  37.265  22.867  1.00  0.00     0.190 C 
HETATM    3 BR   LIG     1      18.109  38.251  21.589  1.00  0.00    -0.047 Br
HETATM    4 BR   LIG     1      17.105  35.381  22.439  1.00  0.00    -0.047 Br
HETATM    5 BR   LIG     1      17.751  37.544  24.646  1.00  0.00    -0.047 Br
ENDROOT
TORSDOF 0
ENDMDL
MODEL 16
REMARK VINA RESULT:      -2.7      1.719      2.032
REMARK  0 active torsions:
REMARK  status: ('A' for Active; 'I' for Inactive)
ROOT
HETATM    1 BR   LIG     1      17.680  37.466  24.687  1.00  0.00    -0.047 Br
HETATM    2  C   LIG     1      17.029  37.245  22.880  1.00  0.00     0.190 C 
HETATM    3 BR   LIG     1      15.191  37.835  22.780  1.00  0.00    -0.047 Br
HETATM    4 BR   LIG     1      17.136  35.380  22.381  1.00  0.00    -0.047 Br
HETATM    5 BR   LIG     1      18.111  38.298  21.671  1.00  0.00    -0.047 Br
ENDROOT
TORSDOF 0
ENDMDL
MODEL 17
REMARK VINA RESULT:      -2.7      1.744      2.046
REMARK  0 active torsions:
REMARK  status: ('A' for Active; 'I' for Inactive)
ROOT
HETATM    1 BR   LIG     1      17.168  35.352  22.316  1.00  0.00    -0.047 Br
HETATM    2  C   LIG     1      17.010  37.190  22.892  1.00  0.00     0.190 C 
HETATM    3 BR   LIG     1      17.617  37.348  24.721  1.00  0.00    -0.047 Br
HETATM    4 BR   LIG     1      15.162  37.745  22.775  1.00  0.00    -0.047 Br
HETATM    5 BR   LIG     1      18.094  38.317  21.754  1.00  0.00    -0.047 Br
ENDROOT
TORSDOF 0
ENDMDL
MODEL 18
REMARK VINA RESULT:      -2.7      1.756      2.905
REMARK  0 active torsions:
REMARK  status: ('A' for Active; 'I' for Inactive)
ROOT
HETATM    1 BR   LIG     1      18.128  38.373  21.857  1.00  0.00    -0.047 Br
HETATM    2  C   LIG     1      17.011  37.216  22.929  1.00  0.00     0.190 C 
HETATM    3 BR   LIG     1      17.575  37.307  24.776  1.00  0.00    -0.047 Br
HETATM    4 BR   LIG     1      17.170  35.397  22.295  1.00  0.00    -0.047 Br
HETATM    5 BR   LIG     1      15.169  37.789  22.789  1.00  0.00    -0.047 Br
ENDROOT
TORSDOF 0
ENDMDL
MODEL 19
REMARK VINA RESULT:      -2.7      1.772      3.130
REMARK  0 active torsions:
REMARK  status: ('A' for Active; 'I' for Inactive)
ROOT
HETATM    1 BR   LIG     1      18.161  38.433  21.682  1.00  0.00    -0.047 Br
HETATM    2  C   LIG     1      17.066  37.316  22.817  1.00  0.00     0.190 C 
HETATM    3 BR   LIG     1      17.158  35.485  22.201  1.00  0.00    -0.047 Br
HETATM    4 BR   LIG     1      15.233  37.926  22.747  1.00  0.00    -0.047 Br
HETATM    5 BR   LIG     1      17.710  37.417  24.637  1.00  0.00    -0.047 Br
ENDROOT
TORSDOF 0
ENDMDL
MODEL 20
REMARK VINA RESULT:      -2.7      1.736      2.925
REMARK  0 active torsions:
REMARK  status: ('A' for Active; 'I' for Inactive)
ROOT
HETATM    1 BR   LIG     1      18.068  38.418  21.882  1.00  0.00    -0.047 Br
HETATM    2  C   LIG     1      16.984  37.197  22.915  1.00  0.00     0.190 C 
HETATM    3 BR   LIG     1      15.127  37.724  22.795  1.00  0.00    -0.047 Br
HETATM    4 BR   LIG     1      17.547  37.239  24.764  1.00  0.00    -0.047 Br
HETATM    5 BR   LIG     1      17.191  35.404  22.220  1.00  0.00    -0.047 Br
ENDROOT
TORSDOF 0
ENDMDL
