REMARK  5 active torsions:
REMARK  status: ('A' for Active; 'I' for Inactive)
REMARK    1  A    between atoms: C_2  and  C_3 
REMARK    2  A    between atoms: C_3  and  C_6 
REMARK    3  A    between atoms: C_3  and  O_5 
REMARK    4  A    between atoms: C_6  and  C_7 
REMARK    5  A    between atoms: C_7  and  C_8 
ROOT
HETATM    1  C   LIG     1      -1.113  -0.623  -0.350  1.00  0.00     0.054 C 
HETATM    2  C   LIG     1      -0.841  -2.134  -0.209  1.00  0.00     0.045 C 
ENDROOT
BRANCH   1   3
HETATM    3  C   LIG     1      -2.542  -0.349   0.202  1.00  0.00     0.033 C 
HETATM    4  C   LIG     1      -3.029   1.097   0.060  1.00  0.00     0.008 C 
ENDBRANCH   1   3
BRANCH   1   5
HETATM    5  C   LIG     1      -0.043   0.189   0.448  1.00  0.00     0.037 C 
BRANCH   5   6
HETATM    6  C   LIG     1       1.403  -0.055  -0.021  1.00  0.00     0.002 C 
BRANCH   6   7
HETATM    7  C   LIG     1       2.374   0.914   0.665  1.00  0.00    -0.004 C 
HETATM    8  C   LIG     1       3.812   0.661   0.220  1.00  0.00     0.005 C 
ENDBRANCH   6   7
ENDBRANCH   5   6
ENDBRANCH   1   5
BRANCH   1   9
HETATM    9  O   LIG     1      -1.064  -0.312  -1.724  1.00  0.00    -0.390 OA
HETATM   10  H   LIG     1      -0.998   0.673  -1.823  1.00  0.00     0.210 HD
ENDBRANCH   1   9
TORSDOF 5
