MODEL 1
REMARK VINA RESULT:      -5.9      0.000      0.000
REMARK  5 active torsions:
REMARK  status: ('A' for Active; 'I' for Inactive)
REMARK    1  A    between atoms: C_2  and  C_3 
REMARK    2  A    between atoms: C_3  and  C_6 
REMARK    3  A    between atoms: C_3  and  O_5 
REMARK    4  A    between atoms: C_6  and  C_7 
REMARK    5  A    between atoms: C_7  and  C_8 
ROOT
HETATM    1  C   LIG     1      16.618  37.744  23.534  1.00  0.00     0.054 C 
HETATM    2  C   LIG     1      17.489  38.705  22.701  1.00  0.00     0.045 C 
ENDROOT
BRANCH   1   3
HETATM    3  C   LIG     1      16.852  36.305  22.990  1.00  0.00     0.033 C 
HETATM    4  C   LIG     1      17.197  36.221  21.499  1.00  0.00     0.008 C 
ENDBRANCH   1   3
BRANCH   1   5
HETATM    5  C   LIG     1      17.012  37.839  25.043  1.00  0.00     0.037 C 
BRANCH   5   6
HETATM    6  C   LIG     1      18.400  37.256  25.364  1.00  0.00     0.002 C 
BRANCH   6   7
HETATM    7  C   LIG     1      18.345  36.358  26.606  1.00  0.00    -0.004 C 
HETATM    8  C   LIG     1      18.089  34.903  26.224  1.00  0.00     0.005 C 
ENDBRANCH   6   7
ENDBRANCH   5   6
ENDBRANCH   1   5
BRANCH   1   9
HETATM    9  O   LIG     1      15.273  38.117  23.337  1.00  0.00    -0.390 OA
HETATM   10  H   LIG     1      14.983  37.796  22.444  1.00  0.00     0.210 HD
ENDBRANCH   1   9
TORSDOF 5
ENDMDL
MODEL 2
REMARK VINA RESULT:      -5.5      1.699      4.230
REMARK  5 active torsions:
REMARK  status: ('A' for Active; 'I' for Inactive)
REMARK    1  A    between atoms: C_2  and  C_3 
REMARK    2  A    between atoms: C_3  and  C_6 
REMARK    3  A    between atoms: C_3  and  O_5 
REMARK    4  A    between atoms: C_6  and  C_7 
REMARK    5  A    between atoms: C_7  and  C_8 
ROOT
HETATM    1  C   LIG     1      16.717  37.908  23.387  1.00  0.00     0.054 C 
HETATM    2  C   LIG     1      16.905  36.475  22.849  1.00  0.00     0.045 C 
ENDROOT
BRANCH   1   3
HETATM    3  C   LIG     1      17.642  38.070  24.628  1.00  0.00     0.033 C 
HETATM    4  C   LIG     1      17.704  36.853  25.557  1.00  0.00     0.008 C 
ENDBRANCH   1   3
BRANCH   1   5
HETATM    5  C   LIG     1      17.085  38.946  22.279  1.00  0.00     0.037 C 
BRANCH   5   6
HETATM    6  C   LIG     1      18.569  38.926  21.872  1.00  0.00     0.002 C 
BRANCH   6   7
HETATM    7  C   LIG     1      18.749  39.396  20.424  1.00  0.00    -0.004 C 
HETATM    8  C   LIG     1      20.043  38.852  19.824  1.00  0.00     0.005 C 
ENDBRANCH   6   7
ENDBRANCH   5   6
ENDBRANCH   1   5
BRANCH   1   9
HETATM    9  O   LIG     1      15.368  38.038  23.776  1.00  0.00    -0.390 OA
HETATM   10  H   LIG     1      15.314  38.706  24.507  1.00  0.00     0.210 HD
ENDBRANCH   1   9
TORSDOF 5
ENDMDL
MODEL 3
REMARK VINA RESULT:      -5.2      1.413      2.088
REMARK  5 active torsions:
REMARK  status: ('A' for Active; 'I' for Inactive)
REMARK    1  A    between atoms: C_2  and  C_3 
REMARK    2  A    between atoms: C_3  and  C_6 
REMARK    3  A    between atoms: C_3  and  O_5 
REMARK    4  A    between atoms: C_6  and  C_7 
REMARK    5  A    between atoms: C_7  and  C_8 
ROOT
HETATM    1  C   LIG     1      16.957  37.352  23.073  1.00  0.00     0.054 C 
HETATM    2  C   LIG     1      15.488  37.767  22.859  1.00  0.00     0.045 C 
ENDROOT
BRANCH   1   3
HETATM    3  C   LIG     1      17.844  38.597  22.780  1.00  0.00     0.033 C 
HETATM    4  C   LIG     1      18.163  38.836  21.300  1.00  0.00     0.008 C 
ENDBRANCH   1   3
BRANCH   1   5
HETATM    5  C   LIG     1      17.163  36.855  24.539  1.00  0.00     0.037 C 
BRANCH   5   6
HETATM    6  C   LIG     1      17.293  35.326  24.667  1.00  0.00     0.002 C 
BRANCH   6   7
HETATM    7  C   LIG     1      17.816  34.933  26.054  1.00  0.00    -0.004 C 
HETATM    8  C   LIG     1      18.411  36.136  26.780  1.00  0.00     0.005 C 
ENDBRANCH   6   7
ENDBRANCH   5   6
ENDBRANCH   1   5
BRANCH   1   9
HETATM    9  O   LIG     1      17.246  36.331  22.145  1.00  0.00    -0.390 OA
HETATM   10  H   LIG     1      18.162  36.474  21.792  1.00  0.00     0.210 HD
ENDBRANCH   1   9
TORSDOF 5
ENDMDL
MODEL 4
REMARK VINA RESULT:      -5.1      1.641      3.879
REMARK  5 active torsions:
REMARK  status: ('A' for Active; 'I' for Inactive)
REMARK    1  A    between atoms: C_2  and  C_3 
REMARK    2  A    between atoms: C_3  and  C_6 
REMARK    3  A    between atoms: C_3  and  O_5 
REMARK    4  A    between atoms: C_6  and  C_7 
REMARK    5  A    between atoms: C_7  and  C_8 
ROOT
HETATM    1  C   LIG     1      16.459  37.841  23.320  1.00  0.00     0.054 C 
HETATM    2  C   LIG     1      17.200  37.881  24.672  1.00  0.00     0.045 C 
ENDROOT
BRANCH   1   3
HETATM    3  C   LIG     1      16.993  39.020  22.456  1.00  0.00     0.033 C 
HETATM    4  C   LIG     1      18.255  38.713  21.643  1.00  0.00     0.008 C 
ENDBRANCH   1   3
BRANCH   1   5
HETATM    5  C   LIG     1      16.715  36.472  22.612  1.00  0.00     0.037 C 
BRANCH   5   6
HETATM    6  C   LIG     1      15.582  36.039  21.664  1.00  0.00     0.002 C 
BRANCH   6   7
HETATM    7  C   LIG     1      16.139  35.282  20.451  1.00  0.00    -0.004 C 
HETATM    8  C   LIG     1      15.647  33.838  20.429  1.00  0.00     0.005 C 
ENDBRANCH   6   7
ENDBRANCH   5   6
ENDBRANCH   1   5
BRANCH   1   9
HETATM    9  O   LIG     1      15.087  38.026  23.585  1.00  0.00    -0.390 OA
HETATM   10  H   LIG     1      14.937  38.976  23.827  1.00  0.00     0.210 HD
ENDBRANCH   1   9
TORSDOF 5
ENDMDL
MODEL 5
REMARK VINA RESULT:      -5.0      3.865      5.113
REMARK  5 active torsions:
REMARK  status: ('A' for Active; 'I' for Inactive)
REMARK    1  A    between atoms: C_2  and  C_3 
REMARK    2  A    between atoms: C_3  and  C_6 
REMARK    3  A    between atoms: C_3  and  O_5 
REMARK    4  A    between atoms: C_6  and  C_7 
REMARK    5  A    between atoms: C_7  and  C_8 
ROOT
HETATM    1  C   LIG     1      19.520  38.859  19.533  1.00  0.00     0.054 C 
HETATM    2  C   LIG     1      19.481  37.319  19.465  1.00  0.00     0.045 C 
ENDROOT
BRANCH   1   3
HETATM    3  C   LIG     1      18.445  39.401  18.548  1.00  0.00     0.033 C 
HETATM    4  C   LIG     1      18.882  39.471  17.081  1.00  0.00     0.008 C 
ENDBRANCH   1   3
BRANCH   1   5
HETATM    5  C   LIG     1      19.228  39.336  20.992  1.00  0.00     0.037 C 
BRANCH   5   6
HETATM    6  C   LIG     1      17.806  39.009  21.483  1.00  0.00     0.002 C 
BRANCH   6   7
HETATM    7  C   LIG     1      17.831  38.473  22.920  1.00  0.00    -0.004 C 
HETATM    8  C   LIG     1      16.638  37.560  23.189  1.00  0.00     0.005 C 
ENDBRANCH   6   7
ENDBRANCH   5   6
ENDBRANCH   1   5
BRANCH   1   9
HETATM    9  O   LIG     1      20.802  39.267  19.113  1.00  0.00    -0.390 OA
HETATM   10  H   LIG     1      20.825  40.259  19.086  1.00  0.00     0.210 HD
ENDBRANCH   1   9
TORSDOF 5
ENDMDL
MODEL 6
REMARK VINA RESULT:      -5.0      4.313      5.577
REMARK  5 active torsions:
REMARK  status: ('A' for Active; 'I' for Inactive)
REMARK    1  A    between atoms: C_2  and  C_3 
REMARK    2  A    between atoms: C_3  and  C_6 
REMARK    3  A    between atoms: C_3  and  O_5 
REMARK    4  A    between atoms: C_6  and  C_7 
REMARK    5  A    between atoms: C_7  and  C_8 
ROOT
HETATM    1  C   LIG     1      19.502  38.829  19.270  1.00  0.00     0.054 C 
HETATM    2  C   LIG     1      18.812  39.069  17.912  1.00  0.00     0.045 C 
ENDROOT
BRANCH   1   3
HETATM    3  C   LIG     1      18.707  39.623  20.347  1.00  0.00     0.033 C 
HETATM    4  C   LIG     1      18.996  39.221  21.797  1.00  0.00     0.008 C 
ENDBRANCH   1   3
BRANCH   1   5
HETATM    5  C   LIG     1      19.515  37.302  19.600  1.00  0.00     0.037 C 
BRANCH   5   6
HETATM    6  C   LIG     1      18.159  36.605  19.383  1.00  0.00     0.002 C 
BRANCH   6   7
HETATM    7  C   LIG     1      17.567  36.129  20.715  1.00  0.00    -0.004 C 
HETATM    8  C   LIG     1      16.276  35.345  20.495  1.00  0.00     0.005 C 
ENDBRANCH   6   7
ENDBRANCH   5   6
ENDBRANCH   1   5
BRANCH   1   9
HETATM    9  O   LIG     1      20.813  39.338  19.173  1.00  0.00    -0.390 OA
HETATM   10  H   LIG     1      21.404  38.622  18.823  1.00  0.00     0.210 HD
ENDBRANCH   1   9
TORSDOF 5
ENDMDL
MODEL 7
REMARK VINA RESULT:      -4.9      1.782      4.184
REMARK  5 active torsions:
REMARK  status: ('A' for Active; 'I' for Inactive)
REMARK    1  A    between atoms: C_2  and  C_3 
REMARK    2  A    between atoms: C_3  and  C_6 
REMARK    3  A    between atoms: C_3  and  O_5 
REMARK    4  A    between atoms: C_6  and  C_7 
REMARK    5  A    between atoms: C_7  and  C_8 
ROOT
HETATM    1  C   LIG     1      16.393  37.323  22.680  1.00  0.00     0.054 C 
HETATM    2  C   LIG     1      15.768  36.143  21.908  1.00  0.00     0.045 C 
ENDROOT
BRANCH   1   3
HETATM    3  C   LIG     1      17.036  36.749  23.975  1.00  0.00     0.033 C 
HETATM    4  C   LIG     1      17.134  35.221  24.033  1.00  0.00     0.008 C 
ENDBRANCH   1   3
BRANCH   1   5
HETATM    5  C   LIG     1      17.465  38.033  21.793  1.00  0.00     0.037 C 
BRANCH   5   6
HETATM    6  C   LIG     1      18.036  37.145  20.673  1.00  0.00     0.002 C 
BRANCH   6   7
HETATM    7  C   LIG     1      19.102  37.897  19.866  1.00  0.00    -0.004 C 
HETATM    8  C   LIG     1      19.181  39.362  20.286  1.00  0.00     0.005 C 
ENDBRANCH   6   7
ENDBRANCH   5   6
ENDBRANCH   1   5
BRANCH   1   9
HETATM    9  O   LIG     1      15.347  38.206  23.017  1.00  0.00    -0.390 OA
HETATM   10  H   LIG     1      14.644  37.696  23.495  1.00  0.00     0.210 HD
ENDBRANCH   1   9
TORSDOF 5
ENDMDL
MODEL 8
REMARK VINA RESULT:      -4.9      1.769      2.548
REMARK  5 active torsions:
REMARK  status: ('A' for Active; 'I' for Inactive)
REMARK    1  A    between atoms: C_2  and  C_3 
REMARK    2  A    between atoms: C_3  and  C_6 
REMARK    3  A    between atoms: C_3  and  O_5 
REMARK    4  A    between atoms: C_6  and  C_7 
REMARK    5  A    between atoms: C_7  and  C_8 
ROOT
HETATM    1  C   LIG     1      16.528  36.374  22.139  1.00  0.00     0.054 C 
HETATM    2  C   LIG     1      17.065  35.174  22.943  1.00  0.00     0.045 C 
ENDROOT
BRANCH   1   3
HETATM    3  C   LIG     1      15.195  35.933  21.468  1.00  0.00     0.033 C 
HETATM    4  C   LIG     1      15.019  34.419  21.303  1.00  0.00     0.008 C 
ENDBRANCH   1   3
BRANCH   1   5
HETATM    5  C   LIG     1      16.296  37.593  23.089  1.00  0.00     0.037 C 
BRANCH   5   6
HETATM    6  C   LIG     1      17.547  38.010  23.884  1.00  0.00     0.002 C 
BRANCH   6   7
HETATM    7  C   LIG     1      17.307  37.876  25.393  1.00  0.00    -0.004 C 
HETATM    8  C   LIG     1      18.320  36.927  26.030  1.00  0.00     0.005 C 
ENDBRANCH   6   7
ENDBRANCH   5   6
ENDBRANCH   1   5
BRANCH   1   9
HETATM    9  O   LIG     1      17.483  36.679  21.148  1.00  0.00    -0.390 OA
HETATM   10  H   LIG     1      17.104  36.446  20.261  1.00  0.00     0.210 HD
ENDBRANCH   1   9
TORSDOF 5
ENDMDL
MODEL 9
REMARK VINA RESULT:      -4.9      2.229      4.704
REMARK  5 active torsions:
REMARK  status: ('A' for Active; 'I' for Inactive)
REMARK    1  A    between atoms: C_2  and  C_3 
REMARK    2  A    between atoms: C_3  and  C_6 
REMARK    3  A    between atoms: C_3  and  O_5 
REMARK    4  A    between atoms: C_6  and  C_7 
REMARK    5  A    between atoms: C_7  and  C_8 
ROOT
HETATM    1  C   LIG     1      16.526  36.276  21.926  1.00  0.00     0.054 C 
HETATM    2  C   LIG     1      16.930  35.211  22.965  1.00  0.00     0.045 C 
ENDROOT
BRANCH   1   3
HETATM    3  C   LIG     1      16.486  37.651  22.654  1.00  0.00     0.033 C 
HETATM    4  C   LIG     1      16.761  37.599  24.160  1.00  0.00     0.008 C 
ENDBRANCH   1   3
BRANCH   1   5
HETATM    5  C   LIG     1      17.558  36.296  20.753  1.00  0.00     0.037 C 
BRANCH   5   6
HETATM    6  C   LIG     1      18.301  37.636  20.599  1.00  0.00     0.002 C 
BRANCH   6   7
HETATM    7  C   LIG     1      19.280  37.588  19.419  1.00  0.00    -0.004 C 
HETATM    8  C   LIG     1      20.319  38.701  19.520  1.00  0.00     0.005 C 
ENDBRANCH   6   7
ENDBRANCH   5   6
ENDBRANCH   1   5
BRANCH   1   9
HETATM    9  O   LIG     1      15.237  35.944  21.462  1.00  0.00    -0.390 OA
HETATM   10  H   LIG     1      15.040  36.491  20.658  1.00  0.00     0.210 HD
ENDBRANCH   1   9
TORSDOF 5
ENDMDL
MODEL 10
REMARK VINA RESULT:      -4.6      1.388      2.204
REMARK  5 active torsions:
REMARK  status: ('A' for Active; 'I' for Inactive)
REMARK    1  A    between atoms: C_2  and  C_3 
REMARK    2  A    between atoms: C_3  and  C_6 
REMARK    3  A    between atoms: C_3  and  O_5 
REMARK    4  A    between atoms: C_6  and  C_7 
REMARK    5  A    between atoms: C_7  and  C_8 
ROOT
HETATM    1  C   LIG     1      16.719  36.532  22.731  1.00  0.00     0.054 C 
HETATM    2  C   LIG     1      16.103  35.403  21.880  1.00  0.00     0.045 C 
ENDROOT
BRANCH   1   3
HETATM    3  C   LIG     1      15.647  37.651  22.872  1.00  0.00     0.033 C 
HETATM    4  C   LIG     1      16.127  39.061  22.512  1.00  0.00     0.008 C 
ENDBRANCH   1   3
BRANCH   1   5
HETATM    5  C   LIG     1      17.134  35.979  24.132  1.00  0.00     0.037 C 
BRANCH   5   6
HETATM    6  C   LIG     1      17.622  37.064  25.110  1.00  0.00     0.002 C 
BRANCH   6   7
HETATM    7  C   LIG     1      18.321  36.436  26.322  1.00  0.00    -0.004 C 
HETATM    8  C   LIG     1      18.211  34.913  26.295  1.00  0.00     0.005 C 
ENDBRANCH   6   7
ENDBRANCH   5   6
ENDBRANCH   1   5
BRANCH   1   9
HETATM    9  O   LIG     1      17.837  37.027  22.029  1.00  0.00    -0.390 OA
HETATM   10  H   LIG     1      18.360  37.608  22.639  1.00  0.00     0.210 HD
ENDBRANCH   1   9
TORSDOF 5
ENDMDL
MODEL 11
REMARK VINA RESULT:      -4.6      3.124      4.582
REMARK  5 active torsions:
REMARK  status: ('A' for Active; 'I' for Inactive)
REMARK    1  A    between atoms: C_2  and  C_3 
REMARK    2  A    between atoms: C_3  and  C_6 
REMARK    3  A    between atoms: C_3  and  O_5 
REMARK    4  A    between atoms: C_6  and  C_7 
REMARK    5  A    between atoms: C_7  and  C_8 
ROOT
HETATM    1  C   LIG     1      15.358  34.893  20.901  1.00  0.00     0.054 C 
HETATM    2  C   LIG     1      15.724  35.128  19.422  1.00  0.00     0.045 C 
ENDROOT
BRANCH   1   3
HETATM    3  C   LIG     1      14.912  33.409  21.044  1.00  0.00     0.033 C 
HETATM    4  C   LIG     1      15.339  32.487  19.897  1.00  0.00     0.008 C 
ENDBRANCH   1   3
BRANCH   1   5
HETATM    5  C   LIG     1      16.592  35.193  21.811  1.00  0.00     0.037 C 
BRANCH   5   6
HETATM    6  C   LIG     1      17.519  36.293  21.262  1.00  0.00     0.002 C 
BRANCH   6   7
HETATM    7  C   LIG     1      17.243  37.637  21.947  1.00  0.00    -0.004 C 
HETATM    8  C   LIG     1      18.155  38.732  21.401  1.00  0.00     0.005 C 
ENDBRANCH   6   7
ENDBRANCH   5   6
ENDBRANCH   1   5
BRANCH   1   9
HETATM    9  O   LIG     1      14.281  35.747  21.210  1.00  0.00    -0.390 OA
HETATM   10  H   LIG     1      13.979  35.553  22.135  1.00  0.00     0.210 HD
ENDBRANCH   1   9
TORSDOF 5
ENDMDL
MODEL 12
REMARK VINA RESULT:      -4.6      1.761      3.868
REMARK  5 active torsions:
REMARK  status: ('A' for Active; 'I' for Inactive)
REMARK    1  A    between atoms: C_2  and  C_3 
REMARK    2  A    between atoms: C_3  and  C_6 
REMARK    3  A    between atoms: C_3  and  O_5 
REMARK    4  A    between atoms: C_6  and  C_7 
REMARK    5  A    between atoms: C_7  and  C_8 
ROOT
HETATM    1  C   LIG     1      17.243  37.870  22.818  1.00  0.00     0.054 C 
HETATM    2  C   LIG     1      16.075  38.842  22.552  1.00  0.00     0.045 C 
ENDROOT
BRANCH   1   3
HETATM    3  C   LIG     1      16.955  37.146  24.165  1.00  0.00     0.033 C 
HETATM    4  C   LIG     1      17.707  37.703  25.378  1.00  0.00     0.008 C 
ENDBRANCH   1   3
BRANCH   1   5
HETATM    5  C   LIG     1      17.360  36.842  21.647  1.00  0.00     0.037 C 
BRANCH   5   6
HETATM    6  C   LIG     1      17.146  35.380  22.078  1.00  0.00     0.002 C 
BRANCH   6   7
HETATM    7  C   LIG     1      16.042  34.717  21.244  1.00  0.00    -0.004 C 
HETATM    8  C   LIG     1      14.782  35.577  21.215  1.00  0.00     0.005 C 
ENDBRANCH   6   7
ENDBRANCH   5   6
ENDBRANCH   1   5
BRANCH   1   9
HETATM    9  O   LIG     1      18.416  38.643  22.933  1.00  0.00    -0.390 OA
HETATM   10  H   LIG     1      18.482  39.238  22.142  1.00  0.00     0.210 HD
ENDBRANCH   1   9
TORSDOF 5
ENDMDL
MODEL 13
REMARK VINA RESULT:      -4.5      2.671      4.740
REMARK  5 active torsions:
REMARK  status: ('A' for Active; 'I' for Inactive)
REMARK    1  A    between atoms: C_2  and  C_3 
REMARK    2  A    between atoms: C_3  and  C_6 
REMARK    3  A    between atoms: C_3  and  O_5 
REMARK    4  A    between atoms: C_6  and  C_7 
REMARK    5  A    between atoms: C_7  and  C_8 
ROOT
HETATM    1  C   LIG     1      16.470  36.267  22.094  1.00  0.00     0.054 C 
HETATM    2  C   LIG     1      16.133  37.473  22.993  1.00  0.00     0.045 C 
ENDROOT
BRANCH   1   3
HETATM    3  C   LIG     1      17.064  35.154  23.004  1.00  0.00     0.033 C 
HETATM    4  C   LIG     1      17.224  35.534  24.479  1.00  0.00     0.008 C 
ENDBRANCH   1   3
BRANCH   1   5
HETATM    5  C   LIG     1      15.179  35.765  21.370  1.00  0.00     0.037 C 
BRANCH   5   6
HETATM    6  C   LIG     1      15.048  34.232  21.322  1.00  0.00     0.002 C 
BRANCH   6   7
HETATM    7  C   LIG     1      15.583  33.675  19.997  1.00  0.00    -0.004 C 
HETATM    8  C   LIG     1      15.263  32.190  19.853  1.00  0.00     0.005 C 
ENDBRANCH   6   7
ENDBRANCH   5   6
ENDBRANCH   1   5
BRANCH   1   9
HETATM    9  O   LIG     1      17.439  36.692  21.163  1.00  0.00    -0.390 OA
HETATM   10  H   LIG     1      17.204  36.327  20.272  1.00  0.00     0.210 HD
ENDBRANCH   1   9
TORSDOF 5
ENDMDL
MODEL 14
REMARK VINA RESULT:      -4.5      2.172      4.213
REMARK  5 active torsions:
REMARK  status: ('A' for Active; 'I' for Inactive)
REMARK    1  A    between atoms: C_2  and  C_3 
REMARK    2  A    between atoms: C_3  and  C_6 
REMARK    3  A    between atoms: C_3  and  O_5 
REMARK    4  A    between atoms: C_6  and  C_7 
REMARK    5  A    between atoms: C_7  and  C_8 
ROOT
HETATM    1  C   LIG     1      16.977  37.562  23.309  1.00  0.00     0.054 C 
HETATM    2  C   LIG     1      16.958  37.823  24.828  1.00  0.00     0.045 C 
ENDROOT
BRANCH   1   3
HETATM    3  C   LIG     1      15.519  37.709  22.787  1.00  0.00     0.033 C 
HETATM    4  C   LIG     1      15.011  36.541  21.935  1.00  0.00     0.008 C 
ENDBRANCH   1   3
BRANCH   1   5
HETATM    5  C   LIG     1      17.926  38.584  22.604  1.00  0.00     0.037 C 
BRANCH   5   6
HETATM    6  C   LIG     1      18.190  38.269  21.120  1.00  0.00     0.002 C 
BRANCH   6   7
HETATM    7  C   LIG     1      18.998  39.391  20.456  1.00  0.00    -0.004 C 
HETATM    8  C   LIG     1      20.158  38.826  19.639  1.00  0.00     0.005 C 
ENDBRANCH   6   7
ENDBRANCH   5   6
ENDBRANCH   1   5
BRANCH   1   9
HETATM    9  O   LIG     1      17.423  36.239  23.113  1.00  0.00    -0.390 OA
HETATM   10  H   LIG     1      17.531  36.082  22.140  1.00  0.00     0.210 HD
ENDBRANCH   1   9
TORSDOF 5
ENDMDL
MODEL 15
REMARK VINA RESULT:      -4.3      7.749     10.143
REMARK  5 active torsions:
REMARK  status: ('A' for Active; 'I' for Inactive)
REMARK    1  A    between atoms: C_2  and  C_3 
REMARK    2  A    between atoms: C_3  and  C_6 
REMARK    3  A    between atoms: C_3  and  O_5 
REMARK    4  A    between atoms: C_6  and  C_7 
REMARK    5  A    between atoms: C_7  and  C_8 
ROOT
HETATM    1  C   LIG     1      14.635  32.845  17.095  1.00  0.00     0.054 C 
HETATM    2  C   LIG     1      13.390  31.937  17.056  1.00  0.00     0.045 C 
ENDROOT
BRANCH   1   3
HETATM    3  C   LIG     1      15.316  32.651  18.481  1.00  0.00     0.033 C 
HETATM    4  C   LIG     1      14.689  31.571  19.369  1.00  0.00     0.008 C 
ENDBRANCH   1   3
BRANCH   1   5
HETATM    5  C   LIG     1      15.611  32.462  15.937  1.00  0.00     0.037 C 
BRANCH   5   6
HETATM    6  C   LIG     1      15.160  31.239  15.118  1.00  0.00     0.002 C 
BRANCH   6   7
HETATM    7  C   LIG     1      15.617  31.354  13.659  1.00  0.00    -0.004 C 
HETATM    8  C   LIG     1      16.557  32.542  13.468  1.00  0.00     0.005 C 
ENDBRANCH   6   7
ENDBRANCH   5   6
ENDBRANCH   1   5
BRANCH   1   9
HETATM    9  O   LIG     1      14.191  34.176  16.963  1.00  0.00    -0.390 OA
HETATM   10  H   LIG     1      13.532  34.218  16.222  1.00  0.00     0.210 HD
ENDBRANCH   1   9
TORSDOF 5
ENDMDL
MODEL 16
REMARK VINA RESULT:      -4.3      7.811     10.154
REMARK  5 active torsions:
REMARK  status: ('A' for Active; 'I' for Inactive)
REMARK    1  A    between atoms: C_2  and  C_3 
REMARK    2  A    between atoms: C_3  and  C_6 
REMARK    3  A    between atoms: C_3  and  O_5 
REMARK    4  A    between atoms: C_6  and  C_7 
REMARK    5  A    between atoms: C_7  and  C_8 
ROOT
HETATM    1  C   LIG     1      14.681  32.892  17.123  1.00  0.00     0.054 C 
HETATM    2  C   LIG     1      15.184  32.526  18.534  1.00  0.00     0.045 C 
ENDROOT
BRANCH   1   3
HETATM    3  C   LIG     1      15.785  32.474  16.109  1.00  0.00     0.033 C 
HETATM    4  C   LIG     1      16.532  33.634  15.443  1.00  0.00     0.008 C 
ENDBRANCH   1   3
BRANCH   1   5
HETATM    5  C   LIG     1      13.340  32.148  16.825  1.00  0.00     0.037 C 
BRANCH   5   6
HETATM    6  C   LIG     1      13.505  30.636  16.587  1.00  0.00     0.002 C 
BRANCH   6   7
HETATM    7  C   LIG     1      13.042  30.248  15.177  1.00  0.00    -0.004 C 
HETATM    8  C   LIG     1      14.205  29.720  14.341  1.00  0.00     0.005 C 
ENDBRANCH   6   7
ENDBRANCH   5   6
ENDBRANCH   1   5
BRANCH   1   9
HETATM    9  O   LIG     1      14.504  34.290  17.087  1.00  0.00    -0.390 OA
HETATM   10  H   LIG     1      15.254  34.690  16.575  1.00  0.00     0.210 HD
ENDBRANCH   1   9
TORSDOF 5
ENDMDL
MODEL 17
REMARK VINA RESULT:      -4.2      8.450     10.209
REMARK  5 active torsions:
REMARK  status: ('A' for Active; 'I' for Inactive)
REMARK    1  A    between atoms: C_2  and  C_3 
REMARK    2  A    between atoms: C_3  and  C_6 
REMARK    3  A    between atoms: C_3  and  O_5 
REMARK    4  A    between atoms: C_6  and  C_7 
REMARK    5  A    between atoms: C_7  and  C_8 
ROOT
HETATM    1  C   LIG     1      14.997  32.623  17.106  1.00  0.00     0.054 C 
HETATM    2  C   LIG     1      14.876  34.146  16.897  1.00  0.00     0.045 C 
ENDROOT
BRANCH   1   3
HETATM    3  C   LIG     1      13.557  32.032  17.105  1.00  0.00     0.033 C 
HETATM    4  C   LIG     1      13.348  30.828  16.181  1.00  0.00     0.008 C 
ENDBRANCH   1   3
BRANCH   1   5
HETATM    5  C   LIG     1      15.857  31.994  15.963  1.00  0.00     0.037 C 
BRANCH   5   6
HETATM    6  C   LIG     1      16.589  33.031  15.090  1.00  0.00     0.002 C 
BRANCH   6   7
HETATM    7  C   LIG     1      16.617  32.589  13.622  1.00  0.00    -0.004 C 
HETATM    8  C   LIG     1      15.682  31.407  13.383  1.00  0.00     0.005 C 
ENDBRANCH   6   7
ENDBRANCH   5   6
ENDBRANCH   1   5
BRANCH   1   9
HETATM    9  O   LIG     1      15.598  32.417  18.364  1.00  0.00    -0.390 OA
HETATM   10  H   LIG     1      15.085  31.718  18.848  1.00  0.00     0.210 HD
ENDBRANCH   1   9
TORSDOF 5
ENDMDL
MODEL 18
REMARK VINA RESULT:      -4.1      3.209      5.448
REMARK  5 active torsions:
REMARK  status: ('A' for Active; 'I' for Inactive)
REMARK    1  A    between atoms: C_2  and  C_3 
REMARK    2  A    between atoms: C_3  and  C_6 
REMARK    3  A    between atoms: C_3  and  O_5 
REMARK    4  A    between atoms: C_6  and  C_7 
REMARK    5  A    between atoms: C_7  and  C_8 
ROOT
HETATM    1  C   LIG     1      16.139  35.573  21.773  1.00  0.00     0.054 C 
HETATM    2  C   LIG     1      17.071  35.979  20.613  1.00  0.00     0.045 C 
ENDROOT
BRANCH   1   3
HETATM    3  C   LIG     1      15.335  36.837  22.193  1.00  0.00     0.033 C 
HETATM    4  C   LIG     1      16.165  37.953  22.838  1.00  0.00     0.008 C 
ENDBRANCH   1   3
BRANCH   1   5
HETATM    5  C   LIG     1      15.179  34.430  21.312  1.00  0.00     0.037 C 
BRANCH   5   6
HETATM    6  C   LIG     1      15.782  33.502  20.242  1.00  0.00     0.002 C 
BRANCH   6   7
HETATM    7  C   LIG     1      14.932  32.237  20.070  1.00  0.00    -0.004 C 
HETATM    8  C   LIG     1      14.625  31.975  18.598  1.00  0.00     0.005 C 
ENDBRANCH   6   7
ENDBRANCH   5   6
ENDBRANCH   1   5
BRANCH   1   9
HETATM    9  O   LIG     1      16.956  35.149  22.841  1.00  0.00    -0.390 OA
HETATM   10  H   LIG     1      16.891  35.817  23.572  1.00  0.00     0.210 HD
ENDBRANCH   1   9
TORSDOF 5
ENDMDL
MODEL 19
REMARK VINA RESULT:      -4.0      8.987     11.127
REMARK  5 active torsions:
REMARK  status: ('A' for Active; 'I' for Inactive)
REMARK    1  A    between atoms: C_2  and  C_3 
REMARK    2  A    between atoms: C_3  and  C_6 
REMARK    3  A    between atoms: C_3  and  O_5 
REMARK    4  A    between atoms: C_6  and  C_7 
REMARK    5  A    between atoms: C_7  and  C_8 
ROOT
HETATM    1  C   LIG     1      16.516  32.418  15.038  1.00  0.00     0.054 C 
HETATM    2  C   LIG     1      16.486  32.668  13.517  1.00  0.00     0.045 C 
ENDROOT
BRANCH   1   3
HETATM    3  C   LIG     1      15.993  33.707  15.736  1.00  0.00     0.033 C 
HETATM    4  C   LIG     1      14.956  33.474  16.840  1.00  0.00     0.008 C 
ENDBRANCH   1   3
BRANCH   1   5
HETATM    5  C   LIG     1      15.619  31.189  15.395  1.00  0.00     0.037 C 
BRANCH   5   6
HETATM    6  C   LIG     1      15.136  30.393  14.169  1.00  0.00     0.002 C 
BRANCH   6   7
HETATM    7  C   LIG     1      13.748  29.790  14.418  1.00  0.00    -0.004 C 
HETATM    8  C   LIG     1      13.065  30.453  15.612  1.00  0.00     0.005 C 
ENDBRANCH   6   7
ENDBRANCH   5   6
ENDBRANCH   1   5
BRANCH   1   9
HETATM    9  O   LIG     1      17.858  32.188  15.402  1.00  0.00    -0.390 OA
HETATM   10  H   LIG     1      17.955  32.354  16.375  1.00  0.00     0.210 HD
ENDBRANCH   1   9
TORSDOF 5
ENDMDL
MODEL 20
REMARK VINA RESULT:      -3.7     15.957     17.296
REMARK  5 active torsions:
REMARK  status: ('A' for Active; 'I' for Inactive)
REMARK    1  A    between atoms: C_2  and  C_3 
REMARK    2  A    between atoms: C_3  and  C_6 
REMARK    3  A    between atoms: C_3  and  O_5 
REMARK    4  A    between atoms: C_6  and  C_7 
REMARK    5  A    between atoms: C_7  and  C_8 
ROOT
HETATM    1  C   LIG     1      26.242  30.565  37.284  1.00  0.00     0.054 C 
HETATM    2  C   LIG     1      27.454  29.626  37.446  1.00  0.00     0.045 C 
ENDROOT
BRANCH   1   3
HETATM    3  C   LIG     1      26.615  31.931  37.929  1.00  0.00     0.033 C 
HETATM    4  C   LIG     1      28.118  32.215  38.029  1.00  0.00     0.008 C 
ENDBRANCH   1   3
BRANCH   1   5
HETATM    5  C   LIG     1      25.900  30.740  35.769  1.00  0.00     0.037 C 
BRANCH   5   6
HETATM    6  C   LIG     1      26.907  30.063  34.821  1.00  0.00     0.002 C 
BRANCH   6   7
HETATM    7  C   LIG     1      27.727  31.108  34.054  1.00  0.00    -0.004 C 
HETATM    8  C   LIG     1      29.180  31.121  34.522  1.00  0.00     0.005 C 
ENDBRANCH   6   7
ENDBRANCH   5   6
ENDBRANCH   1   5
BRANCH   1   9
HETATM    9  O   LIG     1      25.163  29.986  37.983  1.00  0.00    -0.390 OA
HETATM   10  H   LIG     1      24.867  30.618  38.688  1.00  0.00     0.210 HD
ENDBRANCH   1   9
TORSDOF 5
ENDMDL
