MODEL 1
REMARK VINA RESULT:      -5.6      0.000      0.000
REMARK  1 active torsions:
REMARK  status: ('A' for Active; 'I' for Inactive)
REMARK    1  A    between atoms: C_3  and  C_4 
ROOT
HETATM    1 CL   LIG     1      17.353  37.861  25.375  1.00  0.00    -0.069 Cl
HETATM    2  C   LIG     1      17.220  36.408  24.395  1.00  0.00     0.125 C 
HETATM    3  C   LIG     1      17.078  36.477  23.060  1.00  0.00     0.069 C 
HETATM    4 CL   LIG     1      17.104  38.025  22.225  1.00  0.00    -0.082 Cl
HETATM    5 CL   LIG     1      17.339  34.867  25.240  1.00  0.00    -0.069 Cl
ENDROOT
BRANCH   3   6
HETATM    6  C   LIG     1      16.976  35.272  22.219  1.00  0.00     0.062 C 
HETATM    7  C   LIG     1      15.901  34.985  21.478  1.00  0.00     0.105 C 
HETATM    8 CL   LIG     1      14.494  36.040  21.411  1.00  0.00    -0.071 Cl
HETATM    9 CL   LIG     1      15.900  33.543  20.481  1.00  0.00    -0.071 Cl
ENDBRANCH   3   6
TORSDOF 1
ENDMDL
MODEL 2
REMARK VINA RESULT:      -5.1      1.376      2.624
REMARK  1 active torsions:
REMARK  status: ('A' for Active; 'I' for Inactive)
REMARK    1  A    between atoms: C_3  and  C_4 
ROOT
HETATM    1 CL   LIG     1      17.896  38.087  24.912  1.00  0.00    -0.069 Cl
HETATM    2  C   LIG     1      17.030  37.533  23.485  1.00  0.00     0.125 C 
HETATM    3  C   LIG     1      16.846  36.223  23.246  1.00  0.00     0.069 C 
HETATM    4 CL   LIG     1      17.388  35.007  24.395  1.00  0.00    -0.082 Cl
HETATM    5 CL   LIG     1      16.374  38.775  22.423  1.00  0.00    -0.069 Cl
ENDROOT
BRANCH   3   6
HETATM    6  C   LIG     1      16.114  35.738  22.062  1.00  0.00     0.062 C 
HETATM    7  C   LIG     1      16.626  35.760  20.827  1.00  0.00     0.105 C 
HETATM    8 CL   LIG     1      18.248  36.350  20.488  1.00  0.00    -0.071 Cl
HETATM    9 CL   LIG     1      15.684  35.121  19.493  1.00  0.00    -0.071 Cl
ENDBRANCH   3   6
TORSDOF 1
ENDMDL
MODEL 3
REMARK VINA RESULT:      -5.1      1.818      3.050
REMARK  1 active torsions:
REMARK  status: ('A' for Active; 'I' for Inactive)
REMARK    1  A    between atoms: C_3  and  C_4 
ROOT
HETATM    1 CL   LIG     1      18.530  39.274  21.423  1.00  0.00    -0.069 Cl
HETATM    2  C   LIG     1      18.188  37.649  20.844  1.00  0.00     0.125 C 
HETATM    3  C   LIG     1      17.508  36.768  21.598  1.00  0.00     0.069 C 
HETATM    4 CL   LIG     1      16.855  37.230  23.164  1.00  0.00    -0.082 Cl
HETATM    5 CL   LIG     1      18.730  37.258  19.214  1.00  0.00    -0.069 Cl
ENDROOT
BRANCH   3   6
HETATM    6  C   LIG     1      17.202  35.406  21.126  1.00  0.00     0.062 C 
HETATM    7  C   LIG     1      15.955  34.961  20.938  1.00  0.00     0.105 C 
HETATM    8 CL   LIG     1      14.541  35.972  21.212  1.00  0.00    -0.071 Cl
HETATM    9 CL   LIG     1      15.703  33.334  20.335  1.00  0.00    -0.071 Cl
ENDBRANCH   3   6
TORSDOF 1
ENDMDL
MODEL 4
REMARK VINA RESULT:      -5.0      1.882      3.504
REMARK  1 active torsions:
REMARK  status: ('A' for Active; 'I' for Inactive)
REMARK    1  A    between atoms: C_3  and  C_4 
ROOT
HETATM    1 CL   LIG     1      16.920  34.981  24.879  1.00  0.00    -0.069 Cl
HETATM    2  C   LIG     1      17.422  36.487  24.124  1.00  0.00     0.125 C 
HETATM    3  C   LIG     1      17.052  36.795  22.868  1.00  0.00     0.069 C 
HETATM    4 CL   LIG     1      15.977  35.742  21.957  1.00  0.00    -0.082 Cl
HETATM    5 CL   LIG     1      18.379  37.589  25.109  1.00  0.00    -0.069 Cl
ENDROOT
BRANCH   3   6
HETATM    6  C   LIG     1      17.452  38.057  22.221  1.00  0.00     0.062 C 
HETATM    7  C   LIG     1      18.152  38.104  21.083  1.00  0.00     0.105 C 
HETATM    8 CL   LIG     1      18.650  36.654  20.220  1.00  0.00    -0.071 Cl
HETATM    9 CL   LIG     1      18.541  39.661  20.375  1.00  0.00    -0.071 Cl
ENDBRANCH   3   6
TORSDOF 1
ENDMDL
MODEL 5
REMARK VINA RESULT:      -5.0      2.052      4.615
REMARK  1 active torsions:
REMARK  status: ('A' for Active; 'I' for Inactive)
REMARK    1  A    between atoms: C_3  and  C_4 
ROOT
HETATM    1 CL   LIG     1      18.329  36.923  19.251  1.00  0.00    -0.069 Cl
HETATM    2  C   LIG     1      18.244  37.728  20.813  1.00  0.00     0.125 C 
HETATM    3  C   LIG     1      17.334  37.369  21.734  1.00  0.00     0.069 C 
HETATM    4 CL   LIG     1      16.243  36.019  21.451  1.00  0.00    -0.082 Cl
HETATM    5 CL   LIG     1      19.442  38.981  21.125  1.00  0.00    -0.069 Cl
ENDROOT
BRANCH   3   6
HETATM    6  C   LIG     1      17.253  38.023  23.052  1.00  0.00     0.062 C 
HETATM    7  C   LIG     1      17.230  37.344  24.204  1.00  0.00     0.105 C 
HETATM    8 CL   LIG     1      17.319  35.588  24.267  1.00  0.00    -0.071 Cl
HETATM    9 CL   LIG     1      17.173  38.223  25.720  1.00  0.00    -0.071 Cl
ENDBRANCH   3   6
TORSDOF 1
ENDMDL
MODEL 6
REMARK VINA RESULT:      -4.9      2.665      4.266
REMARK  1 active torsions:
REMARK  status: ('A' for Active; 'I' for Inactive)
REMARK    1  A    between atoms: C_3  and  C_4 
ROOT
HETATM    1 CL   LIG     1      17.795  39.182  21.075  1.00  0.00    -0.069 Cl
HETATM    2  C   LIG     1      18.161  38.714  22.730  1.00  0.00     0.125 C 
HETATM    3  C   LIG     1      17.236  38.129  23.510  1.00  0.00     0.069 C 
HETATM    4 CL   LIG     1      15.643  37.729  22.882  1.00  0.00    -0.082 Cl
HETATM    5 CL   LIG     1      19.808  38.997  23.289  1.00  0.00    -0.069 Cl
ENDROOT
BRANCH   3   6
HETATM    6  C   LIG     1      17.526  37.719  24.896  1.00  0.00     0.062 C 
HETATM    7  C   LIG     1      17.578  36.440  25.283  1.00  0.00     0.105 C 
HETATM    8 CL   LIG     1      17.329  35.104  24.165  1.00  0.00    -0.071 Cl
HETATM    9 CL   LIG     1      17.971  36.060  26.949  1.00  0.00    -0.071 Cl
ENDBRANCH   3   6
TORSDOF 1
ENDMDL
MODEL 7
REMARK VINA RESULT:      -4.8      1.504      4.185
REMARK  1 active torsions:
REMARK  status: ('A' for Active; 'I' for Inactive)
REMARK    1  A    between atoms: C_3  and  C_4 
ROOT
HETATM    1 CL   LIG     1      15.653  34.904  18.778  1.00  0.00    -0.069 Cl
HETATM    2  C   LIG     1      15.877  34.928  20.522  1.00  0.00     0.125 C 
HETATM    3  C   LIG     1      16.911  35.577  21.084  1.00  0.00     0.069 C 
HETATM    4 CL   LIG     1      18.039  36.505  20.103  1.00  0.00    -0.082 Cl
HETATM    5 CL   LIG     1      14.654  34.110  21.491  1.00  0.00    -0.069 Cl
ENDROOT
BRANCH   3   6
HETATM    6  C   LIG     1      17.111  35.619  22.543  1.00  0.00     0.062 C 
HETATM    7  C   LIG     1      16.931  36.724  23.274  1.00  0.00     0.105 C 
HETATM    8 CL   LIG     1      16.409  38.248  22.567  1.00  0.00    -0.071 Cl
HETATM    9 CL   LIG     1      17.157  36.654  25.011  1.00  0.00    -0.071 Cl
ENDBRANCH   3   6
TORSDOF 1
ENDMDL
MODEL 8
REMARK VINA RESULT:      -4.7      4.887      6.800
REMARK  1 active torsions:
REMARK  status: ('A' for Active; 'I' for Inactive)
REMARK    1  A    between atoms: C_3  and  C_4 
ROOT
HETATM    1 CL   LIG     1      15.889  33.727  20.309  1.00  0.00    -0.069 Cl
HETATM    2  C   LIG     1      15.090  32.514  19.317  1.00  0.00     0.125 C 
HETATM    3  C   LIG     1      14.723  32.780  18.052  1.00  0.00     0.069 C 
HETATM    4 CL   LIG     1      15.104  34.325  17.303  1.00  0.00    -0.082 Cl
HETATM    5 CL   LIG     1      14.849  30.928  20.044  1.00  0.00    -0.069 Cl
ENDROOT
BRANCH   3   6
HETATM    6  C   LIG     1      14.063  31.774  17.200  1.00  0.00     0.062 C 
HETATM    7  C   LIG     1      14.543  31.396  16.011  1.00  0.00     0.105 C 
HETATM    8 CL   LIG     1      16.037  32.045  15.346  1.00  0.00    -0.071 Cl
HETATM    9 CL   LIG     1      13.700  30.161  15.095  1.00  0.00    -0.071 Cl
ENDBRANCH   3   6
TORSDOF 1
ENDMDL
MODEL 9
REMARK VINA RESULT:      -4.7      2.207      4.476
REMARK  1 active torsions:
REMARK  status: ('A' for Active; 'I' for Inactive)
REMARK    1  A    between atoms: C_3  and  C_4 
ROOT
HETATM    1 CL   LIG     1      14.617  34.298  21.482  1.00  0.00    -0.069 Cl
HETATM    2  C   LIG     1      15.889  35.103  20.573  1.00  0.00     0.125 C 
HETATM    3  C   LIG     1      16.901  35.730  21.196  1.00  0.00     0.069 C 
HETATM    4 CL   LIG     1      17.045  35.699  22.949  1.00  0.00    -0.082 Cl
HETATM    5 CL   LIG     1      15.798  34.998  18.818  1.00  0.00    -0.069 Cl
ENDROOT
BRANCH   3   6
HETATM    6  C   LIG     1      17.983  36.401  20.454  1.00  0.00     0.062 C 
HETATM    7  C   LIG     1      18.301  37.688  20.629  1.00  0.00     0.105 C 
HETATM    8 CL   LIG     1      17.472  38.715  21.792  1.00  0.00    -0.071 Cl
HETATM    9 CL   LIG     1      19.633  38.377  19.721  1.00  0.00    -0.071 Cl
ENDBRANCH   3   6
TORSDOF 1
ENDMDL
MODEL 10
REMARK VINA RESULT:      -4.6      2.490      4.364
REMARK  1 active torsions:
REMARK  status: ('A' for Active; 'I' for Inactive)
REMARK    1  A    between atoms: C_3  and  C_4 
ROOT
HETATM    1 CL   LIG     1      18.249  37.034  18.934  1.00  0.00    -0.069 Cl
HETATM    2  C   LIG     1      18.123  37.091  20.687  1.00  0.00     0.125 C 
HETATM    3  C   LIG     1      18.399  38.215  21.370  1.00  0.00     0.069 C 
HETATM    4 CL   LIG     1      18.814  39.705  20.532  1.00  0.00    -0.082 Cl
HETATM    5 CL   LIG     1      17.568  35.625  21.490  1.00  0.00    -0.069 Cl
ENDROOT
BRANCH   3   6
HETATM    6  C   LIG     1      18.289  38.287  22.837  1.00  0.00     0.062 C 
HETATM    7  C   LIG     1      17.118  38.313  23.482  1.00  0.00     0.105 C 
HETATM    8 CL   LIG     1      15.575  38.237  22.639  1.00  0.00    -0.071 Cl
HETATM    9 CL   LIG     1      17.099  38.359  25.235  1.00  0.00    -0.071 Cl
ENDBRANCH   3   6
TORSDOF 1
ENDMDL
MODEL 11
REMARK VINA RESULT:      -4.5      4.915      8.183
REMARK  1 active torsions:
REMARK  status: ('A' for Active; 'I' for Inactive)
REMARK    1  A    between atoms: C_3  and  C_4 
ROOT
HETATM    1 CL   LIG     1      14.736  30.630  14.451  1.00  0.00    -0.069 Cl
HETATM    2  C   LIG     1      15.323  31.774  15.651  1.00  0.00     0.125 C 
HETATM    3  C   LIG     1      14.518  32.241  16.622  1.00  0.00     0.069 C 
HETATM    4 CL   LIG     1      12.866  31.661  16.786  1.00  0.00    -0.082 Cl
HETATM    5 CL   LIG     1      17.021  32.229  15.549  1.00  0.00    -0.069 Cl
ENDROOT
BRANCH   3   6
HETATM    6  C   LIG     1      14.994  33.190  17.643  1.00  0.00     0.062 C 
HETATM    7  C   LIG     1      15.129  32.868  18.934  1.00  0.00     0.105 C 
HETATM    8 CL   LIG     1      14.776  31.257  19.546  1.00  0.00    -0.071 Cl
HETATM    9 CL   LIG     1      15.742  34.064  20.061  1.00  0.00    -0.071 Cl
ENDBRANCH   3   6
TORSDOF 1
ENDMDL
MODEL 12
REMARK VINA RESULT:      -4.5      1.576      4.396
REMARK  1 active torsions:
REMARK  status: ('A' for Active; 'I' for Inactive)
REMARK    1  A    between atoms: C_3  and  C_4 
ROOT
HETATM    1 CL   LIG     1      15.762  35.082  18.834  1.00  0.00    -0.069 Cl
HETATM    2  C   LIG     1      16.607  35.504  20.318  1.00  0.00     0.125 C 
HETATM    3  C   LIG     1      16.173  35.072  21.514  1.00  0.00     0.069 C 
HETATM    4 CL   LIG     1      14.790  33.994  21.641  1.00  0.00    -0.082 Cl
HETATM    5 CL   LIG     1      18.072  36.467  20.150  1.00  0.00    -0.069 Cl
ENDROOT
BRANCH   3   6
HETATM    6  C   LIG     1      16.873  35.405  22.768  1.00  0.00     0.062 C 
HETATM    7  C   LIG     1      16.703  36.562  23.415  1.00  0.00     0.105 C 
HETATM    8 CL   LIG     1      15.598  37.808  22.845  1.00  0.00    -0.071 Cl
HETATM    9 CL   LIG     1      17.555  36.841  24.922  1.00  0.00    -0.071 Cl
ENDBRANCH   3   6
TORSDOF 1
ENDMDL
MODEL 13
REMARK VINA RESULT:      -4.4      2.306      2.949
REMARK  1 active torsions:
REMARK  status: ('A' for Active; 'I' for Inactive)
REMARK    1  A    between atoms: C_3  and  C_4 
ROOT
HETATM    1 CL   LIG     1      18.609  39.354  21.075  1.00  0.00    -0.069 Cl
HETATM    2  C   LIG     1      17.514  38.104  21.649  1.00  0.00     0.125 C 
HETATM    3  C   LIG     1      17.556  36.857  21.149  1.00  0.00     0.069 C 
HETATM    4 CL   LIG     1      18.769  36.398  19.960  1.00  0.00    -0.082 Cl
HETATM    5 CL   LIG     1      16.405  38.552  22.941  1.00  0.00    -0.069 Cl
ENDROOT
BRANCH   3   6
HETATM    6  C   LIG     1      16.655  35.792  21.624  1.00  0.00     0.062 C 
HETATM    7  C   LIG     1      15.873  35.078  20.807  1.00  0.00     0.105 C 
HETATM    8 CL   LIG     1      15.858  35.322  19.065  1.00  0.00    -0.071 Cl
HETATM    9 CL   LIG     1      14.867  33.805  21.472  1.00  0.00    -0.071 Cl
ENDBRANCH   3   6
TORSDOF 1
ENDMDL
MODEL 14
REMARK VINA RESULT:      -4.2      4.962      8.086
REMARK  1 active torsions:
REMARK  status: ('A' for Active; 'I' for Inactive)
REMARK    1  A    between atoms: C_3  and  C_4 
ROOT
HETATM    1 CL   LIG     1      14.319  30.254  15.020  1.00  0.00    -0.069 Cl
HETATM    2  C   LIG     1      14.233  31.636  16.103  1.00  0.00     0.125 C 
HETATM    3  C   LIG     1      15.298  32.431  16.306  1.00  0.00     0.069 C 
HETATM    4 CL   LIG     1      16.801  32.174  15.428  1.00  0.00    -0.082 Cl
HETATM    5 CL   LIG     1      12.675  31.956  16.860  1.00  0.00    -0.069 Cl
ENDROOT
BRANCH   3   6
HETATM    6  C   LIG     1      15.244  33.601  17.200  1.00  0.00     0.062 C 
HETATM    7  C   LIG     1      15.376  33.512  18.528  1.00  0.00     0.105 C 
HETATM    8 CL   LIG     1      15.657  31.981  19.348  1.00  0.00    -0.071 Cl
HETATM    9 CL   LIG     1      15.336  34.973  19.497  1.00  0.00    -0.071 Cl
ENDBRANCH   3   6
TORSDOF 1
ENDMDL
MODEL 15
REMARK VINA RESULT:      -4.0      3.258      6.583
REMARK  1 active torsions:
REMARK  status: ('A' for Active; 'I' for Inactive)
REMARK    1  A    between atoms: C_3  and  C_4 
ROOT
HETATM    1 CL   LIG     1      13.690  31.141  17.122  1.00  0.00    -0.069 Cl
HETATM    2  C   LIG     1      14.611  32.461  17.829  1.00  0.00     0.125 C 
HETATM    3  C   LIG     1      15.086  32.386  19.085  1.00  0.00     0.069 C 
HETATM    4 CL   LIG     1      14.880  30.928  20.046  1.00  0.00    -0.082 Cl
HETATM    5 CL   LIG     1      14.926  33.852  16.796  1.00  0.00    -0.069 Cl
ENDROOT
BRANCH   3   6
HETATM    6  C   LIG     1      15.869  33.476  19.692  1.00  0.00     0.062 C 
HETATM    7  C   LIG     1      15.520  34.079  20.833  1.00  0.00     0.105 C 
HETATM    8 CL   LIG     1      14.092  33.613  21.748  1.00  0.00    -0.071 Cl
HETATM    9 CL   LIG     1      16.547  35.340  21.491  1.00  0.00    -0.071 Cl
ENDBRANCH   3   6
TORSDOF 1
ENDMDL
MODEL 16
REMARK VINA RESULT:      -3.9      2.072      3.876
REMARK  1 active torsions:
REMARK  status: ('A' for Active; 'I' for Inactive)
REMARK    1  A    between atoms: C_3  and  C_4 
ROOT
HETATM    1 CL   LIG     1      14.970  33.743  21.681  1.00  0.00    -0.069 Cl
HETATM    2  C   LIG     1      16.272  34.913  21.841  1.00  0.00     0.125 C 
HETATM    3  C   LIG     1      16.669  35.662  20.798  1.00  0.00     0.069 C 
HETATM    4 CL   LIG     1      15.845  35.566  19.247  1.00  0.00    -0.082 Cl
HETATM    5 CL   LIG     1      16.986  35.092  23.441  1.00  0.00    -0.069 Cl
ENDROOT
BRANCH   3   6
HETATM    6  C   LIG     1      17.751  36.656  20.914  1.00  0.00     0.062 C 
HETATM    7  C   LIG     1      17.602  37.828  21.540  1.00  0.00     0.105 C 
HETATM    8 CL   LIG     1      16.096  38.298  22.318  1.00  0.00    -0.071 Cl
HETATM    9 CL   LIG     1      18.967  38.923  21.655  1.00  0.00    -0.071 Cl
ENDBRANCH   3   6
TORSDOF 1
ENDMDL
MODEL 17
REMARK VINA RESULT:      -3.8      7.604      9.566
REMARK  1 active torsions:
REMARK  status: ('A' for Active; 'I' for Inactive)
REMARK    1  A    between atoms: C_3  and  C_4 
ROOT
HETATM    1 CL   LIG     1      14.945  33.903  16.751  1.00  0.00    -0.069 Cl
HETATM    2  C   LIG     1      15.592  32.630  15.725  1.00  0.00     0.125 C 
HETATM    3  C   LIG     1      14.997  31.427  15.646  1.00  0.00     0.069 C 
HETATM    4 CL   LIG     1      13.494  31.103  16.500  1.00  0.00    -0.082 Cl
HETATM    5 CL   LIG     1      17.018  33.027  14.770  1.00  0.00    -0.069 Cl
ENDROOT
BRANCH   3   6
HETATM    6  C   LIG     1      15.516  30.351  14.784  1.00  0.00     0.062 C 
HETATM    7  C   LIG     1      14.730  29.443  14.196  1.00  0.00     0.105 C 
HETATM    8 CL   LIG     1      12.980  29.454  14.370  1.00  0.00    -0.071 Cl
HETATM    9 CL   LIG     1      15.448  28.227  13.156  1.00  0.00    -0.071 Cl
ENDBRANCH   3   6
TORSDOF 1
ENDMDL
MODEL 18
REMARK VINA RESULT:      -3.8      2.486      3.743
REMARK  1 active torsions:
REMARK  status: ('A' for Active; 'I' for Inactive)
REMARK    1  A    between atoms: C_3  and  C_4 
ROOT
HETATM    1 CL   LIG     1      18.698  39.673  19.625  1.00  0.00    -0.069 Cl
HETATM    2  C   LIG     1      18.453  38.488  20.900  1.00  0.00     0.125 C 
HETATM    3  C   LIG     1      18.158  37.208  20.615  1.00  0.00     0.069 C 
HETATM    4 CL   LIG     1      18.090  36.642  18.951  1.00  0.00    -0.082 Cl
HETATM    5 CL   LIG     1      18.667  39.049  22.556  1.00  0.00    -0.069 Cl
ENDROOT
BRANCH   3   6
HETATM    6  C   LIG     1      17.960  36.197  21.669  1.00  0.00     0.062 C 
HETATM    7  C   LIG     1      16.894  36.182  22.477  1.00  0.00     0.105 C 
HETATM    8 CL   LIG     1      15.596  37.362  22.348  1.00  0.00    -0.071 Cl
HETATM    9 CL   LIG     1      16.737  34.909  23.672  1.00  0.00    -0.071 Cl
ENDBRANCH   3   6
TORSDOF 1
ENDMDL
MODEL 19
REMARK VINA RESULT:      -3.7      5.053      7.170
REMARK  1 active torsions:
REMARK  status: ('A' for Active; 'I' for Inactive)
REMARK    1  A    between atoms: C_3  and  C_4 
ROOT
HETATM    1 CL   LIG     1      15.795  34.286  19.734  1.00  0.00    -0.069 Cl
HETATM    2  C   LIG     1      15.013  33.470  18.387  1.00  0.00     0.125 C 
HETATM    3  C   LIG     1      14.696  32.166  18.451  1.00  0.00     0.069 C 
HETATM    4 CL   LIG     1      14.971  31.237  19.919  1.00  0.00    -0.082 Cl
HETATM    5 CL   LIG     1      14.619  34.457  16.982  1.00  0.00    -0.069 Cl
ENDROOT
BRANCH   3   6
HETATM    6  C   LIG     1      14.030  31.466  17.338  1.00  0.00     0.062 C 
HETATM    7  C   LIG     1      14.600  31.285  16.143  1.00  0.00     0.105 C 
HETATM    8 CL   LIG     1      16.228  31.846  15.779  1.00  0.00    -0.071 Cl
HETATM    9 CL   LIG     1      13.734  30.403  14.899  1.00  0.00    -0.071 Cl
ENDBRANCH   3   6
TORSDOF 1
ENDMDL
MODEL 20
REMARK VINA RESULT:      -3.6      8.676     11.165
REMARK  1 active torsions:
REMARK  status: ('A' for Active; 'I' for Inactive)
REMARK    1  A    between atoms: C_3  and  C_4 
ROOT
HETATM    1 CL   LIG     1      12.873  27.326  13.855  1.00  0.00    -0.069 Cl
HETATM    2  C   LIG     1      14.291  28.367  13.848  1.00  0.00     0.125 C 
HETATM    3  C   LIG     1      14.223  29.640  14.275  1.00  0.00     0.069 C 
HETATM    4 CL   LIG     1      12.733  30.295  14.941  1.00  0.00    -0.082 Cl
HETATM    5 CL   LIG     1      15.804  27.643  13.310  1.00  0.00    -0.069 Cl
ENDROOT
BRANCH   3   6
HETATM    6  C   LIG     1      15.402  30.525  14.289  1.00  0.00     0.062 C 
HETATM    7  C   LIG     1      15.590  31.477  15.208  1.00  0.00     0.105 C 
HETATM    8 CL   LIG     1      14.454  31.758  16.522  1.00  0.00    -0.071 Cl
HETATM    9 CL   LIG     1      17.048  32.449  15.156  1.00  0.00    -0.071 Cl
ENDBRANCH   3   6
TORSDOF 1
ENDMDL
