REMARK  1 active torsions:
REMARK  status: ('A' for Active; 'I' for Inactive)
REMARK    1  A    between atoms: C_3  and  C_4 
ROOT
HETATM    1 CL   LIG     1      -3.141   0.709   0.607  1.00  0.00    -0.069 Cl
HETATM    2  C   LIG     1      -1.578   0.368  -0.123  1.00  0.00     0.125 C 
HETATM    3  C   LIG     1      -0.662  -0.385   0.510  1.00  0.00     0.069 C 
HETATM    4 CL   LIG     1      -1.020  -1.135   2.060  1.00  0.00    -0.082 Cl
HETATM    5 CL   LIG     1      -1.299   1.013  -1.738  1.00  0.00    -0.069 Cl
ENDROOT
BRANCH   3   6
HETATM    6  C   LIG     1       0.649  -0.692  -0.089  1.00  0.00     0.062 C 
HETATM    7  C   LIG     1       1.615   0.220  -0.240  1.00  0.00     0.105 C 
HETATM    8 CL   LIG     1       1.429   1.888   0.288  1.00  0.00    -0.071 Cl
HETATM    9 CL   LIG     1       3.154  -0.261  -0.929  1.00  0.00    -0.071 Cl
ENDBRANCH   3   6
TORSDOF 1
