REMARK  0 active torsions:
REMARK  status: ('A' for Active; 'I' for Inactive)
ROOT
HETATM    1  S   LIG     1      -2.198   2.535   0.175  1.00  0.00    -0.040 SA
HETATM    2  C   LIG     1      -1.356   1.130   0.105  1.00  0.00     0.178 A 
HETATM    3  N   LIG     1       0.001   1.155  -0.023  1.00  0.00    -0.337 N 
HETATM    4  C   LIG     1       0.720  -0.002  -0.093  1.00  0.00     0.013 A 
HETATM    5  C   LIG     1       2.215   0.043  -0.196  1.00  0.00     0.068 C 
HETATM    6  C   LIG     1       0.059  -1.231   0.000  1.00  0.00     0.099 A 
HETATM    7  N   LIG     1      -2.012  -0.062   0.179  1.00  0.00    -0.300 N 
HETATM    8  C   LIG     1      -1.329  -1.237   0.132  1.00  0.00     0.249 A 
HETATM    9  O   LIG     1      -1.948  -2.332   0.210  1.00  0.00    -0.268 OA
HETATM   10  H   LIG     1       0.498   2.074  -0.070  1.00  0.00     0.168 HD
HETATM   11  H   LIG     1      -3.053  -0.080   0.278  1.00  0.00     0.171 HD
ENDROOT
TORSDOF 0
