MODEL 1
REMARK VINA RESULT:      -5.6      0.000      0.000
REMARK  0 active torsions:
REMARK  status: ('A' for Active; 'I' for Inactive)
ROOT
HETATM    1  S   LIG     1      16.426  35.009  21.329  1.00  0.00    -0.040 SA
HETATM    2  C   LIG     1      16.755  35.763  22.748  1.00  0.00     0.178 A 
HETATM    3  N   LIG     1      17.174  35.038  23.823  1.00  0.00    -0.337 N 
HETATM    4  C   LIG     1      17.444  35.644  25.015  1.00  0.00     0.013 A 
HETATM    5  C   LIG     1      17.939  34.837  26.178  1.00  0.00     0.068 C 
HETATM    6  C   LIG     1      17.320  37.032  25.126  1.00  0.00     0.099 A 
HETATM    7  N   LIG     1      16.614  37.114  22.849  1.00  0.00    -0.300 N 
HETATM    8  C   LIG     1      16.892  37.758  24.015  1.00  0.00     0.249 A 
HETATM    9  O   LIG     1      16.765  39.009  24.092  1.00  0.00    -0.268 OA
HETATM   10  H   LIG     1      17.288  34.002  23.735  1.00  0.00     0.168 HD
HETATM   11  H   LIG     1      16.294  37.670  22.023  1.00  0.00     0.171 HD
ENDROOT
TORSDOF 0
ENDMDL
MODEL 2
REMARK VINA RESULT:      -5.4      1.977      2.883
REMARK  0 active torsions:
REMARK  status: ('A' for Active; 'I' for Inactive)
ROOT
HETATM    1  S   LIG     1      17.801  35.059  26.217  1.00  0.00    -0.040 SA
HETATM    2  C   LIG     1      17.351  35.816  24.834  1.00  0.00     0.178 A 
HETATM    3  N   LIG     1      17.126  35.090  23.703  1.00  0.00    -0.337 N 
HETATM    4  C   LIG     1      16.759  35.701  22.539  1.00  0.00     0.013 A 
HETATM    5  C   LIG     1      16.479  34.885  21.313  1.00  0.00     0.068 C 
HETATM    6  C   LIG     1      16.581  37.088  22.516  1.00  0.00     0.099 A 
HETATM    7  N   LIG     1      17.197  37.170  24.818  1.00  0.00    -0.300 N 
HETATM    8  C   LIG     1      16.814  37.814  23.683  1.00  0.00     0.249 A 
HETATM    9  O   LIG     1      16.668  39.066  23.685  1.00  0.00    -0.268 OA
HETATM   10  H   LIG     1      17.237  34.051  23.726  1.00  0.00     0.168 HD
HETATM   11  H   LIG     1      17.369  37.726  25.687  1.00  0.00     0.171 HD
ENDROOT
TORSDOF 0
ENDMDL
MODEL 3
REMARK VINA RESULT:      -5.3      2.026      3.270
REMARK  0 active torsions:
REMARK  status: ('A' for Active; 'I' for Inactive)
ROOT
HETATM    1  S   LIG     1      16.291  34.944  20.989  1.00  0.00    -0.040 SA
HETATM    2  C   LIG     1      16.804  36.354  21.651  1.00  0.00     0.178 A 
HETATM    3  N   LIG     1      17.623  37.181  20.941  1.00  0.00    -0.337 N 
HETATM    4  C   LIG     1      18.069  38.354  21.476  1.00  0.00     0.013 A 
HETATM    5  C   LIG     1      18.940  39.269  20.669  1.00  0.00     0.068 C 
HETATM    6  C   LIG     1      17.655  38.728  22.758  1.00  0.00     0.099 A 
HETATM    7  N   LIG     1      16.408  36.701  22.908  1.00  0.00    -0.300 N 
HETATM    8  C   LIG     1      16.816  37.871  23.469  1.00  0.00     0.249 A 
HETATM    9  O   LIG     1      16.434  38.183  24.629  1.00  0.00    -0.268 OA
HETATM   10  H   LIG     1      17.915  36.912  19.974  1.00  0.00     0.168 HD
HETATM   11  H   LIG     1      15.778  36.066  23.451  1.00  0.00     0.171 HD
ENDROOT
TORSDOF 0
ENDMDL
MODEL 4
REMARK VINA RESULT:      -5.3      2.748      3.194
REMARK  0 active torsions:
REMARK  status: ('A' for Active; 'I' for Inactive)
ROOT
HETATM    1  S   LIG     1      19.010  39.284  20.349  1.00  0.00    -0.040 SA
HETATM    2  C   LIG     1      18.152  38.387  21.420  1.00  0.00     0.178 A 
HETATM    3  N   LIG     1      17.724  37.140  21.075  1.00  0.00    -0.337 N 
HETATM    4  C   LIG     1      17.000  36.381  21.948  1.00  0.00     0.013 A 
HETATM    5  C   LIG     1      16.569  34.997  21.566  1.00  0.00     0.068 C 
HETATM    6  C   LIG     1      16.722  36.876  23.226  1.00  0.00     0.099 A 
HETATM    7  N   LIG     1      17.872  38.887  22.657  1.00  0.00    -0.300 N 
HETATM    8  C   LIG     1      17.170  38.153  23.561  1.00  0.00     0.249 A 
HETATM    9  O   LIG     1      16.925  38.625  24.704  1.00  0.00    -0.268 OA
HETATM   10  H   LIG     1      17.951  36.760  20.128  1.00  0.00     0.168 HD
HETATM   11  H   LIG     1      18.202  39.843  22.921  1.00  0.00     0.171 HD
ENDROOT
TORSDOF 0
ENDMDL
MODEL 5
REMARK VINA RESULT:      -5.0      7.283      8.527
REMARK  0 active torsions:
REMARK  status: ('A' for Active; 'I' for Inactive)
ROOT
HETATM    1  S   LIG     1      14.773  31.890  20.409  1.00  0.00    -0.040 SA
HETATM    2  C   LIG     1      14.670  32.151  18.794  1.00  0.00     0.178 A 
HETATM    3  N   LIG     1      13.947  31.300  18.012  1.00  0.00    -0.337 N 
HETATM    4  C   LIG     1      13.856  31.493  16.664  1.00  0.00     0.013 A 
HETATM    5  C   LIG     1      13.027  30.569  15.823  1.00  0.00     0.068 C 
HETATM    6  C   LIG     1      14.487  32.597  16.082  1.00  0.00     0.099 A 
HETATM    7  N   LIG     1      15.303  33.220  18.235  1.00  0.00    -0.300 N 
HETATM    8  C   LIG     1      15.220  33.457  16.898  1.00  0.00     0.249 A 
HETATM    9  O   LIG     1      15.804  34.455  16.396  1.00  0.00    -0.268 OA
HETATM   10  H   LIG     1      13.457  30.486  18.450  1.00  0.00     0.168 HD
HETATM   11  H   LIG     1      15.856  33.873  18.836  1.00  0.00     0.171 HD
ENDROOT
TORSDOF 0
ENDMDL
MODEL 6
REMARK VINA RESULT:      -5.0      2.895      3.774
REMARK  0 active torsions:
REMARK  status: ('A' for Active; 'I' for Inactive)
ROOT
HETATM    1  S   LIG     1      17.300  38.088  25.095  1.00  0.00    -0.040 SA
HETATM    2  C   LIG     1      17.517  37.873  23.484  1.00  0.00     0.178 A 
HETATM    3  N   LIG     1      17.009  36.766  22.871  1.00  0.00    -0.337 N 
HETATM    4  C   LIG     1      17.186  36.562  21.534  1.00  0.00     0.013 A 
HETATM    5  C   LIG     1      16.589  35.359  20.868  1.00  0.00     0.068 C 
HETATM    6  C   LIG     1      17.871  37.517  20.776  1.00  0.00     0.099 A 
HETATM    7  N   LIG     1      18.200  38.801  22.758  1.00  0.00    -0.300 N 
HETATM    8  C   LIG     1      18.381  38.644  21.420  1.00  0.00     0.249 A 
HETATM    9  O   LIG     1      19.009  39.515  20.759  1.00  0.00    -0.268 OA
HETATM   10  H   LIG     1      16.478  36.062  23.433  1.00  0.00     0.168 HD
HETATM   11  H   LIG     1      18.588  39.650  23.230  1.00  0.00     0.171 HD
ENDROOT
TORSDOF 0
ENDMDL
MODEL 7
REMARK VINA RESULT:      -5.0      2.018      2.440
REMARK  0 active torsions:
REMARK  status: ('A' for Active; 'I' for Inactive)
ROOT
HETATM    1  S   LIG     1      16.310  34.912  21.447  1.00  0.00    -0.040 SA
HETATM    2  C   LIG     1      16.914  36.326  22.017  1.00  0.00     0.178 A 
HETATM    3  N   LIG     1      16.862  36.600  23.351  1.00  0.00    -0.337 N 
HETATM    4  C   LIG     1      17.349  37.774  23.846  1.00  0.00     0.013 A 
HETATM    5  C   LIG     1      17.318  38.043  25.320  1.00  0.00     0.068 C 
HETATM    6  C   LIG     1      17.939  38.696  22.975  1.00  0.00     0.099 A 
HETATM    7  N   LIG     1      17.470  37.225  21.158  1.00  0.00    -0.300 N 
HETATM    8  C   LIG     1      17.984  38.399  21.614  1.00  0.00     0.249 A 
HETATM    9  O   LIG     1      18.504  39.217  20.809  1.00  0.00    -0.268 OA
HETATM   10  H   LIG     1      16.441  35.900  24.005  1.00  0.00     0.168 HD
HETATM   11  H   LIG     1      17.510  37.014  20.134  1.00  0.00     0.171 HD
ENDROOT
TORSDOF 0
ENDMDL
MODEL 8
REMARK VINA RESULT:      -4.9      5.355      6.342
REMARK  0 active torsions:
REMARK  status: ('A' for Active; 'I' for Inactive)
ROOT
HETATM    1  S   LIG     1      16.136  35.816  21.179  1.00  0.00    -0.040 SA
HETATM    2  C   LIG     1      15.730  34.687  20.062  1.00  0.00     0.178 A 
HETATM    3  N   LIG     1      15.499  33.400  20.447  1.00  0.00    -0.337 N 
HETATM    4  C   LIG     1      15.170  32.443  19.533  1.00  0.00     0.013 A 
HETATM    5  C   LIG     1      14.882  31.041  19.978  1.00  0.00     0.068 C 
HETATM    6  C   LIG     1      15.037  32.794  18.186  1.00  0.00     0.099 A 
HETATM    7  N   LIG     1      15.620  35.036  18.749  1.00  0.00    -0.300 N 
HETATM    8  C   LIG     1      15.275  34.115  17.810  1.00  0.00     0.249 A 
HETATM    9  O   LIG     1      15.169  34.454  16.601  1.00  0.00    -0.268 OA
HETATM   10  H   LIG     1      15.577  33.142  21.458  1.00  0.00     0.168 HD
HETATM   11  H   LIG     1      15.797  36.024  18.455  1.00  0.00     0.171 HD
ENDROOT
TORSDOF 0
ENDMDL
MODEL 9
REMARK VINA RESULT:      -4.6      9.805     10.994
REMARK  0 active torsions:
REMARK  status: ('A' for Active; 'I' for Inactive)
ROOT
HETATM    1  S   LIG     1      14.728  32.582  17.568  1.00  0.00    -0.040 SA
HETATM    2  C   LIG     1      14.893  31.846  16.112  1.00  0.00     0.178 A 
HETATM    3  N   LIG     1      14.103  30.782  15.794  1.00  0.00    -0.337 N 
HETATM    4  C   LIG     1      14.230  30.148  14.593  1.00  0.00     0.013 A 
HETATM    5  C   LIG     1      13.328  29.003  14.243  1.00  0.00     0.068 C 
HETATM    6  C   LIG     1      15.162  30.618  13.661  1.00  0.00     0.099 A 
HETATM    7  N   LIG     1      15.816  32.301  15.219  1.00  0.00    -0.300 N 
HETATM    8  C   LIG     1      15.960  31.708  14.004  1.00  0.00     0.249 A 
HETATM    9  O   LIG     1      16.813  32.145  13.184  1.00  0.00    -0.268 OA
HETATM   10  H   LIG     1      13.390  30.444  16.481  1.00  0.00     0.168 HD
HETATM   11  H   LIG     1      16.421  33.118  15.464  1.00  0.00     0.171 HD
ENDROOT
TORSDOF 0
ENDMDL
MODEL 10
REMARK VINA RESULT:      -4.6      8.729      9.906
REMARK  0 active torsions:
REMARK  status: ('A' for Active; 'I' for Inactive)
ROOT
HETATM    1  S   LIG     1      17.611  33.333  14.504  1.00  0.00    -0.040 SA
HETATM    2  C   LIG     1      16.346  32.531  15.170  1.00  0.00     0.178 A 
HETATM    3  N   LIG     1      15.748  31.514  14.487  1.00  0.00    -0.337 N 
HETATM    4  C   LIG     1      14.688  30.840  15.018  1.00  0.00     0.013 A 
HETATM    5  C   LIG     1      14.066  29.700  14.269  1.00  0.00     0.068 C 
HETATM    6  C   LIG     1      14.228  31.176  16.295  1.00  0.00     0.099 A 
HETATM    7  N   LIG     1      15.894  32.878  16.408  1.00  0.00    -0.300 N 
HETATM    8  C   LIG     1      14.852  32.218  16.980  1.00  0.00     0.249 A 
HETATM    9  O   LIG     1      14.451  32.544  18.129  1.00  0.00    -0.268 OA
HETATM   10  H   LIG     1      16.106  31.248  13.541  1.00  0.00     0.168 HD
HETATM   11  H   LIG     1      16.354  33.658  16.932  1.00  0.00     0.171 HD
ENDROOT
TORSDOF 0
ENDMDL
MODEL 11
REMARK VINA RESULT:      -4.5      1.688      2.896
REMARK  0 active torsions:
REMARK  status: ('A' for Active; 'I' for Inactive)
ROOT
HETATM    1  S   LIG     1      16.065  34.558  20.848  1.00  0.00    -0.040 SA
HETATM    2  C   LIG     1      16.519  35.530  22.088  1.00  0.00     0.178 A 
HETATM    3  N   LIG     1      16.556  36.882  21.915  1.00  0.00    -0.337 N 
HETATM    4  C   LIG     1      16.941  37.708  22.930  1.00  0.00     0.013 A 
HETATM    5  C   LIG     1      16.940  39.194  22.736  1.00  0.00     0.068 C 
HETATM    6  C   LIG     1      17.271  37.163  24.175  1.00  0.00     0.099 A 
HETATM    7  N   LIG     1      16.856  34.987  23.291  1.00  0.00    -0.300 N 
HETATM    8  C   LIG     1      17.226  35.778  24.334  1.00  0.00     0.249 A 
HETATM    9  O   LIG     1      17.526  35.263  25.444  1.00  0.00    -0.268 OA
HETATM   10  H   LIG     1      16.288  37.292  20.991  1.00  0.00     0.168 HD
HETATM   11  H   LIG     1      16.826  33.950  23.423  1.00  0.00     0.171 HD
ENDROOT
TORSDOF 0
ENDMDL
MODEL 12
REMARK VINA RESULT:      -4.5      8.105      9.086
REMARK  0 active torsions:
REMARK  status: ('A' for Active; 'I' for Inactive)
ROOT
HETATM    1  S   LIG     1      17.055  32.940  14.777  1.00  0.00    -0.040 SA
HETATM    2  C   LIG     1      15.907  32.394  15.812  1.00  0.00     0.178 A 
HETATM    3  N   LIG     1      15.972  32.719  17.134  1.00  0.00    -0.337 N 
HETATM    4  C   LIG     1      15.033  32.267  18.014  1.00  0.00     0.013 A 
HETATM    5  C   LIG     1      15.098  32.664  19.458  1.00  0.00     0.068 C 
HETATM    6  C   LIG     1      13.971  31.486  17.548  1.00  0.00     0.099 A 
HETATM    7  N   LIG     1      14.886  31.620  15.349  1.00  0.00    -0.300 N 
HETATM    8  C   LIG     1      13.919  31.165  16.192  1.00  0.00     0.249 A 
HETATM    9  O   LIG     1      12.976  30.457  15.749  1.00  0.00    -0.268 OA
HETATM   10  H   LIG     1      16.754  33.321  17.479  1.00  0.00     0.168 HD
HETATM   11  H   LIG     1      14.836  31.372  14.334  1.00  0.00     0.171 HD
ENDROOT
TORSDOF 0
ENDMDL
MODEL 13
REMARK VINA RESULT:      -4.4      5.611      7.056
REMARK  0 active torsions:
REMARK  status: ('A' for Active; 'I' for Inactive)
ROOT
HETATM    1  S   LIG     1      15.909  35.459  21.095  1.00  0.00    -0.040 SA
HETATM    2  C   LIG     1      15.532  34.242  20.064  1.00  0.00     0.178 A 
HETATM    3  N   LIG     1      15.548  34.460  18.718  1.00  0.00    -0.337 N 
HETATM    4  C   LIG     1      15.229  33.464  17.843  1.00  0.00     0.013 A 
HETATM    5  C   LIG     1      15.288  33.709  16.365  1.00  0.00     0.068 C 
HETATM    6  C   LIG     1      14.910  32.192  18.331  1.00  0.00     0.099 A 
HETATM    7  N   LIG     1      15.206  33.012  20.551  1.00  0.00    -0.300 N 
HETATM    8  C   LIG     1      14.900  31.988  19.710  1.00  0.00     0.249 A 
HETATM    9  O   LIG     1      14.609  30.853  20.175  1.00  0.00    -0.268 OA
HETATM   10  H   LIG     1      15.808  35.404  18.352  1.00  0.00     0.168 HD
HETATM   11  H   LIG     1      15.194  32.845  21.584  1.00  0.00     0.171 HD
ENDROOT
TORSDOF 0
ENDMDL
MODEL 14
REMARK VINA RESULT:      -4.4      8.013      9.288
REMARK  0 active torsions:
REMARK  status: ('A' for Active; 'I' for Inactive)
ROOT
HETATM    1  S   LIG     1      15.192  33.884  19.217  1.00  0.00    -0.040 SA
HETATM    2  C   LIG     1      14.904  32.947  17.903  1.00  0.00     0.178 A 
HETATM    3  N   LIG     1      15.728  33.020  16.820  1.00  0.00    -0.337 N 
HETATM    4  C   LIG     1      15.500  32.256  15.713  1.00  0.00     0.013 A 
HETATM    5  C   LIG     1      16.437  32.322  14.544  1.00  0.00     0.068 C 
HETATM    6  C   LIG     1      14.426  31.361  15.702  1.00  0.00     0.099 A 
HETATM    7  N   LIG     1      13.844  32.091  17.897  1.00  0.00    -0.300 N 
HETATM    8  C   LIG     1      13.595  31.299  16.820  1.00  0.00     0.249 A 
HETATM    9  O   LIG     1      12.615  30.506  16.831  1.00  0.00    -0.268 OA
HETATM   10  H   LIG     1      16.545  33.673  16.836  1.00  0.00     0.168 HD
HETATM   11  H   LIG     1      13.213  32.034  18.729  1.00  0.00     0.171 HD
ENDROOT
TORSDOF 0
ENDMDL
MODEL 15
REMARK VINA RESULT:      -4.3      9.205     10.257
REMARK  0 active torsions:
REMARK  status: ('A' for Active; 'I' for Inactive)
ROOT
HETATM    1  S   LIG     1      17.763  33.519  13.845  1.00  0.00    -0.040 SA
HETATM    2  C   LIG     1      16.582  32.656  14.584  1.00  0.00     0.178 A 
HETATM    3  N   LIG     1      16.223  32.950  15.866  1.00  0.00    -0.337 N 
HETATM    4  C   LIG     1      15.250  32.239  16.503  1.00  0.00     0.013 A 
HETATM    5  C   LIG     1      14.842  32.600  17.900  1.00  0.00     0.068 C 
HETATM    6  C   LIG     1      14.587  31.213  15.821  1.00  0.00     0.099 A 
HETATM    7  N   LIG     1      15.955  31.647  13.916  1.00  0.00    -0.300 N 
HETATM    8  C   LIG     1      14.966  30.927  14.510  1.00  0.00     0.249 A 
HETATM    9  O   LIG     1      14.389  30.002  13.877  1.00  0.00    -0.268 OA
HETATM   10  H   LIG     1      16.703  33.732  16.369  1.00  0.00     0.168 HD
HETATM   11  H   LIG     1      16.230  31.422  12.932  1.00  0.00     0.171 HD
ENDROOT
TORSDOF 0
ENDMDL
MODEL 16
REMARK VINA RESULT:      -4.2      9.703     10.234
REMARK  0 active torsions:
REMARK  status: ('A' for Active; 'I' for Inactive)
ROOT
HETATM    1  S   LIG     1      14.991  28.990  13.797  1.00  0.00    -0.040 SA
HETATM    2  C   LIG     1      15.053  30.342  14.722  1.00  0.00     0.178 A 
HETATM    3  N   LIG     1      16.017  31.279  14.495  1.00  0.00    -0.337 N 
HETATM    4  C   LIG     1      16.093  32.406  15.259  1.00  0.00     0.013 A 
HETATM    5  C   LIG     1      17.136  33.444  14.972  1.00  0.00     0.068 C 
HETATM    6  C   LIG     1      15.150  32.619  16.270  1.00  0.00     0.099 A 
HETATM    7  N   LIG     1      14.140  30.531  15.715  1.00  0.00    -0.300 N 
HETATM    8  C   LIG     1      14.171  31.650  16.487  1.00  0.00     0.249 A 
HETATM    9  O   LIG     1      13.314  31.816  17.396  1.00  0.00    -0.268 OA
HETATM   10  H   LIG     1      16.709  31.131  13.725  1.00  0.00     0.168 HD
HETATM   11  H   LIG     1      13.400  29.812  15.888  1.00  0.00     0.171 HD
ENDROOT
TORSDOF 0
ENDMDL
MODEL 17
REMARK VINA RESULT:      -3.6      8.567      9.706
REMARK  0 active torsions:
REMARK  status: ('A' for Active; 'I' for Inactive)
ROOT
HETATM    1  S   LIG     1      14.006  30.372  15.281  1.00  0.00    -0.040 SA
HETATM    2  C   LIG     1      14.995  31.678  15.320  1.00  0.00     0.178 A 
HETATM    3  N   LIG     1      15.909  31.871  14.327  1.00  0.00    -0.337 N 
HETATM    4  C   LIG     1      16.748  32.946  14.346  1.00  0.00     0.013 A 
HETATM    5  C   LIG     1      17.722  33.163  13.227  1.00  0.00     0.068 C 
HETATM    6  C   LIG     1      16.648  33.881  15.381  1.00  0.00     0.099 A 
HETATM    7  N   LIG     1      14.900  32.574  16.343  1.00  0.00    -0.300 N 
HETATM    8  C   LIG     1      15.706  33.668  16.387  1.00  0.00     0.249 A 
HETATM    9  O   LIG     1      15.602  34.492  17.335  1.00  0.00    -0.268 OA
HETATM   10  H   LIG     1      15.969  31.184  13.541  1.00  0.00     0.168 HD
HETATM   11  H   LIG     1      14.198  32.425  17.104  1.00  0.00     0.171 HD
ENDROOT
TORSDOF 0
ENDMDL
MODEL 18
REMARK VINA RESULT:      -3.1     11.094     12.047
REMARK  0 active torsions:
REMARK  status: ('A' for Active; 'I' for Inactive)
ROOT
HETATM    1  S   LIG     1      20.800  33.660  10.593  1.00  0.00    -0.040 SA
HETATM    2  C   LIG     1      19.466  33.959  11.497  1.00  0.00     0.178 A 
HETATM    3  N   LIG     1      19.336  33.389  12.729  1.00  0.00    -0.337 N 
HETATM    4  C   LIG     1      18.230  33.616  13.494  1.00  0.00     0.013 A 
HETATM    5  C   LIG     1      18.121  33.012  14.862  1.00  0.00     0.068 C 
HETATM    6  C   LIG     1      17.230  34.472  13.022  1.00  0.00     0.099 A 
HETATM    7  N   LIG     1      18.489  34.780  11.020  1.00  0.00    -0.300 N 
HETATM    8  C   LIG     1      17.380  35.047  11.761  1.00  0.00     0.249 A 
HETATM    9  O   LIG     1      16.488  35.815  11.310  1.00  0.00    -0.268 OA
HETATM   10  H   LIG     1      20.095  32.767  13.092  1.00  0.00     0.168 HD
HETATM   11  H   LIG     1      18.590  35.218  10.076  1.00  0.00     0.171 HD
ENDROOT
TORSDOF 0
ENDMDL
MODEL 19
REMARK VINA RESULT:      -3.1     12.928     13.833
REMARK  0 active torsions:
REMARK  status: ('A' for Active; 'I' for Inactive)
ROOT
HETATM    1  S   LIG     1      17.774  33.893  12.746  1.00  0.00    -0.040 SA
HETATM    2  C   LIG     1      19.071  33.770  11.751  1.00  0.00     0.178 A 
HETATM    3  N   LIG     1      19.542  32.541  11.395  1.00  0.00    -0.337 N 
HETATM    4  C   LIG     1      20.626  32.416  10.576  1.00  0.00     0.013 A 
HETATM    5  C   LIG     1      21.109  31.058  10.165  1.00  0.00     0.068 C 
HETATM    6  C   LIG     1      21.243  33.564  10.069  1.00  0.00     0.099 A 
HETATM    7  N   LIG     1      19.675  34.895  11.276  1.00  0.00    -0.300 N 
HETATM    8  C   LIG     1      20.746  34.812  10.442  1.00  0.00     0.249 A 
HETATM    9  O   LIG     1      21.290  35.861  10.005  1.00  0.00    -0.268 OA
HETATM   10  H   LIG     1      19.068  31.682  11.756  1.00  0.00     0.168 HD
HETATM   11  H   LIG     1      19.312  35.838  11.549  1.00  0.00     0.171 HD
ENDROOT
TORSDOF 0
ENDMDL
