REMARK  0 active torsions:
REMARK  status: ('A' for Active; 'I' for Inactive)
ROOT
HETATM    1 CL   LIG     1      -1.187  -1.316  -0.144  1.00  0.00    -0.067 Cl
HETATM    2  C   LIG     1       0.000   0.000   0.000  1.00  0.00     0.267 C 
HETATM    3 CL   LIG     1      -0.826   1.565  -0.172  1.00  0.00    -0.067 Cl
HETATM    4 CL   LIG     1       0.787  -0.083   1.592  1.00  0.00    -0.067 Cl
HETATM    5 CL   LIG     1       1.226  -0.166  -1.277  1.00  0.00    -0.067 Cl
ENDROOT
TORSDOF 0
