MODEL 1
REMARK VINA RESULT:      -3.4      0.000      0.000
REMARK  0 active torsions:
REMARK  status: ('A' for Active; 'I' for Inactive)
ROOT
HETATM    1 CL   LIG     1      17.043  35.157  23.193  1.00  0.00    -0.067 Cl
HETATM    2  C   LIG     1      16.496  36.293  21.939  1.00  0.00     0.267 C 
HETATM    3 CL   LIG     1      14.911  35.774  21.321  1.00  0.00    -0.067 Cl
HETATM    4 CL   LIG     1      16.356  37.923  22.635  1.00  0.00    -0.067 Cl
HETATM    5 CL   LIG     1      17.673  36.316  20.607  1.00  0.00    -0.067 Cl
ENDROOT
TORSDOF 0
ENDMDL
MODEL 2
REMARK VINA RESULT:      -3.4      0.007      2.597
REMARK  0 active torsions:
REMARK  status: ('A' for Active; 'I' for Inactive)
ROOT
HETATM    1 CL   LIG     1      14.914  35.770  21.315  1.00  0.00    -0.067 Cl
HETATM    2  C   LIG     1      16.496  36.294  21.936  1.00  0.00     0.267 C 
HETATM    3 CL   LIG     1      17.043  35.164  23.195  1.00  0.00    -0.067 Cl
HETATM    4 CL   LIG     1      17.677  36.317  20.607  1.00  0.00    -0.067 Cl
HETATM    5 CL   LIG     1      16.349  37.925  22.627  1.00  0.00    -0.067 Cl
ENDROOT
TORSDOF 0
ENDMDL
MODEL 3
REMARK VINA RESULT:      -3.4      0.023      2.249
REMARK  0 active torsions:
REMARK  status: ('A' for Active; 'I' for Inactive)
ROOT
HETATM    1 CL   LIG     1      17.687  36.338  20.629  1.00  0.00    -0.067 Cl
HETATM    2  C   LIG     1      16.498  36.305  21.950  1.00  0.00     0.267 C 
HETATM    3 CL   LIG     1      14.923  35.773  21.317  1.00  0.00    -0.067 Cl
HETATM    4 CL   LIG     1      17.042  35.175  23.210  1.00  0.00    -0.067 Cl
HETATM    5 CL   LIG     1      16.337  37.934  22.643  1.00  0.00    -0.067 Cl
ENDROOT
TORSDOF 0
ENDMDL
MODEL 4
REMARK VINA RESULT:      -3.4      0.018      2.250
REMARK  0 active torsions:
REMARK  status: ('A' for Active; 'I' for Inactive)
ROOT
HETATM    1 CL   LIG     1      14.899  35.773  21.312  1.00  0.00    -0.067 Cl
HETATM    2  C   LIG     1      16.486  36.286  21.928  1.00  0.00     0.267 C 
HETATM    3 CL   LIG     1      16.355  37.920  22.617  1.00  0.00    -0.067 Cl
HETATM    4 CL   LIG     1      17.028  35.153  23.187  1.00  0.00    -0.067 Cl
HETATM    5 CL   LIG     1      17.663  36.298  20.596  1.00  0.00    -0.067 Cl
ENDROOT
TORSDOF 0
ENDMDL
MODEL 5
REMARK VINA RESULT:      -3.4      0.002      2.249
REMARK  0 active torsions:
REMARK  status: ('A' for Active; 'I' for Inactive)
ROOT
HETATM    1 CL   LIG     1      17.043  35.159  23.193  1.00  0.00    -0.067 Cl
HETATM    2  C   LIG     1      16.497  36.293  21.937  1.00  0.00     0.267 C 
HETATM    3 CL   LIG     1      17.675  36.317  20.606  1.00  0.00    -0.067 Cl
HETATM    4 CL   LIG     1      14.913  35.774  21.318  1.00  0.00    -0.067 Cl
HETATM    5 CL   LIG     1      16.356  37.923  22.633  1.00  0.00    -0.067 Cl
ENDROOT
TORSDOF 0
ENDMDL
MODEL 6
REMARK VINA RESULT:      -3.4      0.027      2.259
REMARK  0 active torsions:
REMARK  status: ('A' for Active; 'I' for Inactive)
ROOT
HETATM    1 CL   LIG     1      16.369  37.945  22.599  1.00  0.00    -0.067 Cl
HETATM    2  C   LIG     1      16.498  36.304  21.927  1.00  0.00     0.267 C 
HETATM    3 CL   LIG     1      14.908  35.785  21.322  1.00  0.00    -0.067 Cl
HETATM    4 CL   LIG     1      17.670  36.301  20.591  1.00  0.00    -0.067 Cl
HETATM    5 CL   LIG     1      17.042  35.185  23.197  1.00  0.00    -0.067 Cl
ENDROOT
TORSDOF 0
ENDMDL
MODEL 7
REMARK VINA RESULT:      -3.4      0.024      2.597
REMARK  0 active torsions:
REMARK  status: ('A' for Active; 'I' for Inactive)
ROOT
HETATM    1 CL   LIG     1      17.687  36.341  20.629  1.00  0.00    -0.067 Cl
HETATM    2  C   LIG     1      16.497  36.303  21.949  1.00  0.00     0.267 C 
HETATM    3 CL   LIG     1      16.333  37.929  22.648  1.00  0.00    -0.067 Cl
HETATM    4 CL   LIG     1      14.924  35.770  21.314  1.00  0.00    -0.067 Cl
HETATM    5 CL   LIG     1      17.043  35.170  23.206  1.00  0.00    -0.067 Cl
ENDROOT
TORSDOF 0
ENDMDL
MODEL 8
REMARK VINA RESULT:      -3.4      0.077      2.244
REMARK  0 active torsions:
REMARK  status: ('A' for Active; 'I' for Inactive)
ROOT
HETATM    1 CL   LIG     1      17.679  36.337  20.684  1.00  0.00    -0.067 Cl
HETATM    2  C   LIG     1      16.471  36.286  21.989  1.00  0.00     0.267 C 
HETATM    3 CL   LIG     1      17.024  35.180  23.266  1.00  0.00    -0.067 Cl
HETATM    4 CL   LIG     1      16.262  37.917  22.666  1.00  0.00    -0.067 Cl
HETATM    5 CL   LIG     1      14.920  35.711  21.337  1.00  0.00    -0.067 Cl
ENDROOT
TORSDOF 0
ENDMDL
MODEL 9
REMARK VINA RESULT:      -3.4      0.123      2.598
REMARK  0 active torsions:
REMARK  status: ('A' for Active; 'I' for Inactive)
ROOT
HETATM    1 CL   LIG     1      16.247  37.919  22.780  1.00  0.00    -0.067 Cl
HETATM    2  C   LIG     1      16.472  36.327  22.020  1.00  0.00     0.267 C 
HETATM    3 CL   LIG     1      17.675  36.457  20.718  1.00  0.00    -0.067 Cl
HETATM    4 CL   LIG     1      17.040  35.164  23.238  1.00  0.00    -0.067 Cl
HETATM    5 CL   LIG     1      14.925  35.770  21.343  1.00  0.00    -0.067 Cl
ENDROOT
TORSDOF 0
ENDMDL
MODEL 10
REMARK VINA RESULT:      -3.3      3.800      5.085
REMARK  0 active torsions:
REMARK  status: ('A' for Active; 'I' for Inactive)
ROOT
HETATM    1 CL   LIG     1      18.634  36.820  19.317  1.00  0.00    -0.067 Cl
HETATM    2  C   LIG     1      19.202  38.504  19.274  1.00  0.00     0.267 C 
HETATM    3 CL   LIG     1      20.972  38.537  19.443  1.00  0.00    -0.067 Cl
HETATM    4 CL   LIG     1      18.741  39.246  17.726  1.00  0.00    -0.067 Cl
HETATM    5 CL   LIG     1      18.462  39.413  20.611  1.00  0.00    -0.067 Cl
ENDROOT
TORSDOF 0
ENDMDL
MODEL 11
REMARK VINA RESULT:      -3.3      3.805      4.635
REMARK  0 active torsions:
REMARK  status: ('A' for Active; 'I' for Inactive)
ROOT
HETATM    1 CL   LIG     1      18.652  36.819  19.330  1.00  0.00    -0.067 Cl
HETATM    2  C   LIG     1      19.214  38.505  19.275  1.00  0.00     0.267 C 
HETATM    3 CL   LIG     1      18.747  39.235  17.722  1.00  0.00    -0.067 Cl
HETATM    4 CL   LIG     1      18.473  39.420  20.607  1.00  0.00    -0.067 Cl
HETATM    5 CL   LIG     1      20.983  38.546  19.440  1.00  0.00    -0.067 Cl
ENDROOT
TORSDOF 0
ENDMDL
MODEL 12
REMARK VINA RESULT:      -3.3      3.752      5.041
REMARK  0 active torsions:
REMARK  status: ('A' for Active; 'I' for Inactive)
ROOT
HETATM    1 CL   LIG     1      18.651  39.347  17.891  1.00  0.00    -0.067 Cl
HETATM    2  C   LIG     1      19.179  38.518  19.373  1.00  0.00     0.267 C 
HETATM    3 CL   LIG     1      18.496  39.346  20.791  1.00  0.00    -0.067 Cl
HETATM    4 CL   LIG     1      18.616  36.832  19.342  1.00  0.00    -0.067 Cl
HETATM    5 CL   LIG     1      20.954  38.549  19.468  1.00  0.00    -0.067 Cl
ENDROOT
TORSDOF 0
ENDMDL
MODEL 13
REMARK VINA RESULT:      -3.3      1.580      2.080
REMARK  0 active torsions:
REMARK  status: ('A' for Active; 'I' for Inactive)
ROOT
HETATM    1 CL   LIG     1      17.632  37.736  24.442  1.00  0.00    -0.067 Cl
HETATM    2  C   LIG     1      16.931  37.158  22.913  1.00  0.00     0.267 C 
HETATM    3 CL   LIG     1      16.964  35.381  22.880  1.00  0.00    -0.067 Cl
HETATM    4 CL   LIG     1      15.251  37.722  22.781  1.00  0.00    -0.067 Cl
HETATM    5 CL   LIG     1      17.879  37.794  21.550  1.00  0.00    -0.067 Cl
ENDROOT
TORSDOF 0
ENDMDL
MODEL 14
REMARK VINA RESULT:      -3.3      1.656      2.640
REMARK  0 active torsions:
REMARK  status: ('A' for Active; 'I' for Inactive)
ROOT
HETATM    1 CL   LIG     1      17.024  35.417  22.651  1.00  0.00    -0.067 Cl
HETATM    2  C   LIG     1      16.945  37.173  22.919  1.00  0.00     0.267 C 
HETATM    3 CL   LIG     1      17.937  38.004  21.699  1.00  0.00    -0.067 Cl
HETATM    4 CL   LIG     1      15.258  37.718  22.783  1.00  0.00    -0.067 Cl
HETATM    5 CL   LIG     1      17.562  37.553  24.543  1.00  0.00    -0.067 Cl
ENDROOT
TORSDOF 0
ENDMDL
MODEL 15
REMARK VINA RESULT:      -3.2      1.624      2.746
REMARK  0 active torsions:
REMARK  status: ('A' for Active; 'I' for Inactive)
ROOT
HETATM    1 CL   LIG     1      17.066  35.535  22.185  1.00  0.00    -0.067 Cl
HETATM    2  C   LIG     1      16.936  37.175  22.862  1.00  0.00     0.267 C 
HETATM    3 CL   LIG     1      17.469  37.160  24.558  1.00  0.00    -0.067 Cl
HETATM    4 CL   LIG     1      17.963  38.285  21.927  1.00  0.00    -0.067 Cl
HETATM    5 CL   LIG     1      15.245  37.718  22.777  1.00  0.00    -0.067 Cl
ENDROOT
TORSDOF 0
ENDMDL
MODEL 16
REMARK VINA RESULT:      -3.1      2.071      3.426
REMARK  0 active torsions:
REMARK  status: ('A' for Active; 'I' for Inactive)
ROOT
HETATM    1 CL   LIG     1      15.889  39.048  22.531  1.00  0.00    -0.067 Cl
HETATM    2  C   LIG     1      17.454  38.208  22.600  1.00  0.00     0.267 C 
HETATM    3 CL   LIG     1      17.969  38.052  24.294  1.00  0.00    -0.067 Cl
HETATM    4 CL   LIG     1      17.291  36.592  21.878  1.00  0.00    -0.067 Cl
HETATM    5 CL   LIG     1      18.668  39.142  21.696  1.00  0.00    -0.067 Cl
ENDROOT
TORSDOF 0
ENDMDL
MODEL 17
REMARK VINA RESULT:      -3.1      2.048      3.281
REMARK  0 active torsions:
REMARK  status: ('A' for Active; 'I' for Inactive)
ROOT
HETATM    1 CL   LIG     1      15.808  38.988  22.506  1.00  0.00    -0.067 Cl
HETATM    2  C   LIG     1      17.437  38.278  22.439  1.00  0.00     0.267 C 
HETATM    3 CL   LIG     1      18.503  39.329  21.478  1.00  0.00    -0.067 Cl
HETATM    4 CL   LIG     1      18.085  38.124  24.087  1.00  0.00    -0.067 Cl
HETATM    5 CL   LIG     1      17.352  36.671  21.682  1.00  0.00    -0.067 Cl
ENDROOT
TORSDOF 0
ENDMDL
MODEL 18
REMARK VINA RESULT:      -3.1      2.052      3.211
REMARK  0 active torsions:
REMARK  status: ('A' for Active; 'I' for Inactive)
ROOT
HETATM    1 CL   LIG     1      15.824  39.004  22.611  1.00  0.00    -0.067 Cl
HETATM    2  C   LIG     1      17.375  38.137  22.669  1.00  0.00     0.267 C 
HETATM    3 CL   LIG     1      17.153  36.484  22.054  1.00  0.00    -0.067 Cl
HETATM    4 CL   LIG     1      18.568  38.989  21.663  1.00  0.00    -0.067 Cl
HETATM    5 CL   LIG     1      17.954  38.071  24.349  1.00  0.00    -0.067 Cl
ENDROOT
TORSDOF 0
ENDMDL
MODEL 19
REMARK VINA RESULT:      -3.0     11.313     12.558
REMARK  0 active torsions:
REMARK  status: ('A' for Active; 'I' for Inactive)
ROOT
HETATM    1 CL   LIG     1      26.850  37.433  19.025  1.00  0.00    -0.067 Cl
HETATM    2  C   LIG     1      28.284  38.463  19.238  1.00  0.00     0.267 C 
HETATM    3 CL   LIG     1      29.326  37.773  20.502  1.00  0.00    -0.067 Cl
HETATM    4 CL   LIG     1      29.185  38.550  17.708  1.00  0.00    -0.067 Cl
HETATM    5 CL   LIG     1      27.773  40.097  19.719  1.00  0.00    -0.067 Cl
ENDROOT
TORSDOF 0
ENDMDL
MODEL 20
REMARK VINA RESULT:      -2.7     10.146     11.406
REMARK  0 active torsions:
REMARK  status: ('A' for Active; 'I' for Inactive)
ROOT
HETATM    1 CL   LIG     1      21.712  34.744  12.661  1.00  0.00    -0.067 Cl
HETATM    2  C   LIG     1      20.357  34.006  11.777  1.00  0.00     0.267 C 
HETATM    3 CL   LIG     1      19.834  35.098  10.475  1.00  0.00    -0.067 Cl
HETATM    4 CL   LIG     1      20.878  32.457  11.078  1.00  0.00    -0.067 Cl
HETATM    5 CL   LIG     1      19.002  33.727  12.895  1.00  0.00    -0.067 Cl
ENDROOT
TORSDOF 0
ENDMDL
