REMARK  1 active torsions:
REMARK  status: ('A' for Active; 'I' for Inactive)
REMARK    1  A    between atoms: C_7  and  C_8 
ROOT
HETATM    1  O   LIG     1       3.512   1.046   1.850  1.00  0.00    -0.246 OA
HETATM    2  C   LIG     1       2.731   0.312   1.186  1.00  0.00     0.331 C 
HETATM    3  N   LIG     1       2.467   0.588  -0.198  1.00  0.00    -0.273 N 
HETATM    4  C   LIG     1       3.202   1.646  -0.896  1.00  0.00     0.164 C 
HETATM    5  N   LIG     1       2.132  -0.823   1.810  1.00  0.00    -0.277 N 
HETATM    6  C   LIG     1       1.161  -1.616   1.121  1.00  0.00     0.247 C 
HETATM    7  C   LIG     1       0.573  -1.148  -0.206  1.00  0.00     0.142 C 
HETATM    8  C   LIG     1       0.198  -2.394  -1.047  1.00  0.00     0.041 C 
HETATM    9  C   LIG     1       1.624  -0.317  -0.932  1.00  0.00     0.249 C 
HETATM   10  O   LIG     1       1.724  -0.378  -2.190  1.00  0.00    -0.271 OA
HETATM   11  O   LIG     1       0.730  -2.666   1.673  1.00  0.00    -0.271 OA
HETATM   12  H   LIG     1       2.412  -1.082   2.783  1.00  0.00     0.173 HD
ENDROOT
BRANCH   7  13
HETATM   13  C   LIG     1      -0.683  -0.279   0.013  1.00  0.00    -0.057 C 
HETATM   14  C   LIG     1      -1.318  -0.173   1.399  1.00  0.00     0.036 C 
HETATM   15  C   LIG     1      -2.385   0.922   1.514  1.00  0.00     0.005 C 
HETATM   16  C   LIG     1      -3.325   0.877   0.315  1.00  0.00     0.004 C 
HETATM   17  C   LIG     1      -2.534   1.138  -0.965  1.00  0.00     0.027 C 
HETATM   18  C   LIG     1      -1.306   0.270  -1.063  1.00  0.00    -0.022 C 
ENDBRANCH   7  13
TORSDOF 1
