REMARK  0 active torsions:
REMARK  status: ('A' for Active; 'I' for Inactive)
ROOT
HETATM    1  C   LIG     1       5.247   0.442   0.175  1.00  0.00     0.049 C 
HETATM    2  C   LIG     1       3.774   0.724   0.119  1.00  0.00    -0.055 A 
HETATM    3  C   LIG     1       3.313   2.062   0.080  1.00  0.00     0.008 A 
HETATM    4  C   LIG     1       1.931   2.348   0.027  1.00  0.00     0.013 A 
HETATM    5  C   LIG     1       1.000   1.295   0.013  1.00  0.00    -0.024 A 
HETATM    6  C   LIG     1      -0.392   1.478  -0.039  1.00  0.00     0.025 A 
HETATM    7  C   LIG     1      -1.274   0.350  -0.051  1.00  0.00    -0.013 A 
HETATM    8  C   LIG     1      -0.702  -0.966  -0.008  1.00  0.00    -0.018 A 
HETATM    9  C   LIG     1      -1.525  -2.097  -0.017  1.00  0.00     0.014 A 
HETATM   10  C   LIG     1      -2.906  -1.963  -0.068  1.00  0.00     0.013 A 
HETATM   11  C   LIG     1      -3.500  -0.697  -0.110  1.00  0.00    -0.025 A 
HETATM   12  C   LIG     1      -2.696   0.480  -0.102  1.00  0.00    -0.015 A 
HETATM   13  C   LIG     1      -3.358   1.733  -0.147  1.00  0.00     0.013 A 
HETATM   14  C   LIG     1      -4.752   1.807  -0.197  1.00  0.00     0.001 A 
HETATM   15  C   LIG     1      -5.520   0.647  -0.204  1.00  0.00     0.001 A 
HETATM   16  C   LIG     1      -4.900  -0.599  -0.161  1.00  0.00     0.012 A 
HETATM   17  C   LIG     1       2.816  -0.305   0.103  1.00  0.00    -0.040 A 
HETATM   18  C   LIG     1       1.488  -0.001   0.052  1.00  0.00    -0.012 A 
HETATM   19  C   LIG     1       0.695  -1.102   0.043  1.00  0.00    -0.035 A 
HETATM   20  C   LIG     1       1.543  -2.339   0.094  1.00  0.00     0.045 A 
HETATM   21  C   LIG     1       2.996  -1.792   0.135  1.00  0.00     0.044 A 
ENDROOT
TORSDOF 0
