MODEL 1
REMARK VINA RESULT:      -6.7      0.000      0.000
REMARK  0 active torsions:
REMARK  status: ('A' for Active; 'I' for Inactive)
ROOT
HETATM    1  C   LIG     1      13.862  30.957  16.656  1.00  0.00     0.049 C 
HETATM    2  C   LIG     1      14.552  32.166  17.216  1.00  0.00    -0.055 A 
HETATM    3  C   LIG     1      15.040  33.168  16.342  1.00  0.00     0.008 A 
HETATM    4  C   LIG     1      15.692  34.313  16.849  1.00  0.00     0.013 A 
HETATM    5  C   LIG     1      15.860  34.464  18.237  1.00  0.00    -0.024 A 
HETATM    6  C   LIG     1      16.494  35.565  18.836  1.00  0.00     0.025 A 
HETATM    7  C   LIG     1      16.624  35.644  20.259  1.00  0.00    -0.013 A 
HETATM    8  C   LIG     1      16.094  34.573  21.055  1.00  0.00    -0.018 A 
HETATM    9  C   LIG     1      16.200  34.606  22.449  1.00  0.00     0.014 A 
HETATM   10  C   LIG     1      16.817  35.675  23.084  1.00  0.00     0.013 A 
HETATM   11  C   LIG     1      17.347  36.737  22.342  1.00  0.00    -0.025 A 
HETATM   12  C   LIG     1      17.260  36.740  20.919  1.00  0.00    -0.015 A 
HETATM   13  C   LIG     1      17.815  37.845  20.225  1.00  0.00     0.013 A 
HETATM   14  C   LIG     1      18.425  38.894  20.917  1.00  0.00     0.001 A 
HETATM   15  C   LIG     1      18.501  38.873  22.306  1.00  0.00     0.001 A 
HETATM   16  C   LIG     1      17.965  37.802  23.017  1.00  0.00     0.012 A 
HETATM   17  C   LIG     1      14.737  32.349  18.598  1.00  0.00    -0.040 A 
HETATM   18  C   LIG     1      15.370  33.464  19.061  1.00  0.00    -0.012 A 
HETATM   19  C   LIG     1      15.468  33.491  20.414  1.00  0.00    -0.035 A 
HETATM   20  C   LIG     1      14.838  32.259  20.993  1.00  0.00     0.045 A 
HETATM   21  C   LIG     1      14.337  31.477  19.748  1.00  0.00     0.044 A 
ENDROOT
TORSDOF 0
ENDMDL
MODEL 2
REMARK VINA RESULT:      -6.5     17.726     19.665
REMARK  0 active torsions:
REMARK  status: ('A' for Active; 'I' for Inactive)
ROOT
HETATM    1  C   LIG     1      28.069  23.802  30.034  1.00  0.00     0.049 C 
HETATM    2  C   LIG     1      27.737  24.985  30.895  1.00  0.00    -0.055 A 
HETATM    3  C   LIG     1      27.318  26.198  30.297  1.00  0.00     0.008 A 
HETATM    4  C   LIG     1      27.001  27.322  31.090  1.00  0.00     0.013 A 
HETATM    5  C   LIG     1      27.101  27.240  32.490  1.00  0.00    -0.024 A 
HETATM    6  C   LIG     1      26.807  28.302  33.362  1.00  0.00     0.025 A 
HETATM    7  C   LIG     1      26.933  28.136  34.779  1.00  0.00    -0.013 A 
HETATM    8  C   LIG     1      27.366  26.863  35.282  1.00  0.00    -0.018 A 
HETATM    9  C   LIG     1      27.504  26.655  36.658  1.00  0.00     0.014 A 
HETATM   10  C   LIG     1      27.225  27.676  37.557  1.00  0.00     0.013 A 
HETATM   11  C   LIG     1      26.801  28.930  37.104  1.00  0.00    -0.025 A 
HETATM   12  C   LIG     1      26.649  29.182  35.709  1.00  0.00    -0.015 A 
HETATM   13  C   LIG     1      26.216  30.473  35.314  1.00  0.00     0.013 A 
HETATM   14  C   LIG     1      25.949  31.463  36.263  1.00  0.00     0.001 A 
HETATM   15  C   LIG     1      26.104  31.198  37.620  1.00  0.00     0.001 A 
HETATM   16  C   LIG     1      26.527  29.940  38.040  1.00  0.00     0.012 A 
HETATM   17  C   LIG     1      27.825  24.937  32.298  1.00  0.00    -0.040 A 
HETATM   18  C   LIG     1      27.513  26.037  33.040  1.00  0.00    -0.012 A 
HETATM   19  C   LIG     1      27.648  25.829  34.374  1.00  0.00    -0.035 A 
HETATM   20  C   LIG     1      28.110  24.424  34.624  1.00  0.00     0.045 A 
HETATM   21  C   LIG     1      28.231  23.813  33.202  1.00  0.00     0.044 A 
ENDROOT
TORSDOF 0
ENDMDL
MODEL 3
REMARK VINA RESULT:      -6.5     14.765     16.316
REMARK  0 active torsions:
REMARK  status: ('A' for Active; 'I' for Inactive)
ROOT
HETATM    1  C   LIG     1      22.776  20.184  27.906  1.00  0.00     0.049 C 
HETATM    2  C   LIG     1      23.326  20.878  26.694  1.00  0.00    -0.055 A 
HETATM    3  C   LIG     1      24.163  22.009  26.848  1.00  0.00     0.008 A 
HETATM    4  C   LIG     1      24.690  22.675  25.720  1.00  0.00     0.013 A 
HETATM    5  C   LIG     1      24.382  22.213  24.428  1.00  0.00    -0.024 A 
HETATM    6  C   LIG     1      24.858  22.808  23.247  1.00  0.00     0.025 A 
HETATM    7  C   LIG     1      24.498  22.274  21.968  1.00  0.00    -0.013 A 
HETATM    8  C   LIG     1      23.641  21.123  21.924  1.00  0.00    -0.018 A 
HETATM    9  C   LIG     1      23.263  20.568  20.697  1.00  0.00     0.014 A 
HETATM   10  C   LIG     1      23.709  21.122  19.505  1.00  0.00     0.013 A 
HETATM   11  C   LIG     1      24.544  22.245  19.508  1.00  0.00    -0.025 A 
HETATM   12  C   LIG     1      24.952  22.840  20.738  1.00  0.00    -0.015 A 
HETATM   13  C   LIG     1      25.799  23.975  20.674  1.00  0.00     0.013 A 
HETATM   14  C   LIG     1      26.217  24.490  19.444  1.00  0.00     0.001 A 
HETATM   15  C   LIG     1      25.809  23.896  18.255  1.00  0.00     0.001 A 
HETATM   16  C   LIG     1      24.977  22.780  18.284  1.00  0.00     0.012 A 
HETATM   17  C   LIG     1      23.038  20.442  25.388  1.00  0.00    -0.040 A 
HETATM   18  C   LIG     1      23.560  21.104  24.317  1.00  0.00    -0.012 A 
HETATM   19  C   LIG     1      23.190  20.561  23.130  1.00  0.00    -0.035 A 
HETATM   20  C   LIG     1      22.301  19.376  23.369  1.00  0.00     0.045 A 
HETATM   21  C   LIG     1      22.198  19.295  24.916  1.00  0.00     0.044 A 
ENDROOT
TORSDOF 0
ENDMDL
MODEL 4
REMARK VINA RESULT:      -6.4     17.188     18.000
REMARK  0 active torsions:
REMARK  status: ('A' for Active; 'I' for Inactive)
ROOT
HETATM    1  C   LIG     1      29.859  26.678  26.041  1.00  0.00     0.049 C 
HETATM    2  C   LIG     1      29.718  27.400  27.349  1.00  0.00    -0.055 A 
HETATM    3  C   LIG     1      30.506  28.546  27.611  1.00  0.00     0.008 A 
HETATM    4  C   LIG     1      30.388  29.239  28.836  1.00  0.00     0.013 A 
HETATM    5  C   LIG     1      29.479  28.789  29.808  1.00  0.00    -0.024 A 
HETATM    6  C   LIG     1      29.289  29.410  31.054  1.00  0.00     0.025 A 
HETATM    7  C   LIG     1      28.340  28.887  31.991  1.00  0.00    -0.013 A 
HETATM    8  C   LIG     1      27.592  27.718  31.626  1.00  0.00    -0.018 A 
HETATM    9  C   LIG     1      26.655  27.172  32.509  1.00  0.00     0.014 A 
HETATM   10  C   LIG     1      26.435  27.753  33.751  1.00  0.00     0.013 A 
HETATM   11  C   LIG     1      27.146  28.893  34.142  1.00  0.00    -0.025 A 
HETATM   12  C   LIG     1      28.110  29.479  33.271  1.00  0.00    -0.015 A 
HETATM   13  C   LIG     1      28.796  30.633  33.725  1.00  0.00     0.013 A 
HETATM   14  C   LIG     1      28.534  31.175  34.986  1.00  0.00     0.001 A 
HETATM   15  C   LIG     1      27.590  30.589  35.822  1.00  0.00     0.001 A 
HETATM   16  C   LIG     1      26.898  29.454  35.405  1.00  0.00     0.012 A 
HETATM   17  C   LIG     1      28.818  26.976  28.344  1.00  0.00    -0.040 A 
HETATM   18  C   LIG     1      28.724  27.664  29.517  1.00  0.00    -0.012 A 
HETATM   19  C   LIG     1      27.813  27.130  30.370  1.00  0.00    -0.035 A 
HETATM   20  C   LIG     1      27.179  25.922  29.744  1.00  0.00     0.045 A 
HETATM   21  C   LIG     1      27.868  25.818  28.356  1.00  0.00     0.044 A 
ENDROOT
TORSDOF 0
ENDMDL
MODEL 5
REMARK VINA RESULT:      -6.4     14.735     15.665
REMARK  0 active torsions:
REMARK  status: ('A' for Active; 'I' for Inactive)
ROOT
HETATM    1  C   LIG     1      22.502  18.617  19.553  1.00  0.00     0.049 C 
HETATM    2  C   LIG     1      23.524  19.576  19.016  1.00  0.00    -0.055 A 
HETATM    3  C   LIG     1      24.232  19.262  17.831  1.00  0.00     0.008 A 
HETATM    4  C   LIG     1      25.197  20.151  17.310  1.00  0.00     0.013 A 
HETATM    5  C   LIG     1      25.461  21.362  17.973  1.00  0.00    -0.024 A 
HETATM    6  C   LIG     1      26.401  22.309  17.534  1.00  0.00     0.025 A 
HETATM    7  C   LIG     1      26.610  23.521  18.268  1.00  0.00    -0.013 A 
HETATM    8  C   LIG     1      25.839  23.741  19.458  1.00  0.00    -0.018 A 
HETATM    9  C   LIG     1      26.010  24.910  20.208  1.00  0.00     0.014 A 
HETATM   10  C   LIG     1      26.928  25.873  19.810  1.00  0.00     0.013 A 
HETATM   11  C   LIG     1      27.698  25.694  18.656  1.00  0.00    -0.025 A 
HETATM   12  C   LIG     1      27.553  24.516  17.866  1.00  0.00    -0.015 A 
HETATM   13  C   LIG     1      28.362  24.394  16.707  1.00  0.00     0.013 A 
HETATM   14  C   LIG     1      29.269  25.397  16.356  1.00  0.00     0.001 A 
HETATM   15  C   LIG     1      29.396  26.539  17.140  1.00  0.00     0.001 A 
HETATM   16  C   LIG     1      28.616  26.689  18.284  1.00  0.00     0.012 A 
HETATM   17  C   LIG     1      23.812  20.795  19.654  1.00  0.00    -0.040 A 
HETATM   18  C   LIG     1      24.749  21.635  19.130  1.00  0.00    -0.012 A 
HETATM   19  C   LIG     1      24.911  22.767  19.860  1.00  0.00    -0.035 A 
HETATM   20  C   LIG     1      23.989  22.743  21.044  1.00  0.00     0.045 A 
HETATM   21  C   LIG     1      23.237  21.391  20.902  1.00  0.00     0.044 A 
ENDROOT
TORSDOF 0
ENDMDL
MODEL 6
REMARK VINA RESULT:      -6.4      4.523     10.609
REMARK  0 active torsions:
REMARK  status: ('A' for Active; 'I' for Inactive)
ROOT
HETATM    1  C   LIG     1      14.839  33.693  17.431  1.00  0.00     0.049 C 
HETATM    2  C   LIG     1      14.259  32.514  16.707  1.00  0.00    -0.055 A 
HETATM    3  C   LIG     1      12.908  32.149  16.921  1.00  0.00     0.008 A 
HETATM    4  C   LIG     1      12.344  31.042  16.248  1.00  0.00     0.013 A 
HETATM    5  C   LIG     1      13.130  30.292  15.356  1.00  0.00    -0.024 A 
HETATM    6  C   LIG     1      12.660  29.178  14.642  1.00  0.00     0.025 A 
HETATM    7  C   LIG     1      13.526  28.467  13.750  1.00  0.00    -0.013 A 
HETATM    8  C   LIG     1      14.881  28.921  13.606  1.00  0.00    -0.018 A 
HETATM    9  C   LIG     1      15.763  28.257  12.747  1.00  0.00     0.014 A 
HETATM   10  C   LIG     1      15.341  27.151  12.022  1.00  0.00     0.013 A 
HETATM   11  C   LIG     1      14.029  26.679  12.136  1.00  0.00    -0.025 A 
HETATM   12  C   LIG     1      13.100  27.328  13.001  1.00  0.00    -0.015 A 
HETATM   13  C   LIG     1      11.785  26.802  13.072  1.00  0.00     0.013 A 
HETATM   14  C   LIG     1      11.417  25.685  12.318  1.00  0.00     0.001 A 
HETATM   15  C   LIG     1      12.337  25.066  11.479  1.00  0.00     0.001 A 
HETATM   16  C   LIG     1      13.637  25.558  11.387  1.00  0.00     0.012 A 
HETATM   17  C   LIG     1      15.016  31.742  15.808  1.00  0.00    -0.040 A 
HETATM   18  C   LIG     1      14.447  30.679  15.172  1.00  0.00    -0.012 A 
HETATM   19  C   LIG     1      15.307  30.040  14.340  1.00  0.00    -0.035 A 
HETATM   20  C   LIG     1      16.647  30.715  14.378  1.00  0.00     0.045 A 
HETATM   21  C   LIG     1      16.447  31.881  15.384  1.00  0.00     0.044 A 
ENDROOT
TORSDOF 0
ENDMDL
MODEL 7
REMARK VINA RESULT:      -6.4     15.156     16.594
REMARK  0 active torsions:
REMARK  status: ('A' for Active; 'I' for Inactive)
ROOT
HETATM    1  C   LIG     1      26.557  23.708  28.736  1.00  0.00     0.049 C 
HETATM    2  C   LIG     1      26.396  23.626  27.246  1.00  0.00    -0.055 A 
HETATM    3  C   LIG     1      27.245  24.381  26.402  1.00  0.00     0.008 A 
HETATM    4  C   LIG     1      27.109  24.318  24.997  1.00  0.00     0.013 A 
HETATM    5  C   LIG     1      26.120  23.496  24.428  1.00  0.00    -0.024 A 
HETATM    6  C   LIG     1      25.908  23.366  23.045  1.00  0.00     0.025 A 
HETATM    7  C   LIG     1      24.878  22.506  22.545  1.00  0.00    -0.013 A 
HETATM    8  C   LIG     1      24.072  21.784  23.489  1.00  0.00    -0.018 A 
HETATM    9  C   LIG     1      23.054  20.933  23.046  1.00  0.00     0.014 A 
HETATM   10  C   LIG     1      22.809  20.774  21.689  1.00  0.00     0.013 A 
HETATM   11  C   LIG     1      23.574  21.462  20.739  1.00  0.00    -0.025 A 
HETATM   12  C   LIG     1      24.620  22.339  21.150  1.00  0.00    -0.015 A 
HETATM   13  C   LIG     1      25.358  23.005  20.140  1.00  0.00     0.013 A 
HETATM   14  C   LIG     1      25.067  22.807  18.788  1.00  0.00     0.001 A 
HETATM   15  C   LIG     1      24.042  21.947  18.407  1.00  0.00     0.001 A 
HETATM   16  C   LIG     1      23.298  21.277  19.375  1.00  0.00     0.012 A 
HETATM   17  C   LIG     1      25.418  22.814  26.643  1.00  0.00    -0.040 A 
HETATM   18  C   LIG     1      25.308  22.772  25.285  1.00  0.00    -0.012 A 
HETATM   19  C   LIG     1      24.320  21.944  24.862  1.00  0.00    -0.035 A 
HETATM   20  C   LIG     1      23.639  21.320  26.045  1.00  0.00     0.045 A 
HETATM   21  C   LIG     1      24.392  21.916  27.265  1.00  0.00     0.044 A 
ENDROOT
TORSDOF 0
ENDMDL
MODEL 8
REMARK VINA RESULT:      -6.2     15.152     16.670
REMARK  0 active torsions:
REMARK  status: ('A' for Active; 'I' for Inactive)
ROOT
HETATM    1  C   LIG     1      26.574  23.532  28.439  1.00  0.00     0.049 C 
HETATM    2  C   LIG     1      25.971  23.178  27.111  1.00  0.00    -0.055 A 
HETATM    3  C   LIG     1      24.744  22.473  27.059  1.00  0.00     0.008 A 
HETATM    4  C   LIG     1      24.160  22.131  25.820  1.00  0.00     0.013 A 
HETATM    5  C   LIG     1      24.800  22.493  24.622  1.00  0.00    -0.024 A 
HETATM    6  C   LIG     1      24.299  22.198  23.343  1.00  0.00     0.025 A 
HETATM    7  C   LIG     1      25.014  22.604  22.171  1.00  0.00    -0.013 A 
HETATM    8  C   LIG     1      26.250  23.315  22.335  1.00  0.00    -0.018 A 
HETATM    9  C   LIG     1      26.982  23.730  21.218  1.00  0.00     0.014 A 
HETATM   10  C   LIG     1      26.524  23.461  19.935  1.00  0.00     0.013 A 
HETATM   11  C   LIG     1      25.324  22.770  19.736  1.00  0.00    -0.025 A 
HETATM   12  C   LIG     1      24.549  22.330  20.848  1.00  0.00    -0.015 A 
HETATM   13  C   LIG     1      23.342  21.635  20.579  1.00  0.00     0.013 A 
HETATM   14  C   LIG     1      22.931  21.392  19.266  1.00  0.00     0.001 A 
HETATM   15  C   LIG     1      23.701  21.830  18.194  1.00  0.00     0.001 A 
HETATM   16  C   LIG     1      24.891  22.515  18.424  1.00  0.00     0.012 A 
HETATM   17  C   LIG     1      26.584  23.525  25.894  1.00  0.00    -0.040 A 
HETATM   18  C   LIG     1      25.999  23.182  24.712  1.00  0.00    -0.012 A 
HETATM   19  C   LIG     1      26.714  23.588  23.632  1.00  0.00    -0.035 A 
HETATM   20  C   LIG     1      27.953  24.303  24.084  1.00  0.00     0.045 A 
HETATM   21  C   LIG     1      27.864  24.259  25.634  1.00  0.00     0.044 A 
ENDROOT
TORSDOF 0
ENDMDL
MODEL 9
REMARK VINA RESULT:      -6.2     17.207     18.114
REMARK  0 active torsions:
REMARK  status: ('A' for Active; 'I' for Inactive)
ROOT
HETATM    1  C   LIG     1      28.605  25.271  26.683  1.00  0.00     0.049 C 
HETATM    2  C   LIG     1      28.248  25.821  28.033  1.00  0.00    -0.055 A 
HETATM    3  C   LIG     1      27.292  25.153  28.836  1.00  0.00     0.008 A 
HETATM    4  C   LIG     1      26.944  25.654  30.110  1.00  0.00     0.013 A 
HETATM    5  C   LIG     1      27.551  26.828  30.589  1.00  0.00    -0.024 A 
HETATM    6  C   LIG     1      27.271  27.403  31.840  1.00  0.00     0.025 A 
HETATM    7  C   LIG     1      27.935  28.602  32.254  1.00  0.00    -0.013 A 
HETATM    8  C   LIG     1      28.888  29.200  31.362  1.00  0.00    -0.018 A 
HETATM    9  C   LIG     1      29.560  30.372  31.724  1.00  0.00     0.014 A 
HETATM   10  C   LIG     1      29.315  30.974  32.951  1.00  0.00     0.013 A 
HETATM   11  C   LIG     1      28.392  30.422  33.846  1.00  0.00    -0.025 A 
HETATM   12  C   LIG     1      27.687  29.228  33.514  1.00  0.00    -0.015 A 
HETATM   13  C   LIG     1      26.766  28.719  34.464  1.00  0.00     0.013 A 
HETATM   14  C   LIG     1      26.560  29.368  35.684  1.00  0.00     0.001 A 
HETATM   15  C   LIG     1      27.257  30.532  35.990  1.00  0.00     0.001 A 
HETATM   16  C   LIG     1      28.169  31.057  35.078  1.00  0.00     0.012 A 
HETATM   17  C   LIG     1      28.836  26.992  28.543  1.00  0.00    -0.040 A 
HETATM   18  C   LIG     1      28.482  27.454  29.775  1.00  0.00    -0.012 A 
HETATM   19  C   LIG     1      29.137  28.590  30.121  1.00  0.00    -0.035 A 
HETATM   20  C   LIG     1      30.068  28.996  29.016  1.00  0.00     0.045 A 
HETATM   21  C   LIG     1      29.861  27.900  27.935  1.00  0.00     0.044 A 
ENDROOT
TORSDOF 0
ENDMDL
MODEL 10
REMARK VINA RESULT:      -6.1     15.029     15.817
REMARK  0 active torsions:
REMARK  status: ('A' for Active; 'I' for Inactive)
ROOT
HETATM    1  C   LIG     1      23.343  20.742  18.132  1.00  0.00     0.049 C 
HETATM    2  C   LIG     1      23.863  21.379  19.388  1.00  0.00    -0.055 A 
HETATM    3  C   LIG     1      24.660  22.546  19.308  1.00  0.00     0.008 A 
HETATM    4  C   LIG     1      25.159  23.161  20.478  1.00  0.00     0.013 A 
HETATM    5  C   LIG     1      24.862  22.610  21.737  1.00  0.00    -0.024 A 
HETATM    6  C   LIG     1      25.311  23.148  22.955  1.00  0.00     0.025 A 
HETATM    7  C   LIG     1      24.963  22.526  24.197  1.00  0.00    -0.013 A 
HETATM    8  C   LIG     1      24.149  21.344  24.165  1.00  0.00    -0.018 A 
HETATM    9  C   LIG     1      23.785  20.702  25.354  1.00  0.00     0.014 A 
HETATM   10  C   LIG     1      24.205  21.199  26.580  1.00  0.00     0.013 A 
HETATM   11  C   LIG     1      25.000  22.348  26.651  1.00  0.00    -0.025 A 
HETATM   12  C   LIG     1      25.393  23.030  25.463  1.00  0.00    -0.015 A 
HETATM   13  C   LIG     1      26.198  24.189  25.601  1.00  0.00     0.013 A 
HETATM   14  C   LIG     1      26.591  24.643  26.862  1.00  0.00     0.001 A 
HETATM   15  C   LIG     1      26.199  23.963  28.011  1.00  0.00     0.001 A 
HETATM   16  C   LIG     1      25.407  22.822  27.908  1.00  0.00     0.012 A 
HETATM   17  C   LIG     1      23.585  20.855  20.662  1.00  0.00    -0.040 A 
HETATM   18  C   LIG     1      24.079  21.468  21.775  1.00  0.00    -0.012 A 
HETATM   19  C   LIG     1      23.723  20.841  22.925  1.00  0.00    -0.035 A 
HETATM   20  C   LIG     1      22.878  19.642  22.608  1.00  0.00     0.045 A 
HETATM   21  C   LIG     1      22.784  19.652  21.058  1.00  0.00     0.044 A 
ENDROOT
TORSDOF 0
ENDMDL
MODEL 11
REMARK VINA RESULT:      -6.0     14.804     15.772
REMARK  0 active torsions:
REMARK  status: ('A' for Active; 'I' for Inactive)
ROOT
HETATM    1  C   LIG     1      23.247  20.755  24.831  1.00  0.00     0.049 C 
HETATM    2  C   LIG     1      24.299  21.577  24.147  1.00  0.00    -0.055 A 
HETATM    3  C   LIG     1      25.420  22.039  24.879  1.00  0.00     0.008 A 
HETATM    4  C   LIG     1      26.421  22.814  24.253  1.00  0.00     0.013 A 
HETATM    5  C   LIG     1      26.307  23.133  22.889  1.00  0.00    -0.024 A 
HETATM    6  C   LIG     1      27.249  23.896  22.179  1.00  0.00     0.025 A 
HETATM    7  C   LIG     1      27.059  24.176  20.787  1.00  0.00    -0.013 A 
HETATM    8  C   LIG     1      25.886  23.659  20.140  1.00  0.00    -0.018 A 
HETATM    9  C   LIG     1      25.658  23.908  18.782  1.00  0.00     0.014 A 
HETATM   10  C   LIG     1      26.563  24.657  18.042  1.00  0.00     0.013 A 
HETATM   11  C   LIG     1      27.717  25.178  18.638  1.00  0.00    -0.025 A 
HETATM   12  C   LIG     1      27.984  24.947  20.019  1.00  0.00    -0.015 A 
HETATM   13  C   LIG     1      29.171  25.500  20.564  1.00  0.00     0.013 A 
HETATM   14  C   LIG     1      30.045  26.247  19.770  1.00  0.00     0.001 A 
HETATM   15  C   LIG     1      29.766  26.462  18.424  1.00  0.00     0.001 A 
HETATM   16  C   LIG     1      28.610  25.931  17.859  1.00  0.00     0.012 A 
HETATM   17  C   LIG     1      24.217  21.914  22.784  1.00  0.00    -0.040 A 
HETATM   18  C   LIG     1      25.197  22.664  22.205  1.00  0.00    -0.012 A 
HETATM   19  C   LIG     1      24.971  22.901  20.888  1.00  0.00    -0.035 A 
HETATM   20  C   LIG     1      23.684  22.252  20.469  1.00  0.00     0.045 A 
HETATM   21  C   LIG     1      23.169  21.576  21.768  1.00  0.00     0.044 A 
ENDROOT
TORSDOF 0
ENDMDL
MODEL 12
REMARK VINA RESULT:      -5.9     14.893     16.100
REMARK  0 active torsions:
REMARK  status: ('A' for Active; 'I' for Inactive)
ROOT
HETATM    1  C   LIG     1      29.239  26.490  18.279  1.00  0.00     0.049 C 
HETATM    2  C   LIG     1      28.557  25.732  19.380  1.00  0.00    -0.055 A 
HETATM    3  C   LIG     1      29.062  25.799  20.701  1.00  0.00     0.008 A 
HETATM    4  C   LIG     1      28.435  25.093  21.750  1.00  0.00     0.013 A 
HETATM    5  C   LIG     1      27.295  24.313  21.484  1.00  0.00    -0.024 A 
HETATM    6  C   LIG     1      26.602  23.577  22.459  1.00  0.00     0.025 A 
HETATM    7  C   LIG     1      25.448  22.807  22.106  1.00  0.00    -0.013 A 
HETATM    8  C   LIG     1      25.019  22.808  20.736  1.00  0.00    -0.018 A 
HETATM    9  C   LIG     1      23.897  22.070  20.344  1.00  0.00     0.014 A 
HETATM   10  C   LIG     1      23.182  21.328  21.274  1.00  0.00     0.013 A 
HETATM   11  C   LIG     1      23.570  21.302  22.618  1.00  0.00    -0.025 A 
HETATM   12  C   LIG     1      24.708  22.040  23.057  1.00  0.00    -0.015 A 
HETATM   13  C   LIG     1      25.049  21.974  24.432  1.00  0.00     0.013 A 
HETATM   14  C   LIG     1      24.292  21.210  25.323  1.00  0.00     0.001 A 
HETATM   15  C   LIG     1      23.184  20.496  24.876  1.00  0.00     0.001 A 
HETATM   16  C   LIG     1      22.823  20.541  23.532  1.00  0.00     0.012 A 
HETATM   17  C   LIG     1      27.416  24.944  19.149  1.00  0.00    -0.040 A 
HETATM   18  C   LIG     1      26.830  24.272  20.180  1.00  0.00    -0.012 A 
HETATM   19  C   LIG     1      25.742  23.559  19.794  1.00  0.00    -0.035 A 
HETATM   20  C   LIG     1      25.516  23.733  18.321  1.00  0.00     0.045 A 
HETATM   21  C   LIG     1      26.664  24.682  17.880  1.00  0.00     0.044 A 
ENDROOT
TORSDOF 0
ENDMDL
MODEL 13
REMARK VINA RESULT:      -5.9     14.694     16.905
REMARK  0 active torsions:
REMARK  status: ('A' for Active; 'I' for Inactive)
ROOT
HETATM    1  C   LIG     1      28.995  26.100  23.058  1.00  0.00     0.049 C 
HETATM    2  C   LIG     1      28.086  24.945  22.755  1.00  0.00    -0.055 A 
HETATM    3  C   LIG     1      27.841  23.962  23.744  1.00  0.00     0.008 A 
HETATM    4  C   LIG     1      26.989  22.868  23.478  1.00  0.00     0.013 A 
HETATM    5  C   LIG     1      26.376  22.750  22.218  1.00  0.00    -0.024 A 
HETATM    6  C   LIG     1      25.514  21.700  21.860  1.00  0.00     0.025 A 
HETATM    7  C   LIG     1      24.929  21.654  20.554  1.00  0.00    -0.013 A 
HETATM    8  C   LIG     1      25.244  22.702  19.625  1.00  0.00    -0.018 A 
HETATM    9  C   LIG     1      24.696  22.697  18.338  1.00  0.00     0.014 A 
HETATM   10  C   LIG     1      23.839  21.679  17.941  1.00  0.00     0.013 A 
HETATM   11  C   LIG     1      23.509  20.640  18.818  1.00  0.00    -0.025 A 
HETATM   12  C   LIG     1      24.047  20.609  20.137  1.00  0.00    -0.015 A 
HETATM   13  C   LIG     1      23.673  19.530  20.978  1.00  0.00     0.013 A 
HETATM   14  C   LIG     1      22.807  18.533  20.524  1.00  0.00     0.001 A 
HETATM   15  C   LIG     1      22.292  18.581  19.232  1.00  0.00     0.001 A 
HETATM   16  C   LIG     1      22.639  19.628  18.382  1.00  0.00     0.012 A 
HETATM   17  C   LIG     1      27.457  24.797  21.506  1.00  0.00    -0.040 A 
HETATM   18  C   LIG     1      26.639  23.731  21.276  1.00  0.00    -0.012 A 
HETATM   19  C   LIG     1      26.110  23.732  20.026  1.00  0.00    -0.035 A 
HETATM   20  C   LIG     1      26.600  24.931  19.269  1.00  0.00     0.045 A 
HETATM   21  C   LIG     1      27.523  25.660  20.284  1.00  0.00     0.044 A 
ENDROOT
TORSDOF 0
ENDMDL
MODEL 14
REMARK VINA RESULT:      -5.8     15.160     16.181
REMARK  0 active torsions:
REMARK  status: ('A' for Active; 'I' for Inactive)
ROOT
HETATM    1  C   LIG     1      26.854  24.354  17.713  1.00  0.00     0.049 C 
HETATM    2  C   LIG     1      26.557  23.966  19.132  1.00  0.00    -0.055 A 
HETATM    3  C   LIG     1      27.333  24.503  20.187  1.00  0.00     0.008 A 
HETATM    4  C   LIG     1      27.070  24.149  21.529  1.00  0.00     0.013 A 
HETATM    5  C   LIG     1      26.027  23.254  21.823  1.00  0.00    -0.024 A 
HETATM    6  C   LIG     1      25.688  22.843  23.124  1.00  0.00     0.025 A 
HETATM    7  C   LIG     1      24.609  21.927  23.339  1.00  0.00    -0.013 A 
HETATM    8  C   LIG     1      23.886  21.442  22.198  1.00  0.00    -0.018 A 
HETATM    9  C   LIG     1      22.824  20.545  22.360  1.00  0.00     0.014 A 
HETATM   10  C   LIG     1      22.455  20.113  23.627  1.00  0.00     0.013 A 
HETATM   11  C   LIG     1      23.137  20.563  24.763  1.00  0.00    -0.025 A 
HETATM   12  C   LIG     1      24.224  21.477  24.639  1.00  0.00    -0.015 A 
HETATM   13  C   LIG     1      24.873  21.896  25.828  1.00  0.00     0.013 A 
HETATM   14  C   LIG     1      24.458  21.427  27.076  1.00  0.00     0.001 A 
HETATM   15  C   LIG     1      23.395  20.535  27.177  1.00  0.00     0.001 A 
HETATM   16  C   LIG     1      22.736  20.104  26.028  1.00  0.00     0.012 A 
HETATM   17  C   LIG     1      25.522  23.074  19.462  1.00  0.00    -0.040 A 
HETATM   18  C   LIG     1      25.289  22.749  20.765  1.00  0.00    -0.012 A 
HETATM   19  C   LIG     1      24.258  21.880  20.916  1.00  0.00    -0.035 A 
HETATM   20  C   LIG     1      23.682  21.537  19.574  1.00  0.00     0.045 A 
HETATM   21  C   LIG     1      24.548  22.355  18.578  1.00  0.00     0.044 A 
ENDROOT
TORSDOF 0
ENDMDL
MODEL 15
REMARK VINA RESULT:      -5.7     15.440     17.522
REMARK  0 active torsions:
REMARK  status: ('A' for Active; 'I' for Inactive)
ROOT
HETATM    1  C   LIG     1      27.906  23.612  30.554  1.00  0.00     0.049 C 
HETATM    2  C   LIG     1      27.320  23.591  29.172  1.00  0.00    -0.055 A 
HETATM    3  C   LIG     1      27.599  24.647  28.271  1.00  0.00     0.008 A 
HETATM    4  C   LIG     1      27.057  24.645  26.967  1.00  0.00     0.013 A 
HETATM    5  C   LIG     1      26.231  23.585  26.555  1.00  0.00    -0.024 A 
HETATM    6  C   LIG     1      25.647  23.493  25.281  1.00  0.00     0.025 A 
HETATM    7  C   LIG     1      24.817  22.377  24.940  1.00  0.00    -0.013 A 
HETATM    8  C   LIG     1      24.599  21.360  25.928  1.00  0.00    -0.018 A 
HETATM    9  C   LIG     1      23.795  20.252  25.640  1.00  0.00     0.014 A 
HETATM   10  C   LIG     1      23.198  20.121  24.393  1.00  0.00     0.013 A 
HETATM   11  C   LIG     1      23.387  21.092  23.404  1.00  0.00    -0.025 A 
HETATM   12  C   LIG     1      24.199  22.236  23.659  1.00  0.00    -0.015 A 
HETATM   13  C   LIG     1      24.352  23.184  22.616  1.00  0.00     0.013 A 
HETATM   14  C   LIG     1      23.727  22.999  21.381  1.00  0.00     0.001 A 
HETATM   15  C   LIG     1      22.938  21.876  21.150  1.00  0.00     0.001 A 
HETATM   16  C   LIG     1      22.768  20.927  22.154  1.00  0.00     0.012 A 
HETATM   17  C   LIG     1      26.491  22.546  28.728  1.00  0.00    -0.040 A 
HETATM   18  C   LIG     1      25.981  22.569  27.464  1.00  0.00    -0.012 A 
HETATM   19  C   LIG     1      25.203  21.492  27.189  1.00  0.00    -0.035 A 
HETATM   20  C   LIG     1      25.142  20.590  28.388  1.00  0.00     0.045 A 
HETATM   21  C   LIG     1      26.025  21.313  29.441  1.00  0.00     0.044 A 
ENDROOT
TORSDOF 0
ENDMDL
MODEL 16
REMARK VINA RESULT:      -5.7     15.300     15.713
REMARK  0 active torsions:
REMARK  status: ('A' for Active; 'I' for Inactive)
ROOT
HETATM    1  C   LIG     1      23.385  21.142  18.038  1.00  0.00     0.049 C 
HETATM    2  C   LIG     1      23.680  21.460  19.475  1.00  0.00    -0.055 A 
HETATM    3  C   LIG     1      22.808  21.002  20.492  1.00  0.00     0.008 A 
HETATM    4  C   LIG     1      23.068  21.291  21.850  1.00  0.00     0.013 A 
HETATM    5  C   LIG     1      24.204  22.042  22.199  1.00  0.00    -0.024 A 
HETATM    6  C   LIG     1      24.547  22.380  23.519  1.00  0.00     0.025 A 
HETATM    7  C   LIG     1      25.725  23.149  23.790  1.00  0.00    -0.013 A 
HETATM    8  C   LIG     1      26.540  23.564  22.684  1.00  0.00    -0.018 A 
HETATM    9  C   LIG     1      27.699  24.317  22.902  1.00  0.00     0.014 A 
HETATM   10  C   LIG     1      28.076  24.673  24.190  1.00  0.00     0.013 A 
HETATM   11  C   LIG     1      27.306  24.287  25.292  1.00  0.00    -0.025 A 
HETATM   12  C   LIG     1      26.119  23.520  25.112  1.00  0.00    -0.015 A 
HETATM   13  C   LIG     1      25.383  23.160  26.270  1.00  0.00     0.013 A 
HETATM   14  C   LIG     1      25.810  23.547  27.542  1.00  0.00     0.001 A 
HETATM   15  C   LIG     1      26.972  24.296  27.697  1.00  0.00     0.001 A 
HETATM   16  C   LIG     1      27.718  24.665  26.581  1.00  0.00     0.012 A 
HETATM   17  C   LIG     1      24.807  22.208  19.859  1.00  0.00    -0.040 A 
HETATM   18  C   LIG     1      25.034  22.473  21.177  1.00  0.00    -0.012 A 
HETATM   19  C   LIG     1      26.159  23.203  21.381  1.00  0.00    -0.035 A 
HETATM   20  C   LIG     1      26.819  23.500  20.066  1.00  0.00     0.045 A 
HETATM   21  C   LIG     1      25.891  22.817  19.024  1.00  0.00     0.044 A 
ENDROOT
TORSDOF 0
ENDMDL
MODEL 17
REMARK VINA RESULT:      -5.7     15.422     15.967
REMARK  0 active torsions:
REMARK  status: ('A' for Active; 'I' for Inactive)
ROOT
HETATM    1  C   LIG     1      23.355  21.096  19.641  1.00  0.00     0.049 C 
HETATM    2  C   LIG     1      23.774  21.531  21.015  1.00  0.00    -0.055 A 
HETATM    3  C   LIG     1      22.984  21.183  22.137  1.00  0.00     0.008 A 
HETATM    4  C   LIG     1      23.362  21.583  23.437  1.00  0.00     0.013 A 
HETATM    5  C   LIG     1      24.535  22.335  23.624  1.00  0.00    -0.024 A 
HETATM    6  C   LIG     1      24.993  22.778  24.876  1.00  0.00     0.025 A 
HETATM    7  C   LIG     1      26.201  23.541  24.980  1.00  0.00    -0.013 A 
HETATM    8  C   LIG     1      26.927  23.840  23.778  1.00  0.00    -0.018 A 
HETATM    9  C   LIG     1      28.111  24.582  23.832  1.00  0.00     0.014 A 
HETATM   10  C   LIG     1      28.601  25.040  25.048  1.00  0.00     0.013 A 
HETATM   11  C   LIG     1      27.920  24.770  26.240  1.00  0.00    -0.025 A 
HETATM   12  C   LIG     1      26.710  24.017  26.227  1.00  0.00    -0.015 A 
HETATM   13  C   LIG     1      26.069  23.776  27.468  1.00  0.00     0.013 A 
HETATM   14  C   LIG     1      26.608  24.262  28.662  1.00  0.00     0.001 A 
HETATM   15  C   LIG     1      27.791  24.995  28.654  1.00  0.00     0.001 A 
HETATM   16  C   LIG     1      28.445  25.249  27.451  1.00  0.00     0.012 A 
HETATM   17  C   LIG     1      24.941  22.283  21.237  1.00  0.00    -0.040 A 
HETATM   18  C   LIG     1      25.282  22.657  22.502  1.00  0.00    -0.012 A 
HETATM   19  C   LIG     1      26.432  23.376  22.548  1.00  0.00    -0.035 A 
HETATM   20  C   LIG     1      26.982  23.542  21.162  1.00  0.00     0.045 A 
HETATM   21  C   LIG     1      25.960  22.793  20.264  1.00  0.00     0.044 A 
ENDROOT
TORSDOF 0
ENDMDL
MODEL 18
REMARK VINA RESULT:      -5.6     15.586     16.597
REMARK  0 active torsions:
REMARK  status: ('A' for Active; 'I' for Inactive)
ROOT
HETATM    1  C   LIG     1      23.865  19.407  16.733  1.00  0.00     0.049 C 
HETATM    2  C   LIG     1      23.628  19.443  18.215  1.00  0.00    -0.055 A 
HETATM    3  C   LIG     1      22.824  18.450  18.824  1.00  0.00     0.008 A 
HETATM    4  C   LIG     1      22.589  18.467  20.217  1.00  0.00     0.013 A 
HETATM    5  C   LIG     1      23.158  19.479  21.009  1.00  0.00    -0.024 A 
HETATM    6  C   LIG     1      22.983  19.580  22.400  1.00  0.00     0.025 A 
HETATM    7  C   LIG     1      23.599  20.643  23.135  1.00  0.00    -0.013 A 
HETATM    8  C   LIG     1      24.395  21.598  22.418  1.00  0.00    -0.018 A 
HETATM    9  C   LIG     1      25.015  22.654  23.095  1.00  0.00     0.014 A 
HETATM   10  C   LIG     1      24.870  22.792  24.469  1.00  0.00     0.013 A 
HETATM   11  C   LIG     1      24.101  21.881  25.201  1.00  0.00    -0.025 A 
HETATM   12  C   LIG     1      23.452  20.792  24.548  1.00  0.00    -0.015 A 
HETATM   13  C   LIG     1      22.688  19.903  25.346  1.00  0.00     0.013 A 
HETATM   14  C   LIG     1      22.577  20.092  26.726  1.00  0.00     0.001 A 
HETATM   15  C   LIG     1      23.217  21.161  27.345  1.00  0.00     0.001 A 
HETATM   16  C   LIG     1      23.975  22.051  26.590  1.00  0.00     0.012 A 
HETATM   17  C   LIG     1      24.182  20.440  19.036  1.00  0.00    -0.040 A 
HETATM   18  C   LIG     1      23.939  20.433  20.378  1.00  0.00    -0.012 A 
HETATM   19  C   LIG     1      24.543  21.458  21.029  1.00  0.00    -0.035 A 
HETATM   20  C   LIG     1      25.308  22.301  20.050  1.00  0.00     0.045 A 
HETATM   21  C   LIG     1      25.060  21.603  18.685  1.00  0.00     0.044 A 
ENDROOT
TORSDOF 0
ENDMDL
MODEL 19
REMARK VINA RESULT:      -5.6     14.801     15.900
REMARK  0 active torsions:
REMARK  status: ('A' for Active; 'I' for Inactive)
ROOT
HETATM    1  C   LIG     1      22.071  18.371  18.921  1.00  0.00     0.049 C 
HETATM    2  C   LIG     1      23.036  19.209  19.708  1.00  0.00    -0.055 A 
HETATM    3  C   LIG     1      23.477  18.770  20.980  1.00  0.00     0.008 A 
HETATM    4  C   LIG     1      24.385  19.544  21.736  1.00  0.00     0.013 A 
HETATM    5  C   LIG     1      24.858  20.765  21.223  1.00  0.00    -0.024 A 
HETATM    6  C   LIG     1      25.761  21.603  21.898  1.00  0.00     0.025 A 
HETATM    7  C   LIG     1      26.195  22.832  21.305  1.00  0.00    -0.013 A 
HETATM    8  C   LIG     1      25.686  23.184  20.010  1.00  0.00    -0.018 A 
HETATM    9  C   LIG     1      26.082  24.375  19.392  1.00  0.00     0.014 A 
HETATM   10  C   LIG     1      26.972  25.233  20.023  1.00  0.00     0.013 A 
HETATM   11  C   LIG     1      27.489  24.925  21.286  1.00  0.00    -0.025 A 
HETATM   12  C   LIG     1      27.110  23.721  21.948  1.00  0.00    -0.015 A 
HETATM   13  C   LIG     1      27.670  23.465  23.226  1.00  0.00     0.013 A 
HETATM   14  C   LIG     1      28.562  24.366  23.812  1.00  0.00     0.001 A 
HETATM   15  C   LIG     1      28.920  25.536  23.150  1.00  0.00     0.001 A 
HETATM   16  C   LIG     1      28.388  25.816  21.894  1.00  0.00     0.012 A 
HETATM   17  C   LIG     1      23.529  20.434  19.225  1.00  0.00    -0.040 A 
HETATM   18  C   LIG     1      24.405  21.162  19.976  1.00  0.00    -0.012 A 
HETATM   19  C   LIG     1      24.785  22.315  19.371  1.00  0.00    -0.035 A 
HETATM   20  C   LIG     1      24.110  22.436  18.037  1.00  0.00     0.045 A 
HETATM   21  C   LIG     1      23.250  21.147  17.937  1.00  0.00     0.044 A 
ENDROOT
TORSDOF 0
ENDMDL
MODEL 20
REMARK VINA RESULT:      -5.5     16.021     16.614
REMARK  0 active torsions:
REMARK  status: ('A' for Active; 'I' for Inactive)
ROOT
HETATM    1  C   LIG     1      25.691  22.045  22.668  1.00  0.00     0.049 C 
HETATM    2  C   LIG     1      25.862  22.759  23.976  1.00  0.00    -0.055 A 
HETATM    3  C   LIG     1      24.918  22.567  25.014  1.00  0.00     0.008 A 
HETATM    4  C   LIG     1      25.062  23.230  26.252  1.00  0.00     0.013 A 
HETATM    5  C   LIG     1      26.153  24.092  26.461  1.00  0.00    -0.024 A 
HETATM    6  C   LIG     1      26.382  24.794  27.656  1.00  0.00     0.025 A 
HETATM    7  C   LIG     1      27.520  25.653  27.788  1.00  0.00    -0.013 A 
HETATM    8  C   LIG     1      28.416  25.777  26.674  1.00  0.00    -0.018 A 
HETATM    9  C   LIG     1      29.540  26.605  26.758  1.00  0.00     0.014 A 
HETATM   10  C   LIG     1      29.805  27.318  27.919  1.00  0.00     0.013 A 
HETATM   11  C   LIG     1      28.955  27.223  29.026  1.00  0.00    -0.025 A 
HETATM   12  C   LIG     1      27.798  26.390  28.980  1.00  0.00    -0.015 A 
HETATM   13  C   LIG     1      26.977  26.336  30.134  1.00  0.00     0.013 A 
HETATM   14  C   LIG     1      27.293  27.076  31.276  1.00  0.00     0.001 A 
HETATM   15  C   LIG     1      28.426  27.883  31.302  1.00  0.00     0.001 A 
HETATM   16  C   LIG     1      29.253  27.958  30.185  1.00  0.00     0.012 A 
HETATM   17  C   LIG     1      26.942  23.627  24.218  1.00  0.00    -0.040 A 
HETATM   18  C   LIG     1      27.056  24.255  25.423  1.00  0.00    -0.012 A 
HETATM   19  C   LIG     1      28.149  25.056  25.499  1.00  0.00    -0.035 A 
HETATM   20  C   LIG     1      28.908  25.002  24.205  1.00  0.00     0.045 A 
HETATM   21  C   LIG     1      28.080  24.023  23.329  1.00  0.00     0.044 A 
ENDROOT
TORSDOF 0
ENDMDL
