MODEL 1
REMARK VINA RESULT:      -5.5      0.000      0.000
REMARK  4 active torsions:
REMARK  status: ('A' for Active; 'I' for Inactive)
REMARK    1  A    between atoms: C_3  and  C_4 
REMARK    2  A    between atoms: C_4  and  C_5 
REMARK    3  A    between atoms: C_5  and  O_6 
REMARK    4  A    between atoms: O_6  and  C_7 
ROOT
HETATM    1  C   LIG     1      27.819  22.371  19.827  1.00  0.00     0.016 C 
HETATM    2  C   LIG     1      26.655  22.782  18.865  1.00  0.00    -0.030 C 
HETATM    3  C   LIG     1      27.071  23.990  17.994  1.00  0.00     0.066 C 
HETATM    4  C   LIG     1      26.157  21.559  18.065  1.00  0.00     0.011 C 
HETATM    5  C   LIG     1      25.522  20.510  19.005  1.00  0.00     0.007 C 
HETATM    6  C   LIG     1      25.447  23.382  19.593  1.00  0.00    -0.001 C 
HETATM    7  C   LIG     1      25.909  24.767  20.032  1.00  0.00     0.006 C 
HETATM    8  C   LIG     1      26.866  25.219  18.912  1.00  0.00     0.013 C 
HETATM    9  C   LIG     1      24.824  22.434  20.642  1.00  0.00    -0.004 C 
HETATM   10  C   LIG     1      23.603  23.118  21.327  1.00  0.00     0.010 C 
HETATM   11  C   LIG     1      22.468  22.153  21.703  1.00  0.00     0.035 C 
HETATM   12  C   LIG     1      23.022  20.798  22.046  1.00  0.00    -0.068 C 
HETATM   13  C   LIG     1      22.840  20.295  23.279  1.00  0.00     0.053 C 
HETATM   14  C   LIG     1      23.494  19.053  23.709  1.00  0.00     0.149 C 
HETATM   15  O   LIG     1      23.250  18.589  24.855  1.00  0.00    -0.293 OA
HETATM   16  C   LIG     1      24.408  21.096  19.937  1.00  0.00     0.002 C 
HETATM   17  C   LIG     1      23.823  20.050  20.975  1.00  0.00    -0.016 C 
HETATM   18  C   LIG     1      24.950  19.221  21.669  1.00  0.00     0.022 C 
HETATM   19  C   LIG     1      24.427  18.317  22.798  1.00  0.00     0.084 C 
HETATM   20  C   LIG     1      22.856  19.094  20.237  1.00  0.00     0.020 C 
ENDROOT
BRANCH   3  21
HETATM   21  C   LIG     1      28.458  23.904  17.381  1.00  0.00     0.155 C 
HETATM   22  O   LIG     1      28.648  23.250  16.365  1.00  0.00    -0.295 OA
BRANCH  21  23
HETATM   23  C   LIG     1      29.622  24.623  18.009  1.00  0.00     0.257 C 
BRANCH  23  24
HETATM   24  O   LIG     1      30.195  25.545  17.085  1.00  0.00    -0.314 OA
BRANCH  24  25
HETATM   25  C   LIG     1      29.563  26.727  16.686  1.00  0.00     0.255 C 
HETATM   26  C   LIG     1      29.114  27.707  17.715  1.00  0.00     0.126 C 
HETATM   27  O   LIG     1      29.355  26.968  15.465  1.00  0.00    -0.266 OA
ENDBRANCH  24  25
ENDBRANCH  23  24
ENDBRANCH  21  23
ENDBRANCH   3  21
TORSDOF 4
ENDMDL
MODEL 2
REMARK VINA RESULT:      -5.5      4.548      6.557
REMARK  4 active torsions:
REMARK  status: ('A' for Active; 'I' for Inactive)
REMARK    1  A    between atoms: C_3  and  C_4 
REMARK    2  A    between atoms: C_4  and  C_5 
REMARK    3  A    between atoms: C_5  and  O_6 
REMARK    4  A    between atoms: O_6  and  C_7 
ROOT
HETATM    1  C   LIG     1      27.062  21.341  23.255  1.00  0.00     0.016 C 
HETATM    2  C   LIG     1      26.487  22.796  23.234  1.00  0.00    -0.030 C 
HETATM    3  C   LIG     1      26.617  23.452  24.629  1.00  0.00     0.066 C 
HETATM    4  C   LIG     1      27.119  23.612  22.085  1.00  0.00     0.011 C 
HETATM    5  C   LIG     1      26.718  23.024  20.713  1.00  0.00     0.007 C 
HETATM    6  C   LIG     1      24.965  22.848  23.057  1.00  0.00    -0.001 C 
HETATM    7  C   LIG     1      24.404  22.376  24.394  1.00  0.00     0.006 C 
HETATM    8  C   LIG     1      25.417  22.894  25.432  1.00  0.00     0.013 C 
HETATM    9  C   LIG     1      24.472  22.172  21.758  1.00  0.00    -0.004 C 
HETATM   10  C   LIG     1      22.920  22.275  21.655  1.00  0.00     0.010 C 
HETATM   11  C   LIG     1      22.393  22.433  20.220  1.00  0.00     0.035 C 
HETATM   12  C   LIG     1      23.293  21.722  19.247  1.00  0.00    -0.068 C 
HETATM   13  C   LIG     1      22.809  20.710  18.508  1.00  0.00     0.053 C 
HETATM   14  C   LIG     1      23.683  19.884  17.665  1.00  0.00     0.149 C 
HETATM   15  O   LIG     1      23.178  18.982  16.945  1.00  0.00    -0.293 OA
HETATM   16  C   LIG     1      25.172  22.852  20.531  1.00  0.00     0.002 C 
HETATM   17  C   LIG     1      24.759  22.156  19.167  1.00  0.00    -0.016 C 
HETATM   18  C   LIG     1      25.644  20.907  18.856  1.00  0.00     0.022 C 
HETATM   19  C   LIG     1      25.162  20.116  17.628  1.00  0.00     0.084 C 
HETATM   20  C   LIG     1      24.891  23.183  18.017  1.00  0.00     0.020 C 
ENDROOT
BRANCH   3  21
HETATM   21  C   LIG     1      27.959  23.262  25.315  1.00  0.00     0.155 C 
HETATM   22  O   LIG     1      28.987  23.661  24.786  1.00  0.00    -0.295 OA
BRANCH  21  23
HETATM   23  C   LIG     1      28.048  22.586  26.656  1.00  0.00     0.257 C 
BRANCH  23  24
HETATM   24  O   LIG     1      28.529  23.496  27.643  1.00  0.00    -0.314 OA
BRANCH  24  25
HETATM   25  C   LIG     1      27.953  24.749  27.878  1.00  0.00     0.255 C 
HETATM   26  C   LIG     1      26.559  24.835  28.399  1.00  0.00     0.126 C 
HETATM   27  O   LIG     1      28.595  25.809  27.641  1.00  0.00    -0.266 OA
ENDBRANCH  24  25
ENDBRANCH  23  24
ENDBRANCH  21  23
ENDBRANCH   3  21
TORSDOF 4
ENDMDL
MODEL 3
REMARK VINA RESULT:      -5.2      3.449      5.871
REMARK  4 active torsions:
REMARK  status: ('A' for Active; 'I' for Inactive)
REMARK    1  A    between atoms: C_3  and  C_4 
REMARK    2  A    between atoms: C_4  and  C_5 
REMARK    3  A    between atoms: C_5  and  O_6 
REMARK    4  A    between atoms: O_6  and  C_7 
ROOT
HETATM    1  C   LIG     1      25.291  20.475  21.195  1.00  0.00     0.016 C 
HETATM    2  C   LIG     1      24.426  21.761  21.413  1.00  0.00    -0.030 C 
HETATM    3  C   LIG     1      24.432  22.642  20.141  1.00  0.00     0.066 C 
HETATM    4  C   LIG     1      23.017  21.387  21.923  1.00  0.00     0.011 C 
HETATM    5  C   LIG     1      23.096  20.739  23.324  1.00  0.00     0.007 C 
HETATM    6  C   LIG     1      25.037  22.743  22.419  1.00  0.00    -0.001 C 
HETATM    7  C   LIG     1      26.223  23.360  21.686  1.00  0.00     0.006 C 
HETATM    8  C   LIG     1      25.768  23.419  20.215  1.00  0.00     0.013 C 
HETATM    9  C   LIG     1      25.259  22.132  23.821  1.00  0.00    -0.004 C 
HETATM   10  C   LIG     1      25.876  23.195  24.779  1.00  0.00     0.010 C 
HETATM   11  C   LIG     1      25.411  23.074  26.239  1.00  0.00     0.035 C 
HETATM   12  C   LIG     1      25.132  21.637  26.584  1.00  0.00    -0.068 C 
HETATM   13  C   LIG     1      25.842  21.033  27.552  1.00  0.00     0.053 C 
HETATM   14  C   LIG     1      25.718  19.594  27.815  1.00  0.00     0.149 C 
HETATM   15  O   LIG     1      26.361  19.081  28.769  1.00  0.00    -0.293 OA
HETATM   16  C   LIG     1      23.891  21.596  24.367  1.00  0.00     0.002 C 
HETATM   17  C   LIG     1      24.063  20.892  25.778  1.00  0.00    -0.016 C 
HETATM   18  C   LIG     1      24.484  19.395  25.637  1.00  0.00     0.022 C 
HETATM   19  C   LIG     1      24.819  18.732  26.984  1.00  0.00     0.084 C 
HETATM   20  C   LIG     1      22.728  20.985  26.554  1.00  0.00     0.020 C 
ENDROOT
BRANCH   3  21
HETATM   21  C   LIG     1      24.224  21.898  18.833  1.00  0.00     0.155 C 
HETATM   22  O   LIG     1      25.175  21.637  18.111  1.00  0.00    -0.295 OA
BRANCH  21  23
HETATM   23  C   LIG     1      22.848  21.466  18.405  1.00  0.00     0.257 C 
BRANCH  23  24
HETATM   24  O   LIG     1      22.683  20.063  18.597  1.00  0.00    -0.314 OA
BRANCH  24  25
HETATM   25  C   LIG     1      22.500  19.160  17.544  1.00  0.00     0.255 C 
HETATM   26  C   LIG     1      21.264  18.329  17.492  1.00  0.00     0.126 C 
HETATM   27  O   LIG     1      23.376  19.030  16.645  1.00  0.00    -0.266 OA
ENDBRANCH  24  25
ENDBRANCH  23  24
ENDBRANCH  21  23
ENDBRANCH   3  21
TORSDOF 4
ENDMDL
MODEL 4
REMARK VINA RESULT:      -5.1      4.373      7.853
REMARK  4 active torsions:
REMARK  status: ('A' for Active; 'I' for Inactive)
REMARK    1  A    between atoms: C_3  and  C_4 
REMARK    2  A    between atoms: C_4  and  C_5 
REMARK    3  A    between atoms: C_5  and  O_6 
REMARK    4  A    between atoms: O_6  and  C_7 
ROOT
HETATM    1  C   LIG     1      26.309  20.639  24.827  1.00  0.00     0.016 C 
HETATM    2  C   LIG     1      25.415  21.906  25.032  1.00  0.00    -0.030 C 
HETATM    3  C   LIG     1      24.901  21.980  26.489  1.00  0.00     0.066 C 
HETATM    4  C   LIG     1      26.155  23.174  24.552  1.00  0.00     0.011 C 
HETATM    5  C   LIG     1      26.398  23.121  23.026  1.00  0.00     0.007 C 
HETATM    6  C   LIG     1      24.080  21.837  24.282  1.00  0.00    -0.001 C 
HETATM    7  C   LIG     1      23.252  20.820  25.059  1.00  0.00     0.006 C 
HETATM    8  C   LIG     1      23.693  21.013  26.523  1.00  0.00     0.013 C 
HETATM    9  C   LIG     1      24.237  21.664  22.755  1.00  0.00    -0.004 C 
HETATM   10  C   LIG     1      22.837  21.609  22.073  1.00  0.00     0.010 C 
HETATM   11  C   LIG     1      22.791  22.246  20.675  1.00  0.00     0.035 C 
HETATM   12  C   LIG     1      24.114  22.084  19.979  1.00  0.00    -0.068 C 
HETATM   13  C   LIG     1      24.183  21.387  18.832  1.00  0.00     0.053 C 
HETATM   14  C   LIG     1      25.469  21.067  18.202  1.00  0.00     0.149 C 
HETATM   15  O   LIG     1      25.484  20.460  17.098  1.00  0.00    -0.293 OA
HETATM   16  C   LIG     1      25.100  22.847  22.193  1.00  0.00     0.002 C 
HETATM   17  C   LIG     1      25.357  22.690  20.636  1.00  0.00    -0.016 C 
HETATM   18  C   LIG     1      26.588  21.777  20.335  1.00  0.00     0.022 C 
HETATM   19  C   LIG     1      26.763  21.472  18.838  1.00  0.00     0.084 C 
HETATM   20  C   LIG     1      25.589  24.091  20.020  1.00  0.00     0.020 C 
ENDROOT
BRANCH   3  21
HETATM   21  C   LIG     1      25.942  21.704  27.561  1.00  0.00     0.155 C 
HETATM   22  O   LIG     1      25.956  20.632  28.149  1.00  0.00    -0.295 OA
BRANCH  21  23
HETATM   23  C   LIG     1      26.974  22.739  27.915  1.00  0.00     0.257 C 
BRANCH  23  24
HETATM   24  O   LIG     1      26.348  23.910  28.434  1.00  0.00    -0.314 OA
BRANCH  24  25
HETATM   25  C   LIG     1      27.031  24.885  29.168  1.00  0.00     0.255 C 
HETATM   26  C   LIG     1      27.822  24.487  30.367  1.00  0.00     0.126 C 
HETATM   27  O   LIG     1      26.975  26.101  28.836  1.00  0.00    -0.266 OA
ENDBRANCH  24  25
ENDBRANCH  23  24
ENDBRANCH  21  23
ENDBRANCH   3  21
TORSDOF 4
ENDMDL
MODEL 5
REMARK VINA RESULT:      -5.0      7.590      9.473
REMARK  4 active torsions:
REMARK  status: ('A' for Active; 'I' for Inactive)
REMARK    1  A    between atoms: C_3  and  C_4 
REMARK    2  A    between atoms: C_4  and  C_5 
REMARK    3  A    between atoms: C_5  and  O_6 
REMARK    4  A    between atoms: O_6  and  C_7 
ROOT
HETATM    1  C   LIG     1      25.630  23.955  25.863  1.00  0.00     0.016 C 
HETATM    2  C   LIG     1      26.961  23.136  25.930  1.00  0.00    -0.030 C 
HETATM    3  C   LIG     1      26.900  21.919  24.978  1.00  0.00     0.066 C 
HETATM    4  C   LIG     1      28.177  24.061  25.706  1.00  0.00     0.011 C 
HETATM    5  C   LIG     1      28.303  25.088  26.854  1.00  0.00     0.007 C 
HETATM    6  C   LIG     1      27.167  22.417  27.268  1.00  0.00    -0.001 C 
HETATM    7  C   LIG     1      26.167  21.266  27.246  1.00  0.00     0.006 C 
HETATM    8  C   LIG     1      26.100  20.852  25.764  1.00  0.00     0.013 C 
HETATM    9  C   LIG     1      27.186  23.369  28.485  1.00  0.00    -0.004 C 
HETATM   10  C   LIG     1      27.404  22.559  29.798  1.00  0.00     0.010 C 
HETATM   11  C   LIG     1      28.227  23.298  30.865  1.00  0.00     0.035 C 
HETATM   12  C   LIG     1      27.993  24.781  30.776  1.00  0.00    -0.068 C 
HETATM   13  C   LIG     1      27.457  25.435  31.820  1.00  0.00     0.053 C 
HETATM   14  C   LIG     1      27.063  26.846  31.725  1.00  0.00     0.149 C 
HETATM   15  O   LIG     1      26.617  27.436  32.745  1.00  0.00    -0.293 OA
HETATM   16  C   LIG     1      28.313  24.439  28.279  1.00  0.00     0.002 C 
HETATM   17  C   LIG     1      28.340  25.492  29.464  1.00  0.00    -0.016 C 
HETATM   18  C   LIG     1      27.326  26.658  29.234  1.00  0.00     0.022 C 
HETATM   19  C   LIG     1      27.209  27.603  30.441  1.00  0.00     0.084 C 
HETATM   20  C   LIG     1      29.770  26.068  29.596  1.00  0.00     0.020 C 
ENDROOT
BRANCH   3  21
HETATM   21  C   LIG     1      26.349  22.204  23.592  1.00  0.00     0.155 C 
HETATM   22  O   LIG     1      26.962  22.925  22.817  1.00  0.00    -0.295 OA
BRANCH  21  23
HETATM   23  C   LIG     1      25.043  21.605  23.145  1.00  0.00     0.257 C 
BRANCH  23  24
HETATM   24  O   LIG     1      24.094  22.630  22.861  1.00  0.00    -0.314 OA
BRANCH  24  25
HETATM   25  C   LIG     1      23.612  22.896  21.575  1.00  0.00     0.255 C 
HETATM   26  C   LIG     1      22.143  22.941  21.333  1.00  0.00     0.126 C 
HETATM   27  O   LIG     1      24.408  23.086  20.614  1.00  0.00    -0.266 OA
ENDBRANCH  24  25
ENDBRANCH  23  24
ENDBRANCH  21  23
ENDBRANCH   3  21
TORSDOF 4
ENDMDL
MODEL 6
REMARK VINA RESULT:      -4.9      4.525      8.439
REMARK  4 active torsions:
REMARK  status: ('A' for Active; 'I' for Inactive)
REMARK    1  A    between atoms: C_3  and  C_4 
REMARK    2  A    between atoms: C_4  and  C_5 
REMARK    3  A    between atoms: C_5  and  O_6 
REMARK    4  A    between atoms: O_6  and  C_7 
ROOT
HETATM    1  C   LIG     1      29.324  23.363  23.013  1.00  0.00     0.016 C 
HETATM    2  C   LIG     1      28.088  24.314  23.141  1.00  0.00    -0.030 C 
HETATM    3  C   LIG     1      27.313  24.026  24.447  1.00  0.00     0.066 C 
HETATM    4  C   LIG     1      28.519  25.787  22.966  1.00  0.00     0.011 C 
HETATM    5  C   LIG     1      29.047  26.037  21.535  1.00  0.00     0.007 C 
HETATM    6  C   LIG     1      26.990  24.028  22.111  1.00  0.00    -0.001 C 
HETATM    7  C   LIG     1      26.351  22.725  22.579  1.00  0.00     0.006 C 
HETATM    8  C   LIG     1      26.440  22.792  24.115  1.00  0.00     0.013 C 
HETATM    9  C   LIG     1      27.471  24.142  20.647  1.00  0.00    -0.004 C 
HETATM   10  C   LIG     1      26.295  23.842  19.669  1.00  0.00     0.010 C 
HETATM   11  C   LIG     1      26.333  24.658  18.368  1.00  0.00     0.035 C 
HETATM   12  C   LIG     1      27.754  24.947  17.969  1.00  0.00    -0.068 C 
HETATM   13  C   LIG     1      28.227  24.479  16.802  1.00  0.00     0.053 C 
HETATM   14  C   LIG     1      29.646  24.597  16.443  1.00  0.00     0.149 C 
HETATM   15  O   LIG     1      30.036  24.196  15.315  1.00  0.00    -0.293 OA
HETATM   16  C   LIG     1      28.057  25.578  20.412  1.00  0.00     0.002 C 
HETATM   17  C   LIG     1      28.633  25.737  18.943  1.00  0.00    -0.016 C 
HETATM   18  C   LIG     1      30.104  25.224  18.832  1.00  0.00     0.022 C 
HETATM   19  C   LIG     1      30.632  25.213  17.388  1.00  0.00     0.084 C 
HETATM   20  C   LIG     1      28.573  27.230  18.538  1.00  0.00     0.020 C 
ENDROOT
BRANCH   3  21
HETATM   21  C   LIG     1      28.171  23.858  25.689  1.00  0.00     0.155 C 
HETATM   22  O   LIG     1      28.469  22.741  26.090  1.00  0.00    -0.295 OA
BRANCH  21  23
HETATM   23  C   LIG     1      28.672  25.058  26.446  1.00  0.00     0.257 C 
BRANCH  23  24
HETATM   24  O   LIG     1      28.487  24.877  27.848  1.00  0.00    -0.314 OA
BRANCH  24  25
HETATM   25  C   LIG     1      27.315  25.237  28.521  1.00  0.00     0.255 C 
HETATM   26  C   LIG     1      27.237  26.555  29.213  1.00  0.00     0.126 C 
HETATM   27  O   LIG     1      26.326  24.454  28.560  1.00  0.00    -0.266 OA
ENDBRANCH  24  25
ENDBRANCH  23  24
ENDBRANCH  21  23
ENDBRANCH   3  21
TORSDOF 4
ENDMDL
MODEL 7
REMARK VINA RESULT:      -4.8      5.916      8.072
REMARK  4 active torsions:
REMARK  status: ('A' for Active; 'I' for Inactive)
REMARK    1  A    between atoms: C_3  and  C_4 
REMARK    2  A    between atoms: C_4  and  C_5 
REMARK    3  A    between atoms: C_5  and  O_6 
REMARK    4  A    between atoms: O_6  and  C_7 
ROOT
HETATM    1  C   LIG     1      26.839  24.556  25.123  1.00  0.00     0.016 C 
HETATM    2  C   LIG     1      26.896  23.174  25.854  1.00  0.00    -0.030 C 
HETATM    3  C   LIG     1      28.011  23.172  26.926  1.00  0.00     0.066 C 
HETATM    4  C   LIG     1      25.499  22.784  26.386  1.00  0.00     0.011 C 
HETATM    5  C   LIG     1      24.513  22.557  25.219  1.00  0.00     0.007 C 
HETATM    6  C   LIG     1      27.386  22.030  24.959  1.00  0.00    -0.001 C 
HETATM    7  C   LIG     1      28.879  22.285  24.789  1.00  0.00     0.006 C 
HETATM    8  C   LIG     1      29.312  22.905  26.131  1.00  0.00     0.013 C 
HETATM    9  C   LIG     1      26.515  21.815  23.700  1.00  0.00    -0.004 C 
HETATM   10  C   LIG     1      27.078  20.635  22.852  1.00  0.00     0.010 C 
HETATM   11  C   LIG     1      26.003  19.804  22.135  1.00  0.00     0.035 C 
HETATM   12  C   LIG     1      24.829  20.669  21.767  1.00  0.00    -0.068 C 
HETATM   13  C   LIG     1      24.494  20.824  20.475  1.00  0.00     0.053 C 
HETATM   14  C   LIG     1      23.461  21.780  20.056  1.00  0.00     0.149 C 
HETATM   15  O   LIG     1      23.141  21.853  18.840  1.00  0.00    -0.293 OA
HETATM   16  C   LIG     1      25.035  21.545  24.143  1.00  0.00     0.002 C 
HETATM   17  C   LIG     1      24.074  21.384  22.892  1.00  0.00    -0.016 C 
HETATM   18  C   LIG     1      23.563  22.762  22.365  1.00  0.00     0.022 C 
HETATM   19  C   LIG     1      22.765  22.650  21.056  1.00  0.00     0.084 C 
HETATM   20  C   LIG     1      22.867  20.503  23.294  1.00  0.00     0.020 C 
ENDROOT
BRANCH   3  21
HETATM   21  C   LIG     1      28.070  24.408  27.807  1.00  0.00     0.155 C 
HETATM   22  O   LIG     1      29.008  25.187  27.719  1.00  0.00    -0.295 OA
BRANCH  21  23
HETATM   23  C   LIG     1      26.976  24.698  28.798  1.00  0.00     0.257 C 
BRANCH  23  24
HETATM   24  O   LIG     1      27.513  25.308  29.969  1.00  0.00    -0.314 OA
BRANCH  24  25
HETATM   25  C   LIG     1      27.191  26.608  30.375  1.00  0.00     0.255 C 
HETATM   26  C   LIG     1      27.655  27.769  29.565  1.00  0.00     0.126 C 
HETATM   27  O   LIG     1      26.525  26.810  31.427  1.00  0.00    -0.266 OA
ENDBRANCH  24  25
ENDBRANCH  23  24
ENDBRANCH  21  23
ENDBRANCH   3  21
TORSDOF 4
ENDMDL
MODEL 8
REMARK VINA RESULT:      -4.7      4.830      7.473
REMARK  4 active torsions:
REMARK  status: ('A' for Active; 'I' for Inactive)
REMARK    1  A    between atoms: C_3  and  C_4 
REMARK    2  A    between atoms: C_4  and  C_5 
REMARK    3  A    between atoms: C_5  and  O_6 
REMARK    4  A    between atoms: O_6  and  C_7 
ROOT
HETATM    1  C   LIG     1      26.804  21.593  25.960  1.00  0.00     0.016 C 
HETATM    2  C   LIG     1      25.396  22.119  26.392  1.00  0.00    -0.030 C 
HETATM    3  C   LIG     1      25.365  22.407  27.911  1.00  0.00     0.066 C 
HETATM    4  C   LIG     1      24.969  23.312  25.508  1.00  0.00     0.011 C 
HETATM    5  C   LIG     1      24.776  22.865  24.042  1.00  0.00     0.007 C 
HETATM    6  C   LIG     1      24.294  21.057  26.300  1.00  0.00    -0.001 C 
HETATM    7  C   LIG     1      24.573  20.110  27.461  1.00  0.00     0.006 C 
HETATM    8  C   LIG     1      25.146  21.021  28.563  1.00  0.00     0.013 C 
HETATM    9  C   LIG     1      24.118  20.472  24.882  1.00  0.00    -0.004 C 
HETATM   10  C   LIG     1      22.979  19.408  24.876  1.00  0.00     0.010 C 
HETATM   11  C   LIG     1      22.164  19.363  23.575  1.00  0.00     0.035 C 
HETATM   12  C   LIG     1      23.028  19.730  22.400  1.00  0.00    -0.068 C 
HETATM   13  C   LIG     1      23.230  18.838  21.416  1.00  0.00     0.053 C 
HETATM   14  C   LIG     1      24.189  19.089  20.333  1.00  0.00     0.149 C 
HETATM   15  O   LIG     1      24.305  18.250  19.401  1.00  0.00    -0.293 OA
HETATM   16  C   LIG     1      23.813  21.640  23.881  1.00  0.00     0.002 C 
HETATM   17  C   LIG     1      23.689  21.112  22.391  1.00  0.00    -0.016 C 
HETATM   18  C   LIG     1      25.081  21.004  21.690  1.00  0.00     0.022 C 
HETATM   19  C   LIG     1      25.011  20.341  20.305  1.00  0.00     0.084 C 
HETATM   20  C   LIG     1      22.779  22.072  21.589  1.00  0.00     0.020 C 
ENDROOT
BRANCH   3  21
HETATM   21  C   LIG     1      26.566  23.161  28.456  1.00  0.00     0.155 C 
HETATM   22  O   LIG     1      27.408  22.582  29.128  1.00  0.00    -0.295 OA
BRANCH  21  23
HETATM   23  C   LIG     1      26.745  24.628  28.175  1.00  0.00     0.257 C 
BRANCH  23  24
HETATM   24  O   LIG     1      28.113  24.920  27.901  1.00  0.00    -0.314 OA
BRANCH  24  25
HETATM   25  C   LIG     1      28.569  25.373  26.658  1.00  0.00     0.255 C 
HETATM   26  C   LIG     1      29.656  26.390  26.596  1.00  0.00     0.126 C 
HETATM   27  O   LIG     1      28.060  24.939  25.587  1.00  0.00    -0.266 OA
ENDBRANCH  24  25
ENDBRANCH  23  24
ENDBRANCH  21  23
ENDBRANCH   3  21
TORSDOF 4
ENDMDL
MODEL 9
REMARK VINA RESULT:      -4.7      1.389      2.318
REMARK  4 active torsions:
REMARK  status: ('A' for Active; 'I' for Inactive)
REMARK    1  A    between atoms: C_3  and  C_4 
REMARK    2  A    between atoms: C_4  and  C_5 
REMARK    3  A    between atoms: C_5  and  O_6 
REMARK    4  A    between atoms: O_6  and  C_7 
ROOT
HETATM    1  C   LIG     1      28.103  22.661  19.909  1.00  0.00     0.016 C 
HETATM    2  C   LIG     1      27.028  23.000  18.824  1.00  0.00    -0.030 C 
HETATM    3  C   LIG     1      27.507  24.168  17.931  1.00  0.00     0.066 C 
HETATM    4  C   LIG     1      26.622  21.728  18.048  1.00  0.00     0.011 C 
HETATM    5  C   LIG     1      25.917  20.719  18.982  1.00  0.00     0.007 C 
HETATM    6  C   LIG     1      25.750  23.616  19.405  1.00  0.00    -0.001 C 
HETATM    7  C   LIG     1      26.151  25.030  19.809  1.00  0.00     0.006 C 
HETATM    8  C   LIG     1      27.201  25.440  18.759  1.00  0.00     0.013 C 
HETATM    9  C   LIG     1      25.045  22.713  20.442  1.00  0.00    -0.004 C 
HETATM   10  C   LIG     1      23.757  23.409  20.975  1.00  0.00     0.010 C 
HETATM   11  C   LIG     1      22.605  22.444  21.297  1.00  0.00     0.035 C 
HETATM   12  C   LIG     1      23.143  21.119  21.761  1.00  0.00    -0.068 C 
HETATM   13  C   LIG     1      22.854  20.678  22.997  1.00  0.00     0.053 C 
HETATM   14  C   LIG     1      23.483  19.473  23.552  1.00  0.00     0.149 C 
HETATM   15  O   LIG     1      23.140  19.064  24.693  1.00  0.00    -0.293 OA
HETATM   16  C   LIG     1      24.713  21.332  19.775  1.00  0.00     0.002 C 
HETATM   17  C   LIG     1      24.049  20.331  20.810  1.00  0.00    -0.016 C 
HETATM   18  C   LIG     1      25.118  19.560  21.647  1.00  0.00     0.022 C 
HETATM   19  C   LIG     1      24.505  18.707  22.770  1.00  0.00     0.084 C 
HETATM   20  C   LIG     1      23.167  19.320  20.038  1.00  0.00     0.020 C 
ENDROOT
BRANCH   3  21
HETATM   21  C   LIG     1      28.945  24.075  17.453  1.00  0.00     0.155 C 
HETATM   22  O   LIG     1      29.747  24.958  17.726  1.00  0.00    -0.295 OA
BRANCH  21  23
HETATM   23  C   LIG     1      29.412  22.897  16.642  1.00  0.00     0.257 C 
BRANCH  23  24
HETATM   24  O   LIG     1      28.803  22.906  15.353  1.00  0.00    -0.314 OA
BRANCH  24  25
HETATM   25  C   LIG     1      29.049  21.931  14.381  1.00  0.00     0.255 C 
HETATM   26  C   LIG     1      28.134  20.760  14.263  1.00  0.00     0.126 C 
HETATM   27  O   LIG     1      30.044  22.023  13.610  1.00  0.00    -0.266 OA
ENDBRANCH  24  25
ENDBRANCH  23  24
ENDBRANCH  21  23
ENDBRANCH   3  21
TORSDOF 4
ENDMDL
MODEL 10
REMARK VINA RESULT:      -4.7      3.441      5.284
REMARK  4 active torsions:
REMARK  status: ('A' for Active; 'I' for Inactive)
REMARK    1  A    between atoms: C_3  and  C_4 
REMARK    2  A    between atoms: C_4  and  C_5 
REMARK    3  A    between atoms: C_5  and  O_6 
REMARK    4  A    between atoms: O_6  and  C_7 
ROOT
HETATM    1  C   LIG     1      25.125  20.339  21.425  1.00  0.00     0.016 C 
HETATM    2  C   LIG     1      24.220  21.602  21.605  1.00  0.00    -0.030 C 
HETATM    3  C   LIG     1      24.121  22.394  20.281  1.00  0.00     0.066 C 
HETATM    4  C   LIG     1      22.857  21.209  22.217  1.00  0.00     0.011 C 
HETATM    5  C   LIG     1      23.038  20.661  23.651  1.00  0.00     0.007 C 
HETATM    6  C   LIG     1      24.841  22.673  22.510  1.00  0.00    -0.001 C 
HETATM    7  C   LIG     1      25.959  23.284  21.673  1.00  0.00     0.006 C 
HETATM    8  C   LIG     1      25.425  23.226  20.229  1.00  0.00     0.013 C 
HETATM    9  C   LIG     1      25.163  22.167  23.933  1.00  0.00    -0.004 C 
HETATM   10  C   LIG     1      25.784  23.316  24.784  1.00  0.00     0.010 C 
HETATM   11  C   LIG     1      25.403  23.275  26.272  1.00  0.00     0.035 C 
HETATM   12  C   LIG     1      25.204  21.855  26.726  1.00  0.00    -0.068 C 
HETATM   13  C   LIG     1      25.990  21.347  27.690  1.00  0.00     0.053 C 
HETATM   14  C   LIG     1      25.941  19.925  28.054  1.00  0.00     0.149 C 
HETATM   15  O   LIG     1      26.655  19.503  29.002  1.00  0.00    -0.293 OA
HETATM   16  C   LIG     1      23.850  21.616  24.590  1.00  0.00     0.002 C 
HETATM   17  C   LIG     1      24.127  21.017  26.031  1.00  0.00    -0.016 C 
HETATM   18  C   LIG     1      24.602  19.531  25.966  1.00  0.00     0.022 C 
HETATM   19  C   LIG     1      25.036  18.975  27.332  1.00  0.00     0.084 C 
HETATM   20  C   LIG     1      22.832  21.110  26.873  1.00  0.00     0.020 C 
ENDROOT
BRANCH   3  21
HETATM   21  C   LIG     1      23.875  21.556  19.038  1.00  0.00     0.155 C 
HETATM   22  O   LIG     1      22.834  20.928  18.910  1.00  0.00    -0.295 OA
BRANCH  21  23
HETATM   23  C   LIG     1      24.903  21.487  17.942  1.00  0.00     0.257 C 
BRANCH  23  24
HETATM   24  O   LIG     1      25.591  20.239  17.981  1.00  0.00    -0.314 OA
BRANCH  24  25
HETATM   25  C   LIG     1      26.981  20.124  17.878  1.00  0.00     0.255 C 
HETATM   26  C   LIG     1      27.850  20.698  18.944  1.00  0.00     0.126 C 
HETATM   27  O   LIG     1      27.510  19.552  16.885  1.00  0.00    -0.266 OA
ENDBRANCH  24  25
ENDBRANCH  23  24
ENDBRANCH  21  23
ENDBRANCH   3  21
TORSDOF 4
ENDMDL
MODEL 11
REMARK VINA RESULT:      -4.6      5.539      8.625
REMARK  4 active torsions:
REMARK  status: ('A' for Active; 'I' for Inactive)
REMARK    1  A    between atoms: C_3  and  C_4 
REMARK    2  A    between atoms: C_4  and  C_5 
REMARK    3  A    between atoms: C_5  and  O_6 
REMARK    4  A    between atoms: O_6  and  C_7 
ROOT
HETATM    1  C   LIG     1      27.926  22.571  25.730  1.00  0.00     0.016 C 
HETATM    2  C   LIG     1      26.871  23.700  25.482  1.00  0.00    -0.030 C 
HETATM    3  C   LIG     1      25.946  23.859  26.711  1.00  0.00     0.066 C 
HETATM    4  C   LIG     1      27.568  25.004  25.036  1.00  0.00     0.011 C 
HETATM    5  C   LIG     1      28.255  24.816  23.664  1.00  0.00     0.007 C 
HETATM    6  C   LIG     1      25.833  23.341  24.413  1.00  0.00    -0.001 C 
HETATM    7  C   LIG     1      24.937  22.303  25.078  1.00  0.00     0.006 C 
HETATM    8  C   LIG     1      24.902  22.727  26.559  1.00  0.00     0.013 C 
HETATM    9  C   LIG     1      26.453  23.021  23.034  1.00  0.00    -0.004 C 
HETATM   10  C   LIG     1      25.332  22.673  22.009  1.00  0.00     0.010 C 
HETATM   11  C   LIG     1      25.627  23.132  20.572  1.00  0.00     0.035 C 
HETATM   12  C   LIG     1      27.106  23.098  20.302  1.00  0.00    -0.068 C 
HETATM   13  C   LIG     1      27.589  22.294  19.340  1.00  0.00     0.053 C 
HETATM   14  C   LIG     1      29.032  22.106  19.146  1.00  0.00     0.149 C 
HETATM   15  O   LIG     1      29.442  21.388  18.196  1.00  0.00    -0.293 OA
HETATM   16  C   LIG     1      27.301  24.251  22.557  1.00  0.00     0.002 C 
HETATM   17  C   LIG     1      28.022  23.960  21.176  1.00  0.00    -0.016 C 
HETATM   18  C   LIG     1      29.383  23.220  21.370  1.00  0.00     0.022 C 
HETATM   19  C   LIG     1      30.025  22.777  20.045  1.00  0.00     0.084 C 
HETATM   20  C   LIG     1      28.261  25.300  20.440  1.00  0.00     0.020 C 
ENDROOT
BRANCH   3  21
HETATM   21  C   LIG     1      26.649  23.871  28.058  1.00  0.00     0.155 C 
HETATM   22  O   LIG     1      26.598  22.895  28.793  1.00  0.00    -0.295 OA
BRANCH  21  23
HETATM   23  C   LIG     1      27.423  25.079  28.510  1.00  0.00     0.257 C 
BRANCH  23  24
HETATM   24  O   LIG     1      26.983  25.500  29.799  1.00  0.00    -0.314 OA
BRANCH  24  25
HETATM   25  C   LIG     1      27.116  26.812  30.266  1.00  0.00     0.255 C 
HETATM   26  C   LIG     1      27.876  27.808  29.460  1.00  0.00     0.126 C 
HETATM   27  O   LIG     1      26.611  27.159  31.370  1.00  0.00    -0.266 OA
ENDBRANCH  24  25
ENDBRANCH  23  24
ENDBRANCH  21  23
ENDBRANCH   3  21
TORSDOF 4
ENDMDL
MODEL 12
REMARK VINA RESULT:      -4.6      3.936      5.143
REMARK  4 active torsions:
REMARK  status: ('A' for Active; 'I' for Inactive)
REMARK    1  A    between atoms: C_3  and  C_4 
REMARK    2  A    between atoms: C_4  and  C_5 
REMARK    3  A    between atoms: C_5  and  O_6 
REMARK    4  A    between atoms: O_6  and  C_7 
ROOT
HETATM    1  C   LIG     1      26.632  20.943  22.690  1.00  0.00     0.016 C 
HETATM    2  C   LIG     1      25.934  22.342  22.770  1.00  0.00    -0.030 C 
HETATM    3  C   LIG     1      26.390  23.244  21.600  1.00  0.00     0.066 C 
HETATM    4  C   LIG     1      24.403  22.177  22.890  1.00  0.00     0.011 C 
HETATM    5  C   LIG     1      24.030  21.488  24.222  1.00  0.00     0.007 C 
HETATM    6  C   LIG     1      26.404  23.189  23.958  1.00  0.00    -0.001 C 
HETATM    7  C   LIG     1      27.812  23.634  23.583  1.00  0.00     0.006 C 
HETATM    8  C   LIG     1      27.760  23.803  22.053  1.00  0.00     0.013 C 
HETATM    9  C   LIG     1      26.172  22.514  25.328  1.00  0.00    -0.004 C 
HETATM   10  C   LIG     1      26.670  23.443  26.477  1.00  0.00     0.010 C 
HETATM   11  C   LIG     1      25.837  23.356  27.765  1.00  0.00     0.035 C 
HETATM   12  C   LIG     1      25.276  21.971  27.936  1.00  0.00    -0.068 C 
HETATM   13  C   LIG     1      25.622  21.239  29.008  1.00  0.00     0.053 C 
HETATM   14  C   LIG     1      25.230  19.830  29.139  1.00  0.00     0.149 C 
HETATM   15  O   LIG     1      25.529  19.198  30.187  1.00  0.00    -0.293 OA
HETATM   16  C   LIG     1      24.647  22.183  25.483  1.00  0.00     0.002 C 
HETATM   17  C   LIG     1      24.352  21.424  26.844  1.00  0.00    -0.016 C 
HETATM   18  C   LIG     1      24.575  19.883  26.715  1.00  0.00     0.022 C 
HETATM   19  C   LIG     1      24.458  19.141  28.056  1.00  0.00     0.084 C 
HETATM   20  C   LIG     1      22.891  21.702  27.270  1.00  0.00     0.020 C 
ENDROOT
BRANCH   3  21
HETATM   21  C   LIG     1      26.417  22.577  20.236  1.00  0.00     0.155 C 
HETATM   22  O   LIG     1      27.320  21.807  19.940  1.00  0.00    -0.295 OA
BRANCH  21  23
HETATM   23  C   LIG     1      25.333  22.846  19.227  1.00  0.00     0.257 C 
BRANCH  23  24
HETATM   24  O   LIG     1      25.829  23.662  18.168  1.00  0.00    -0.314 OA
BRANCH  24  25
HETATM   25  C   LIG     1      26.537  24.850  18.381  1.00  0.00     0.255 C 
HETATM   26  C   LIG     1      27.926  24.985  17.859  1.00  0.00     0.126 C 
HETATM   27  O   LIG     1      26.017  25.805  19.021  1.00  0.00    -0.266 OA
ENDBRANCH  24  25
ENDBRANCH  23  24
ENDBRANCH  21  23
ENDBRANCH   3  21
TORSDOF 4
ENDMDL
MODEL 13
REMARK VINA RESULT:      -4.4      2.151      3.557
REMARK  4 active torsions:
REMARK  status: ('A' for Active; 'I' for Inactive)
REMARK    1  A    between atoms: C_3  and  C_4 
REMARK    2  A    between atoms: C_4  and  C_5 
REMARK    3  A    between atoms: C_5  and  O_6 
REMARK    4  A    between atoms: O_6  and  C_7 
ROOT
HETATM    1  C   LIG     1      24.936  23.845  20.903  1.00  0.00     0.016 C 
HETATM    2  C   LIG     1      25.472  22.455  20.423  1.00  0.00    -0.030 C 
HETATM    3  C   LIG     1      25.674  22.451  18.890  1.00  0.00     0.066 C 
HETATM    4  C   LIG     1      26.724  22.049  21.233  1.00  0.00     0.011 C 
HETATM    5  C   LIG     1      26.366  21.827  22.720  1.00  0.00     0.007 C 
HETATM    6  C   LIG     1      24.446  21.326  20.560  1.00  0.00    -0.001 C 
HETATM    7  C   LIG     1      23.427  21.594  19.459  1.00  0.00     0.006 C 
HETATM    8  C   LIG     1      24.259  22.203  18.314  1.00  0.00     0.013 C 
HETATM    9  C   LIG     1      23.946  21.117  22.007  1.00  0.00    -0.004 C 
HETATM   10  C   LIG     1      22.914  19.951  22.057  1.00  0.00     0.010 C 
HETATM   11  C   LIG     1      22.963  19.119  23.349  1.00  0.00     0.035 C 
HETATM   12  C   LIG     1      23.375  19.979  24.512  1.00  0.00    -0.068 C 
HETATM   13  C   LIG     1      22.534  20.146  25.548  1.00  0.00     0.053 C 
HETATM   14  C   LIG     1      22.822  21.098  26.628  1.00  0.00     0.149 C 
HETATM   15  O   LIG     1      22.034  21.181  27.607  1.00  0.00    -0.293 OA
HETATM   16  C   LIG     1      25.176  20.831  22.937  1.00  0.00     0.002 C 
HETATM   17  C   LIG     1      24.737  20.676  24.452  1.00  0.00    -0.016 C 
HETATM   18  C   LIG     1      24.634  22.056  25.176  1.00  0.00     0.022 C 
HETATM   19  C   LIG     1      24.052  21.952  26.596  1.00  0.00     0.084 C 
HETATM   20  C   LIG     1      25.764  19.781  25.186  1.00  0.00     0.020 C 
ENDROOT
BRANCH   3  21
HETATM   21  C   LIG     1      26.365  23.677  18.320  1.00  0.00     0.155 C 
HETATM   22  O   LIG     1      25.708  24.608  17.875  1.00  0.00    -0.295 OA
BRANCH  21  23
HETATM   23  C   LIG     1      27.866  23.773  18.296  1.00  0.00     0.257 C 
BRANCH  23  24
HETATM   24  O   LIG     1      28.315  24.261  17.035  1.00  0.00    -0.314 OA
BRANCH  24  25
HETATM   25  C   LIG     1      29.104  23.511  16.157  1.00  0.00     0.255 C 
HETATM   26  C   LIG     1      28.871  22.045  16.025  1.00  0.00     0.126 C 
HETATM   27  O   LIG     1      30.022  24.058  15.485  1.00  0.00    -0.266 OA
ENDBRANCH  24  25
ENDBRANCH  23  24
ENDBRANCH  21  23
ENDBRANCH   3  21
TORSDOF 4
ENDMDL
MODEL 14
REMARK VINA RESULT:      -4.4      3.517      4.616
REMARK  4 active torsions:
REMARK  status: ('A' for Active; 'I' for Inactive)
REMARK    1  A    between atoms: C_3  and  C_4 
REMARK    2  A    between atoms: C_4  and  C_5 
REMARK    3  A    between atoms: C_5  and  O_6 
REMARK    4  A    between atoms: O_6  and  C_7 
ROOT
HETATM    1  C   LIG     1      26.080  18.727  18.475  1.00  0.00     0.016 C 
HETATM    2  C   LIG     1      25.991  20.152  17.836  1.00  0.00    -0.030 C 
HETATM    3  C   LIG     1      26.916  20.253  16.602  1.00  0.00     0.066 C 
HETATM    4  C   LIG     1      24.519  20.532  17.563  1.00  0.00     0.011 C 
HETATM    5  C   LIG     1      23.731  20.658  18.886  1.00  0.00     0.007 C 
HETATM    6  C   LIG     1      26.597  21.253  18.714  1.00  0.00    -0.001 C 
HETATM    7  C   LIG     1      28.103  21.033  18.625  1.00  0.00     0.006 C 
HETATM    8  C   LIG     1      28.324  20.509  17.193  1.00  0.00     0.013 C 
HETATM    9  C   LIG     1      25.939  21.364  20.107  1.00  0.00    -0.004 C 
HETATM   10  C   LIG     1      26.609  22.506  20.929  1.00  0.00     0.010 C 
HETATM   11  C   LIG     1      25.648  23.259  21.862  1.00  0.00     0.035 C 
HETATM   12  C   LIG     1      24.566  22.339  22.357  1.00  0.00    -0.068 C 
HETATM   13  C   LIG     1      24.450  22.095  23.674  1.00  0.00     0.053 C 
HETATM   14  C   LIG     1      23.517  21.085  24.190  1.00  0.00     0.149 C 
HETATM   15  O   LIG     1      23.400  20.929  25.435  1.00  0.00    -0.293 OA
HETATM   16  C   LIG     1      24.402  21.617  19.927  1.00  0.00     0.002 C 
HETATM   17  C   LIG     1      23.654  21.672  21.324  1.00  0.00    -0.016 C 
HETATM   18  C   LIG     1      23.262  20.249  21.835  1.00  0.00     0.022 C 
HETATM   19  C   LIG     1      22.685  20.257  23.261  1.00  0.00     0.084 C 
HETATM   20  C   LIG     1      22.380  22.540  21.180  1.00  0.00     0.020 C 
ENDROOT
BRANCH   3  21
HETATM   21  C   LIG     1      26.856  19.076  15.644  1.00  0.00     0.155 C 
HETATM   22  O   LIG     1      27.481  18.052  15.880  1.00  0.00    -0.295 OA
BRANCH  21  23
HETATM   23  C   LIG     1      26.024  19.145  14.392  1.00  0.00     0.257 C 
BRANCH  23  24
HETATM   24  O   LIG     1      26.818  18.843  13.248  1.00  0.00    -0.314 OA
BRANCH  24  25
HETATM   25  C   LIG     1      27.432  19.821  12.459  1.00  0.00     0.255 C 
HETATM   26  C   LIG     1      28.713  20.435  12.909  1.00  0.00     0.126 C 
HETATM   27  O   LIG     1      26.907  20.201  11.376  1.00  0.00    -0.266 OA
ENDBRANCH  24  25
ENDBRANCH  23  24
ENDBRANCH  21  23
ENDBRANCH   3  21
TORSDOF 4
ENDMDL
MODEL 15
REMARK VINA RESULT:      -4.4      5.585      7.468
REMARK  4 active torsions:
REMARK  status: ('A' for Active; 'I' for Inactive)
REMARK    1  A    between atoms: C_3  and  C_4 
REMARK    2  A    between atoms: C_4  and  C_5 
REMARK    3  A    between atoms: C_5  and  O_6 
REMARK    4  A    between atoms: O_6  and  C_7 
ROOT
HETATM    1  C   LIG     1      27.149  25.058  25.639  1.00  0.00     0.016 C 
HETATM    2  C   LIG     1      28.399  24.409  24.957  1.00  0.00    -0.030 C 
HETATM    3  C   LIG     1      29.695  25.119  25.411  1.00  0.00     0.066 C 
HETATM    4  C   LIG     1      28.399  22.880  25.173  1.00  0.00     0.011 C 
HETATM    5  C   LIG     1      27.194  22.226  24.460  1.00  0.00     0.007 C 
HETATM    6  C   LIG     1      28.470  24.664  23.447  1.00  0.00    -0.001 C 
HETATM    7  C   LIG     1      28.852  26.134  23.321  1.00  0.00     0.006 C 
HETATM    8  C   LIG     1      29.767  26.392  24.533  1.00  0.00     0.013 C 
HETATM    9  C   LIG     1      27.238  24.142  22.674  1.00  0.00    -0.004 C 
HETATM   10  C   LIG     1      27.395  24.436  21.151  1.00  0.00     0.010 C 
HETATM   11  C   LIG     1      26.787  23.362  20.236  1.00  0.00     0.035 C 
HETATM   12  C   LIG     1      25.590  22.729  20.890  1.00  0.00    -0.068 C 
HETATM   13  C   LIG     1      24.382  22.830  20.309  1.00  0.00     0.053 C 
HETATM   14  C   LIG     1      23.162  22.370  20.984  1.00  0.00     0.149 C 
HETATM   15  O   LIG     1      22.058  22.433  20.380  1.00  0.00    -0.293 OA
HETATM   16  C   LIG     1      27.078  22.606  22.945  1.00  0.00     0.002 C 
HETATM   17  C   LIG     1      25.788  22.021  22.233  1.00  0.00    -0.016 C 
HETATM   18  C   LIG     1      24.503  22.209  23.102  1.00  0.00     0.022 C 
HETATM   19  C   LIG     1      23.214  21.803  22.370  1.00  0.00     0.084 C 
HETATM   20  C   LIG     1      26.006  20.515  21.952  1.00  0.00     0.020 C 
ENDROOT
BRANCH   3  21
HETATM   21  C   LIG     1      29.801  25.391  26.901  1.00  0.00     0.155 C 
HETATM   22  O   LIG     1      29.649  26.524  27.336  1.00  0.00    -0.295 OA
BRANCH  21  23
HETATM   23  C   LIG     1      30.090  24.275  27.868  1.00  0.00     0.257 C 
BRANCH  23  24
HETATM   24  O   LIG     1      29.271  24.396  29.029  1.00  0.00    -0.314 OA
BRANCH  24  25
HETATM   25  C   LIG     1      27.899  24.127  29.032  1.00  0.00     0.255 C 
HETATM   26  C   LIG     1      26.935  25.210  29.377  1.00  0.00     0.126 C 
HETATM   27  O   LIG     1      27.467  22.973  28.760  1.00  0.00    -0.266 OA
ENDBRANCH  24  25
ENDBRANCH  23  24
ENDBRANCH  21  23
ENDBRANCH   3  21
TORSDOF 4
ENDMDL
MODEL 16
REMARK VINA RESULT:      -4.3      4.989      7.309
REMARK  4 active torsions:
REMARK  status: ('A' for Active; 'I' for Inactive)
REMARK    1  A    between atoms: C_3  and  C_4 
REMARK    2  A    between atoms: C_4  and  C_5 
REMARK    3  A    between atoms: C_5  and  O_6 
REMARK    4  A    between atoms: O_6  and  C_7 
ROOT
HETATM    1  C   LIG     1      25.862  20.820  22.841  1.00  0.00     0.016 C 
HETATM    2  C   LIG     1      25.220  22.223  22.579  1.00  0.00    -0.030 C 
HETATM    3  C   LIG     1      24.569  22.270  21.178  1.00  0.00     0.066 C 
HETATM    4  C   LIG     1      24.273  22.609  23.736  1.00  0.00     0.011 C 
HETATM    5  C   LIG     1      25.062  22.790  25.053  1.00  0.00     0.007 C 
HETATM    6  C   LIG     1      26.252  23.346  22.431  1.00  0.00    -0.001 C 
HETATM    7  C   LIG     1      26.892  23.106  21.068  1.00  0.00     0.006 C 
HETATM    8  C   LIG     1      25.749  22.530  20.211  1.00  0.00     0.013 C 
HETATM    9  C   LIG     1      27.164  23.514  23.666  1.00  0.00    -0.004 C 
HETATM   10  C   LIG     1      28.176  24.677  23.434  1.00  0.00     0.010 C 
HETATM   11  C   LIG     1      28.523  25.473  24.702  1.00  0.00     0.035 C 
HETATM   12  C   LIG     1      28.471  24.583  25.913  1.00  0.00    -0.068 C 
HETATM   13  C   LIG     1      29.581  24.387  26.644  1.00  0.00     0.053 C 
HETATM   14  C   LIG     1      29.620  23.407  27.737  1.00  0.00     0.149 C 
HETATM   15  O   LIG     1      30.665  23.295  28.432  1.00  0.00    -0.293 OA
HETATM   16  C   LIG     1      26.272  23.778  24.929  1.00  0.00     0.002 C 
HETATM   17  C   LIG     1      27.146  23.891  26.246  1.00  0.00    -0.016 C 
HETATM   18  C   LIG     1      27.447  22.491  26.871  1.00  0.00     0.022 C 
HETATM   19  C   LIG     1      28.429  22.556  28.053  1.00  0.00     0.084 C 
HETATM   20  C   LIG     1      26.395  24.767  27.277  1.00  0.00     0.020 C 
ENDROOT
BRANCH   3  21
HETATM   21  C   LIG     1      23.727  21.060  20.810  1.00  0.00     0.155 C 
HETATM   22  O   LIG     1      22.803  20.706  21.529  1.00  0.00    -0.295 OA
BRANCH  21  23
HETATM   23  C   LIG     1      24.010  20.278  19.556  1.00  0.00     0.257 C 
BRANCH  23  24
HETATM   24  O   LIG     1      22.907  20.360  18.657  1.00  0.00    -0.314 OA
BRANCH  24  25
HETATM   25  C   LIG     1      22.456  19.278  17.893  1.00  0.00     0.255 C 
HETATM   26  C   LIG     1      21.752  18.147  18.561  1.00  0.00     0.126 C 
HETATM   27  O   LIG     1      22.650  19.242  16.647  1.00  0.00    -0.266 OA
ENDBRANCH  24  25
ENDBRANCH  23  24
ENDBRANCH  21  23
ENDBRANCH   3  21
TORSDOF 4
ENDMDL
MODEL 17
REMARK VINA RESULT:      -4.2      3.804      4.457
REMARK  4 active torsions:
REMARK  status: ('A' for Active; 'I' for Inactive)
REMARK    1  A    between atoms: C_3  and  C_4 
REMARK    2  A    between atoms: C_4  and  C_5 
REMARK    3  A    between atoms: C_5  and  O_6 
REMARK    4  A    between atoms: O_6  and  C_7 
ROOT
HETATM    1  C   LIG     1      27.666  22.055  21.883  1.00  0.00     0.016 C 
HETATM    2  C   LIG     1      26.724  23.300  21.994  1.00  0.00    -0.030 C 
HETATM    3  C   LIG     1      27.001  24.296  20.844  1.00  0.00     0.066 C 
HETATM    4  C   LIG     1      25.250  22.854  22.110  1.00  0.00     0.011 C 
HETATM    5  C   LIG     1      25.014  22.079  23.426  1.00  0.00     0.007 C 
HETATM    6  C   LIG     1      27.034  24.193  23.201  1.00  0.00    -0.001 C 
HETATM    7  C   LIG     1      28.336  24.896  22.836  1.00  0.00     0.006 C 
HETATM    8  C   LIG     1      28.248  25.087  21.310  1.00  0.00     0.013 C 
HETATM    9  C   LIG     1      26.935  23.456  24.555  1.00  0.00    -0.004 C 
HETATM   10  C   LIG     1      27.259  24.435  25.724  1.00  0.00     0.010 C 
HETATM   11  C   LIG     1      26.460  24.168  27.010  1.00  0.00     0.035 C 
HETATM   12  C   LIG     1      26.164  22.700  27.149  1.00  0.00    -0.068 C 
HETATM   13  C   LIG     1      26.643  22.021  28.205  1.00  0.00     0.053 C 
HETATM   14  C   LIG     1      26.517  20.561  28.304  1.00  0.00     0.149 C 
HETATM   15  O   LIG     1      26.930  19.972  29.338  1.00  0.00    -0.293 OA
HETATM   16  C   LIG     1      25.498  22.847  24.702  1.00  0.00     0.002 C 
HETATM   17  C   LIG     1      25.352  22.017  26.045  1.00  0.00    -0.016 C 
HETATM   18  C   LIG     1      25.854  20.546  25.882  1.00  0.00     0.022 C 
HETATM   19  C   LIG     1      25.880  19.766  27.206  1.00  0.00     0.084 C 
HETATM   20  C   LIG     1      23.866  22.012  26.477  1.00  0.00     0.020 C 
ENDROOT
BRANCH   3  21
HETATM   21  C   LIG     1      27.145  23.675  19.465  1.00  0.00     0.155 C 
HETATM   22  O   LIG     1      26.245  22.995  18.994  1.00  0.00    -0.295 OA
BRANCH  21  23
HETATM   23  C   LIG     1      28.394  23.888  18.653  1.00  0.00     0.257 C 
BRANCH  23  24
HETATM   24  O   LIG     1      28.164  24.854  17.630  1.00  0.00    -0.314 OA
BRANCH  24  25
HETATM   25  C   LIG     1      28.982  25.971  17.430  1.00  0.00     0.255 C 
HETATM   26  C   LIG     1      28.725  27.221  18.200  1.00  0.00     0.126 C 
HETATM   27  O   LIG     1      29.927  25.939  16.594  1.00  0.00    -0.266 OA
ENDBRANCH  24  25
ENDBRANCH  23  24
ENDBRANCH  21  23
ENDBRANCH   3  21
TORSDOF 4
ENDMDL
MODEL 18
REMARK VINA RESULT:      -4.1      2.725      8.685
REMARK  4 active torsions:
REMARK  status: ('A' for Active; 'I' for Inactive)
REMARK    1  A    between atoms: C_3  and  C_4 
REMARK    2  A    between atoms: C_4  and  C_5 
REMARK    3  A    between atoms: C_5  and  O_6 
REMARK    4  A    between atoms: O_6  and  C_7 
ROOT
HETATM    1  C   LIG     1      25.808  23.311  24.606  1.00  0.00     0.016 C 
HETATM    2  C   LIG     1      25.281  21.909  24.156  1.00  0.00    -0.030 C 
HETATM    3  C   LIG     1      25.177  20.953  25.367  1.00  0.00     0.066 C 
HETATM    4  C   LIG     1      23.975  22.055  23.345  1.00  0.00     0.011 C 
HETATM    5  C   LIG     1      24.235  22.808  22.020  1.00  0.00     0.007 C 
HETATM    6  C   LIG     1      26.280  21.132  23.289  1.00  0.00    -0.001 C 
HETATM    7  C   LIG     1      27.370  20.691  24.258  1.00  0.00     0.006 C 
HETATM    8  C   LIG     1      26.622  20.441  25.581  1.00  0.00     0.013 C 
HETATM    9  C   LIG     1      26.683  21.875  21.996  1.00  0.00    -0.004 C 
HETATM   10  C   LIG     1      27.692  21.017  21.175  1.00  0.00     0.010 C 
HETATM   11  C   LIG     1      27.548  21.159  19.652  1.00  0.00     0.035 C 
HETATM   12  C   LIG     1      27.077  22.541  19.295  1.00  0.00    -0.068 C 
HETATM   13  C   LIG     1      27.853  23.334  18.536  1.00  0.00     0.053 C 
HETATM   14  C   LIG     1      27.512  24.742  18.294  1.00  0.00     0.149 C 
HETATM   15  O   LIG     1      28.237  25.433  17.531  1.00  0.00    -0.293 OA
HETATM   16  C   LIG     1      25.392  22.191  21.164  1.00  0.00     0.002 C 
HETATM   17  C   LIG     1      25.732  23.016  19.853  1.00  0.00    -0.016 C 
HETATM   18  C   LIG     1      25.811  24.551  20.132  1.00  0.00     0.022 C 
HETATM   19  C   LIG     1      26.300  25.361  18.920  1.00  0.00     0.084 C 
HETATM   20  C   LIG     1      24.647  22.738  18.786  1.00  0.00     0.020 C 
ENDROOT
BRANCH   3  21
HETATM   21  C   LIG     1      24.543  21.547  26.613  1.00  0.00     0.155 C 
HETATM   22  O   LIG     1      25.241  21.933  27.540  1.00  0.00    -0.295 OA
BRANCH  21  23
HETATM   23  C   LIG     1      23.049  21.677  26.728  1.00  0.00     0.257 C 
BRANCH  23  24
HETATM   24  O   LIG     1      22.531  20.701  27.628  1.00  0.00    -0.314 OA
BRANCH  24  25
HETATM   25  C   LIG     1      22.289  19.372  27.265  1.00  0.00     0.255 C 
HETATM   26  C   LIG     1      23.151  18.288  27.816  1.00  0.00     0.126 C 
HETATM   27  O   LIG     1      21.357  19.081  26.465  1.00  0.00    -0.266 OA
ENDBRANCH  24  25
ENDBRANCH  23  24
ENDBRANCH  21  23
ENDBRANCH   3  21
TORSDOF 4
ENDMDL
MODEL 19
REMARK VINA RESULT:      -3.9      8.631     11.213
REMARK  4 active torsions:
REMARK  status: ('A' for Active; 'I' for Inactive)
REMARK    1  A    between atoms: C_3  and  C_4 
REMARK    2  A    between atoms: C_4  and  C_5 
REMARK    3  A    between atoms: C_5  and  O_6 
REMARK    4  A    between atoms: O_6  and  C_7 
ROOT
HETATM    1  C   LIG     1      26.470  22.357  28.736  1.00  0.00     0.016 C 
HETATM    2  C   LIG     1      27.376  22.984  27.625  1.00  0.00    -0.030 C 
HETATM    3  C   LIG     1      27.694  21.940  26.530  1.00  0.00     0.066 C 
HETATM    4  C   LIG     1      26.754  24.295  27.096  1.00  0.00     0.011 C 
HETATM    5  C   LIG     1      26.713  25.369  28.206  1.00  0.00     0.007 C 
HETATM    6  C   LIG     1      28.795  23.306  28.107  1.00  0.00    -0.001 C 
HETATM    7  C   LIG     1      29.473  21.948  28.246  1.00  0.00     0.006 C 
HETATM    8  C   LIG     1      28.850  21.098  27.122  1.00  0.00     0.013 C 
HETATM    9  C   LIG     1      28.835  24.288  29.299  1.00  0.00    -0.004 C 
HETATM   10  C   LIG     1      30.310  24.564  29.719  1.00  0.00     0.010 C 
HETATM   11  C   LIG     1      30.564  25.992  30.227  1.00  0.00     0.035 C 
HETATM   12  C   LIG     1      29.340  26.533  30.912  1.00  0.00    -0.068 C 
HETATM   13  C   LIG     1      29.398  26.871  32.211  1.00  0.00     0.053 C 
HETATM   14  C   LIG     1      28.195  27.251  32.962  1.00  0.00     0.149 C 
HETATM   15  O   LIG     1      28.303  27.614  34.164  1.00  0.00    -0.293 OA
HETATM   16  C   LIG     1      28.099  25.612  28.895  1.00  0.00     0.002 C 
HETATM   17  C   LIG     1      28.044  26.639  30.102  1.00  0.00    -0.016 C 
HETATM   18  C   LIG     1      26.831  26.367  31.048  1.00  0.00     0.022 C 
HETATM   19  C   LIG     1      26.844  27.238  32.314  1.00  0.00     0.084 C 
HETATM   20  C   LIG     1      27.949  28.077  29.538  1.00  0.00     0.020 C 
ENDROOT
BRANCH   3  21
HETATM   21  C   LIG     1      26.512  21.114  26.054  1.00  0.00     0.155 C 
HETATM   22  O   LIG     1      26.390  19.948  26.401  1.00  0.00    -0.295 OA
BRANCH  21  23
HETATM   23  C   LIG     1      25.467  21.715  25.152  1.00  0.00     0.257 C 
BRANCH  23  24
HETATM   24  O   LIG     1      24.162  21.478  25.674  1.00  0.00    -0.314 OA
BRANCH  24  25
HETATM   25  C   LIG     1      23.233  20.630  25.062  1.00  0.00     0.255 C 
HETATM   26  C   LIG     1      23.142  20.584  23.576  1.00  0.00     0.126 C 
HETATM   27  O   LIG     1      22.460  19.912  25.755  1.00  0.00    -0.266 OA
ENDBRANCH  24  25
ENDBRANCH  23  24
ENDBRANCH  21  23
ENDBRANCH   3  21
TORSDOF 4
ENDMDL
MODEL 20
REMARK VINA RESULT:      -3.9      4.607      6.341
REMARK  4 active torsions:
REMARK  status: ('A' for Active; 'I' for Inactive)
REMARK    1  A    between atoms: C_3  and  C_4 
REMARK    2  A    between atoms: C_4  and  C_5 
REMARK    3  A    between atoms: C_5  and  O_6 
REMARK    4  A    between atoms: O_6  and  C_7 
ROOT
HETATM    1  C   LIG     1      27.827  21.122  22.858  1.00  0.00     0.016 C 
HETATM    2  C   LIG     1      26.631  22.087  22.565  1.00  0.00    -0.030 C 
HETATM    3  C   LIG     1      26.680  22.585  21.102  1.00  0.00     0.066 C 
HETATM    4  C   LIG     1      25.293  21.430  22.971  1.00  0.00     0.011 C 
HETATM    5  C   LIG     1      25.236  21.205  24.499  1.00  0.00     0.007 C 
HETATM    6  C   LIG     1      26.733  23.426  23.305  1.00  0.00    -0.001 C 
HETATM    7  C   LIG     1      27.845  24.181  22.587  1.00  0.00     0.006 C 
HETATM    8  C   LIG     1      27.718  23.733  21.118  1.00  0.00     0.013 C 
HETATM    9  C   LIG     1      26.800  23.278  24.842  1.00  0.00    -0.004 C 
HETATM   10  C   LIG     1      26.896  24.682  25.513  1.00  0.00     0.010 C 
HETATM   11  C   LIG     1      26.177  24.784  26.867  1.00  0.00     0.035 C 
HETATM   12  C   LIG     1      26.216  23.462  27.584  1.00  0.00    -0.068 C 
HETATM   13  C   LIG     1      26.834  23.367  28.774  1.00  0.00     0.053 C 
HETATM   14  C   LIG     1      27.037  22.072  29.435  1.00  0.00     0.149 C 
HETATM   15  O   LIG     1      27.571  22.035  30.575  1.00  0.00    -0.293 OA
HETATM   16  C   LIG     1      25.535  22.494  25.336  1.00  0.00     0.002 C 
HETATM   17  C   LIG     1      25.578  22.249  26.902  1.00  0.00    -0.016 C 
HETATM   18  C   LIG     1      26.396  20.970  27.271  1.00  0.00     0.022 C 
HETATM   19  C   LIG     1      26.595  20.797  28.786  1.00  0.00     0.084 C 
HETATM   20  C   LIG     1      24.131  22.109  27.430  1.00  0.00     0.020 C 
ENDROOT
BRANCH   3  21
HETATM   21  C   LIG     1      26.959  21.517  20.060  1.00  0.00     0.155 C 
HETATM   22  O   LIG     1      28.010  21.521  19.434  1.00  0.00    -0.295 OA
BRANCH  21  23
HETATM   23  C   LIG     1      25.954  20.433  19.781  1.00  0.00     0.257 C 
BRANCH  23  24
HETATM   24  O   LIG     1      24.635  20.973  19.744  1.00  0.00    -0.314 OA
BRANCH  24  25
HETATM   25  C   LIG     1      23.517  20.244  19.324  1.00  0.00     0.255 C 
HETATM   26  C   LIG     1      23.036  20.375  17.919  1.00  0.00     0.126 C 
HETATM   27  O   LIG     1      22.903  19.486  20.124  1.00  0.00    -0.266 OA
ENDBRANCH  24  25
ENDBRANCH  23  24
ENDBRANCH  21  23
ENDBRANCH   3  21
TORSDOF 4
ENDMDL
