REMARK  4 active torsions:
REMARK  status: ('A' for Active; 'I' for Inactive)
REMARK    1  A    between atoms: C_3  and  C_4 
REMARK    2  A    between atoms: C_4  and  C_5 
REMARK    3  A    between atoms: C_5  and  O_6 
REMARK    4  A    between atoms: O_6  and  C_7 
ROOT
HETATM    1  C   LIG     1       0.909   1.962   0.325  1.00  0.00     0.016 C 
HETATM    2  C   LIG     1       1.119   0.414   0.237  1.00  0.00    -0.030 C 
HETATM    3  C   LIG     1       2.596   0.083  -0.079  1.00  0.00     0.066 C 
HETATM    4  C   LIG     1       0.566  -0.280   1.501  1.00  0.00     0.011 C 
HETATM    5  C   LIG     1      -0.967  -0.108   1.594  1.00  0.00     0.007 C 
HETATM    6  C   LIG     1       0.437  -0.225  -0.978  1.00  0.00    -0.001 C 
HETATM    7  C   LIG     1       1.283   0.210  -2.169  1.00  0.00     0.006 C 
HETATM    8  C   LIG     1       2.717   0.276  -1.610  1.00  0.00     0.013 C 
HETATM    9  C   LIG     1      -1.090   0.005  -1.021  1.00  0.00    -0.004 C 
HETATM   10  C   LIG     1      -1.702  -0.680  -2.280  1.00  0.00     0.010 C 
HETATM   11  C   LIG     1      -3.114  -1.247  -2.066  1.00  0.00     0.035 C 
HETATM   12  C   LIG     1      -3.868  -0.417  -1.064  1.00  0.00    -0.068 C 
HETATM   13  C   LIG     1      -4.996   0.213  -1.434  1.00  0.00     0.053 C 
HETATM   14  C   LIG     1      -5.678   1.159  -0.542  1.00  0.00     0.149 C 
HETATM   15  O   LIG     1      -6.763   1.684  -0.908  1.00  0.00    -0.293 OA
HETATM   16  C   LIG     1      -1.728  -0.552   0.299  1.00  0.00     0.002 C 
HETATM   17  C   LIG     1      -3.290  -0.284   0.348  1.00  0.00    -0.016 C 
HETATM   18  C   LIG     1      -3.623   1.138   0.902  1.00  0.00     0.022 C 
HETATM   19  C   LIG     1      -5.117   1.489   0.807  1.00  0.00     0.084 C 
HETATM   20  C   LIG     1      -3.958  -1.357   1.241  1.00  0.00     0.020 C 
ENDROOT
BRANCH   3  21
HETATM   21  C   LIG     1       3.624   0.862   0.723  1.00  0.00     0.155 C 
HETATM   22  O   LIG     1       3.898   2.016   0.425  1.00  0.00    -0.295 OA
BRANCH  21  23
HETATM   23  C   LIG     1       4.320   0.232   1.899  1.00  0.00     0.257 C 
BRANCH  23  24
HETATM   24  O   LIG     1       5.725   0.163   1.669  1.00  0.00    -0.314 OA
BRANCH  24  25
HETATM   25  C   LIG     1       6.309  -0.695   0.731  1.00  0.00     0.255 C 
HETATM   26  C   LIG     1       7.784  -0.664   0.521  1.00  0.00     0.126 C 
HETATM   27  O   LIG     1       5.600  -1.486   0.050  1.00  0.00    -0.266 OA
ENDBRANCH  24  25
ENDBRANCH  23  24
ENDBRANCH  21  23
ENDBRANCH   3  21
TORSDOF 4
