REMARK  5 active torsions:
REMARK  status: ('A' for Active; 'I' for Inactive)
REMARK    1  A    between atoms: C_1  and  C_23 
REMARK    2  A    between atoms: C_8  and  C_9 
REMARK    3  A    between atoms: C_9  and  C_10 
REMARK    4  A    between atoms: C_9  and  O_22 
REMARK    5  A    between atoms: C_17  and  O_20 
ROOT
HETATM    1  C   LIG     1      -0.352   0.122  -1.832  1.00  0.00     0.185 C 
ENDROOT
BRANCH   1   2
HETATM    2  C   LIG     1       0.794  -0.072  -0.779  1.00  0.00     0.256 C 
HETATM    3  N   LIG     1       2.131  -0.062  -1.446  1.00  0.00     0.096 N 
HETATM    4  C   LIG     1       3.149  -0.609  -0.514  1.00  0.00     0.282 C 
HETATM    5  C   LIG     1       2.523   1.323  -1.819  1.00  0.00     0.273 C 
HETATM    6  C   LIG     1       3.158   0.197   0.820  1.00  0.00     0.040 C 
HETATM    7  C   LIG     1       2.225   1.430   0.677  1.00  0.00    -0.001 C 
HETATM    8  C   LIG     1       2.598   2.243  -0.577  1.00  0.00     0.035 C 
HETATM    9  C   LIG     1       0.791   0.911   0.444  1.00  0.00     0.044 C 
BRANCH   6  10
HETATM   10  C   LIG     1       4.543   0.541   1.336  1.00  0.00    -0.030 C 
HETATM   11  C   LIG     1       5.519   1.073   0.590  1.00  0.00     0.007 C 
ENDBRANCH   6  10
ENDBRANCH   1   2
BRANCH   1  12
HETATM   12  C   LIG     1      -1.418  -0.974  -1.736  1.00  0.00    -0.013 A 
HETATM   13  C   LIG     1      -1.404  -1.979  -2.722  1.00  0.00     0.030 A 
HETATM   14  C   LIG     1      -2.308  -3.037  -2.668  1.00  0.00     0.118 A 
HETATM   15  N   LIG     1      -3.210  -3.112  -1.661  1.00  0.00    -0.260 NA
HETATM   16  C   LIG     1      -3.275  -2.171  -0.685  1.00  0.00     0.067 A 
HETATM   17  C   LIG     1      -4.230  -2.306   0.327  1.00  0.00     0.035 A 
HETATM   18  C   LIG     1      -2.387  -1.063  -0.694  1.00  0.00     0.004 A 
HETATM   19  C   LIG     1      -4.327  -1.350   1.337  1.00  0.00     0.039 A 
HETATM   20  C   LIG     1      -3.470  -0.237   1.341  1.00  0.00     0.069 A 
HETATM   21  C   LIG     1      -2.514  -0.100   0.328  1.00  0.00     0.051 A 
BRANCH  20  22
HETATM   22  O   LIG     1      -3.537   0.757   2.330  1.00  0.00    -0.356 OA
HETATM   23  C   LIG     1      -4.458   0.753   3.415  1.00  0.00     0.210 C 
ENDBRANCH  20  22
ENDBRANCH   1  12
BRANCH   1  24
HETATM   24  O   LIG     1      -0.930   1.401  -1.776  1.00  0.00    -0.389 OA
HETATM   25  H   LIG     1      -1.486   1.504  -2.592  1.00  0.00     0.210 HD
ENDBRANCH   1  24
TORSDOF 5
