REMARK  6 active torsions:
REMARK  status: ('A' for Active; 'I' for Inactive)
REMARK    1  A    between atoms: O_1  and  C_2 
REMARK    2  A    between atoms: C_5  and  C_6 
REMARK    3  A    between atoms: C_6  and  C_7 
REMARK    4  A    between atoms: C_9  and  C_10 
REMARK    5  A    between atoms: C_9  and  C_12 
REMARK    6  A    between atoms: C_15  and  O_16 
ROOT
HETATM    1  C   LIG     1       0.576  -1.228   0.122  1.00  0.00    -0.041 C 
HETATM    2  C   LIG     1      -0.665  -1.108  -0.430  1.00  0.00    -0.041 C 
ENDROOT
BRANCH   1   3
HETATM    3  C   LIG     1       1.352  -0.024   0.513  1.00  0.00    -0.029 A 
HETATM    4  C   LIG     1       1.726   0.925  -0.453  1.00  0.00     0.014 A 
HETATM    5  C   LIG     1       2.449   2.062  -0.080  1.00  0.00     0.037 A 
HETATM    6  C   LIG     1       2.811   2.257   1.260  1.00  0.00     0.065 A 
HETATM    7  C   LIG     1       2.447   1.309   2.222  1.00  0.00     0.037 A 
HETATM    8  C   LIG     1       1.724   0.172   1.852  1.00  0.00     0.014 A 
BRANCH   6   9
HETATM    9  O   LIG     1       3.530   3.386   1.644  1.00  0.00    -0.361 OA
HETATM   10  H   LIG     1       3.808   4.091   0.971  1.00  0.00     0.217 HD
ENDBRANCH   6   9
ENDBRANCH   1   3
BRANCH   1  11
HETATM   11  C   LIG     1       1.285  -2.560   0.265  1.00  0.00     0.035 C 
HETATM   12  C   LIG     1       2.124  -2.863  -0.974  1.00  0.00     0.010 C 
ENDBRANCH   1  11
BRANCH   2  13
HETATM   13  C   LIG     1      -1.472  -2.300  -0.904  1.00  0.00     0.035 C 
HETATM   14  C   LIG     1      -2.344  -2.848   0.222  1.00  0.00     0.010 C 
ENDBRANCH   2  13
BRANCH   2  15
HETATM   15  C   LIG     1      -1.345   0.211  -0.488  1.00  0.00    -0.029 A 
HETATM   16  C   LIG     1      -1.687   0.774  -1.727  1.00  0.00     0.014 A 
HETATM   17  C   LIG     1      -2.319   2.020  -1.784  1.00  0.00     0.037 A 
HETATM   18  C   LIG     1      -2.619   2.712  -0.606  1.00  0.00     0.065 A 
HETATM   19  C   LIG     1      -2.287   2.150   0.634  1.00  0.00     0.037 A 
HETATM   20  C   LIG     1      -1.655   0.904   0.694  1.00  0.00     0.014 A 
BRANCH  18  21
HETATM   21  O   LIG     1      -3.247   3.953  -0.678  1.00  0.00    -0.361 OA
HETATM   22  H   LIG     1      -3.478   4.479   0.157  1.00  0.00     0.217 HD
ENDBRANCH  18  21
ENDBRANCH   2  15
TORSDOF 6
