MODEL 1
REMARK VINA RESULT:      -6.2      0.000      0.000
REMARK  6 active torsions:
REMARK  status: ('A' for Active; 'I' for Inactive)
REMARK    1  A    between atoms: O_1  and  C_2 
REMARK    2  A    between atoms: C_5  and  C_6 
REMARK    3  A    between atoms: C_6  and  C_7 
REMARK    4  A    between atoms: C_9  and  C_10 
REMARK    5  A    between atoms: C_9  and  C_12 
REMARK    6  A    between atoms: C_15  and  O_16 
ROOT
HETATM    1  C   LIG     1      14.974  31.030  14.890  1.00  0.00    -0.041 C 
HETATM    2  C   LIG     1      14.271  31.275  16.033  1.00  0.00    -0.041 C 
ENDROOT
BRANCH   1   3
HETATM    3  C   LIG     1      16.108  31.904  14.496  1.00  0.00    -0.029 A 
HETATM    4  C   LIG     1      16.118  32.531  13.240  1.00  0.00     0.014 A 
HETATM    5  C   LIG     1      17.183  33.360  12.875  1.00  0.00     0.037 A 
HETATM    6  C   LIG     1      18.251  33.564  13.760  1.00  0.00     0.065 A 
HETATM    7  C   LIG     1      18.247  32.933  15.009  1.00  0.00     0.037 A 
HETATM    8  C   LIG     1      17.183  32.104  15.376  1.00  0.00     0.014 A 
BRANCH   6   9
HETATM    9  O   LIG     1      19.317  34.388  13.409  1.00  0.00    -0.361 OA
HETATM   10  H   LIG     1      19.859  34.224  12.568  1.00  0.00     0.217 HD
ENDBRANCH   6   9
ENDBRANCH   1   3
BRANCH   1  11
HETATM   11  C   LIG     1      14.585  29.947  13.904  1.00  0.00     0.035 C 
HETATM   12  C   LIG     1      15.513  28.741  14.030  1.00  0.00     0.010 C 
ENDBRANCH   1  11
BRANCH   2  13
HETATM   13  C   LIG     1      13.067  30.453  16.448  1.00  0.00     0.035 C 
HETATM   14  C   LIG     1      11.897  31.356  16.828  1.00  0.00     0.010 C 
ENDBRANCH   2  13
BRANCH   2  15
HETATM   15  C   LIG     1      14.729  32.303  17.001  1.00  0.00    -0.029 A 
HETATM   16  C   LIG     1      15.089  31.933  18.306  1.00  0.00     0.014 A 
HETATM   17  C   LIG     1      15.513  32.901  19.221  1.00  0.00     0.037 A 
HETATM   18  C   LIG     1      15.585  34.246  18.841  1.00  0.00     0.065 A 
HETATM   19  C   LIG     1      15.235  34.619  17.536  1.00  0.00     0.037 A 
HETATM   20  C   LIG     1      14.811  33.653  16.619  1.00  0.00     0.014 A 
BRANCH  18  21
HETATM   21  O   LIG     1      16.007  35.200  19.764  1.00  0.00    -0.361 OA
HETATM   22  H   LIG     1      16.063  34.991  20.754  1.00  0.00     0.217 HD
ENDBRANCH  18  21
ENDBRANCH   2  15
TORSDOF 6
ENDMDL
MODEL 2
REMARK VINA RESULT:      -6.0      5.505      8.888
REMARK  6 active torsions:
REMARK  status: ('A' for Active; 'I' for Inactive)
REMARK    1  A    between atoms: O_1  and  C_2 
REMARK    2  A    between atoms: C_5  and  C_6 
REMARK    3  A    between atoms: C_6  and  C_7 
REMARK    4  A    between atoms: C_9  and  C_10 
REMARK    5  A    between atoms: C_9  and  C_12 
REMARK    6  A    between atoms: C_15  and  O_16 
ROOT
HETATM    1  C   LIG     1      17.060  36.316  23.465  1.00  0.00    -0.041 C 
HETATM    2  C   LIG     1      17.784  37.461  23.315  1.00  0.00    -0.041 C 
ENDROOT
BRANCH   1   3
HETATM    3  C   LIG     1      16.484  35.623  22.285  1.00  0.00    -0.029 A 
HETATM    4  C   LIG     1      15.355  36.147  21.634  1.00  0.00     0.014 A 
HETATM    5  C   LIG     1      14.820  35.497  20.518  1.00  0.00     0.037 A 
HETATM    6  C   LIG     1      15.405  34.313  20.046  1.00  0.00     0.065 A 
HETATM    7  C   LIG     1      16.525  33.785  20.698  1.00  0.00     0.037 A 
HETATM    8  C   LIG     1      17.061  34.433  21.814  1.00  0.00     0.014 A 
BRANCH   6   9
HETATM    9  O   LIG     1      14.883  33.657  18.934  1.00  0.00    -0.361 OA
HETATM   10  H   LIG     1      15.417  33.559  18.078  1.00  0.00     0.217 HD
ENDBRANCH   6   9
ENDBRANCH   1   3
BRANCH   1  11
HETATM   11  C   LIG     1      16.699  35.745  24.822  1.00  0.00     0.035 C 
HETATM   12  C   LIG     1      17.836  34.885  25.368  1.00  0.00     0.010 C 
ENDBRANCH   1  11
BRANCH   2  13
HETATM   13  C   LIG     1      18.340  38.241  24.490  1.00  0.00     0.035 C 
HETATM   14  C   LIG     1      17.227  38.627  25.461  1.00  0.00     0.010 C 
ENDBRANCH   2  13
BRANCH   2  15
HETATM   15  C   LIG     1      18.168  37.945  21.965  1.00  0.00    -0.029 A 
HETATM   16  C   LIG     1      18.430  37.028  20.936  1.00  0.00     0.014 A 
HETATM   17  C   LIG     1      18.801  37.481  19.666  1.00  0.00     0.037 A 
HETATM   18  C   LIG     1      18.909  38.852  19.411  1.00  0.00     0.065 A 
HETATM   19  C   LIG     1      18.640  39.772  20.433  1.00  0.00     0.037 A 
HETATM   20  C   LIG     1      18.269  39.322  21.704  1.00  0.00     0.014 A 
BRANCH  18  21
HETATM   21  O   LIG     1      19.281  39.289  18.142  1.00  0.00    -0.361 OA
HETATM   22  H   LIG     1      20.200  39.676  17.964  1.00  0.00     0.217 HD
ENDBRANCH  18  21
ENDBRANCH   2  15
TORSDOF 6
ENDMDL
MODEL 3
REMARK VINA RESULT:      -6.0      5.512      8.681
REMARK  6 active torsions:
REMARK  status: ('A' for Active; 'I' for Inactive)
REMARK    1  A    between atoms: O_1  and  C_2 
REMARK    2  A    between atoms: C_5  and  C_6 
REMARK    3  A    between atoms: C_6  and  C_7 
REMARK    4  A    between atoms: C_9  and  C_10 
REMARK    5  A    between atoms: C_9  and  C_12 
REMARK    6  A    between atoms: C_15  and  O_16 
ROOT
HETATM    1  C   LIG     1      17.795  37.463  23.315  1.00  0.00    -0.041 C 
HETATM    2  C   LIG     1      17.068  36.320  23.468  1.00  0.00    -0.041 C 
ENDROOT
BRANCH   1   3
HETATM    3  C   LIG     1      18.179  37.942  21.962  1.00  0.00    -0.029 A 
HETATM    4  C   LIG     1      18.430  37.025  20.928  1.00  0.00     0.014 A 
HETATM    5  C   LIG     1      18.782  37.479  19.654  1.00  0.00     0.037 A 
HETATM    6  C   LIG     1      18.895  38.854  19.404  1.00  0.00     0.065 A 
HETATM    7  C   LIG     1      18.654  39.768  20.434  1.00  0.00     0.037 A 
HETATM    8  C   LIG     1      18.301  39.317  21.709  1.00  0.00     0.014 A 
BRANCH   6   9
HETATM    9  O   LIG     1      19.244  39.319  18.139  1.00  0.00    -0.361 OA
HETATM   10  H   LIG     1      18.924  38.854  17.297  1.00  0.00     0.217 HD
ENDBRANCH   6   9
ENDBRANCH   1   3
BRANCH   1  11
HETATM   11  C   LIG     1      18.352  38.246  24.487  1.00  0.00     0.035 C 
HETATM   12  C   LIG     1      17.239  38.631  25.459  1.00  0.00     0.010 C 
ENDBRANCH   1  11
BRANCH   2  13
HETATM   13  C   LIG     1      16.704  35.755  24.827  1.00  0.00     0.035 C 
HETATM   14  C   LIG     1      17.840  34.900  25.381  1.00  0.00     0.010 C 
ENDBRANCH   2  13
BRANCH   2  15
HETATM   15  C   LIG     1      16.489  35.625  22.291  1.00  0.00    -0.029 A 
HETATM   16  C   LIG     1      17.066  34.436  21.819  1.00  0.00     0.014 A 
HETATM   17  C   LIG     1      16.528  33.786  20.705  1.00  0.00     0.037 A 
HETATM   18  C   LIG     1      15.407  34.313  20.055  1.00  0.00     0.065 A 
HETATM   19  C   LIG     1      14.823  35.496  20.526  1.00  0.00     0.037 A 
HETATM   20  C   LIG     1      15.359  36.149  21.641  1.00  0.00     0.014 A 
BRANCH  18  21
HETATM   21  O   LIG     1      14.883  33.655  18.945  1.00  0.00    -0.361 OA
HETATM   22  H   LIG     1      14.998  32.656  18.818  1.00  0.00     0.217 HD
ENDBRANCH  18  21
ENDBRANCH   2  15
TORSDOF 6
ENDMDL
MODEL 4
REMARK VINA RESULT:      -5.0     13.809     15.847
REMARK  6 active torsions:
REMARK  status: ('A' for Active; 'I' for Inactive)
REMARK    1  A    between atoms: O_1  and  C_2 
REMARK    2  A    between atoms: C_5  and  C_6 
REMARK    3  A    between atoms: C_6  and  C_7 
REMARK    4  A    between atoms: C_9  and  C_10 
REMARK    5  A    between atoms: C_9  and  C_12 
REMARK    6  A    between atoms: C_15  and  O_16 
ROOT
HETATM    1  C   LIG     1      25.943  23.498  20.311  1.00  0.00    -0.041 C 
HETATM    2  C   LIG     1      25.624  23.393  18.990  1.00  0.00    -0.041 C 
ENDROOT
BRANCH   1   3
HETATM    3  C   LIG     1      25.461  22.490  21.289  1.00  0.00    -0.029 A 
HETATM    4  C   LIG     1      24.281  22.714  22.018  1.00  0.00     0.014 A 
HETATM    5  C   LIG     1      23.826  21.759  22.932  1.00  0.00     0.037 A 
HETATM    6  C   LIG     1      24.549  20.575  23.131  1.00  0.00     0.065 A 
HETATM    7  C   LIG     1      25.729  20.354  22.413  1.00  0.00     0.037 A 
HETATM    8  C   LIG     1      26.186  21.306  21.499  1.00  0.00     0.014 A 
BRANCH   6   9
HETATM    9  O   LIG     1      24.105  19.616  24.038  1.00  0.00    -0.361 OA
HETATM   10  H   LIG     1      24.729  18.908  24.408  1.00  0.00     0.217 HD
ENDBRANCH   6   9
ENDBRANCH   1   3
BRANCH   1  11
HETATM   11  C   LIG     1      26.694  24.684  20.883  1.00  0.00     0.035 C 
HETATM   12  C   LIG     1      28.142  24.311  21.190  1.00  0.00     0.010 C 
ENDBRANCH   1  11
BRANCH   2  13
HETATM   13  C   LIG     1      26.037  24.427  17.961  1.00  0.00     0.035 C 
HETATM   14  C   LIG     1      27.490  24.226  17.541  1.00  0.00     0.010 C 
ENDBRANCH   2  13
BRANCH   2  15
HETATM   15  C   LIG     1      24.945  22.180  18.467  1.00  0.00    -0.029 A 
HETATM   16  C   LIG     1      23.548  22.071  18.533  1.00  0.00     0.014 A 
HETATM   17  C   LIG     1      22.907  20.926  18.050  1.00  0.00     0.037 A 
HETATM   18  C   LIG     1      23.655  19.883  17.492  1.00  0.00     0.065 A 
HETATM   19  C   LIG     1      25.050  19.992  17.415  1.00  0.00     0.037 A 
HETATM   20  C   LIG     1      25.693  21.136  17.898  1.00  0.00     0.014 A 
BRANCH  18  21
HETATM   21  O   LIG     1      23.003  18.748  17.016  1.00  0.00    -0.361 OA
HETATM   22  H   LIG     1      23.406  17.824  17.120  1.00  0.00     0.217 HD
ENDBRANCH  18  21
ENDBRANCH   2  15
TORSDOF 6
ENDMDL
MODEL 5
REMARK VINA RESULT:      -5.0     13.770     15.261
REMARK  6 active torsions:
REMARK  status: ('A' for Active; 'I' for Inactive)
REMARK    1  A    between atoms: O_1  and  C_2 
REMARK    2  A    between atoms: C_5  and  C_6 
REMARK    3  A    between atoms: C_6  and  C_7 
REMARK    4  A    between atoms: C_9  and  C_10 
REMARK    5  A    between atoms: C_9  and  C_12 
REMARK    6  A    between atoms: C_15  and  O_16 
ROOT
HETATM    1  C   LIG     1      25.564  23.330  18.933  1.00  0.00    -0.041 C 
HETATM    2  C   LIG     1      25.835  23.482  20.260  1.00  0.00    -0.041 C 
ENDROOT
BRANCH   1   3
HETATM    3  C   LIG     1      24.868  22.116  18.435  1.00  0.00    -0.029 A 
HETATM    4  C   LIG     1      25.604  21.021  17.955  1.00  0.00     0.014 A 
HETATM    5  C   LIG     1      24.946  19.876  17.495  1.00  0.00     0.037 A 
HETATM    6  C   LIG     1      23.545  19.820  17.505  1.00  0.00     0.065 A 
HETATM    7  C   LIG     1      22.810  20.913  17.974  1.00  0.00     0.037 A 
HETATM    8  C   LIG     1      23.465  22.058  18.435  1.00  0.00     0.014 A 
BRANCH   6   9
HETATM    9  O   LIG     1      22.878  18.685  17.051  1.00  0.00    -0.361 OA
HETATM   10  H   LIG     1      22.943  18.383  16.085  1.00  0.00     0.217 HD
ENDBRANCH   6   9
ENDBRANCH   1   3
BRANCH   1  11
HETATM   11  C   LIG     1      26.046  24.308  17.880  1.00  0.00     0.035 C 
HETATM   12  C   LIG     1      27.499  24.029  17.505  1.00  0.00     0.010 C 
ENDBRANCH   1  11
BRANCH   2  13
HETATM   13  C   LIG     1      26.598  24.670  20.812  1.00  0.00     0.035 C 
HETATM   14  C   LIG     1      28.028  24.277  21.173  1.00  0.00     0.010 C 
ENDBRANCH   2  13
BRANCH   2  15
HETATM   15  C   LIG     1      25.285  22.532  21.261  1.00  0.00    -0.029 A 
HETATM   16  C   LIG     1      25.980  21.353  21.569  1.00  0.00     0.014 A 
HETATM   17  C   LIG     1      25.459  20.453  22.504  1.00  0.00     0.037 A 
HETATM   18  C   LIG     1      24.245  20.724  23.142  1.00  0.00     0.065 A 
HETATM   19  C   LIG     1      23.551  21.905  22.844  1.00  0.00     0.037 A 
HETATM   20  C   LIG     1      24.070  22.807  21.909  1.00  0.00     0.014 A 
BRANCH  18  21
HETATM   21  O   LIG     1      23.737  19.817  24.069  1.00  0.00    -0.361 OA
HETATM   22  H   LIG     1      24.348  19.284  24.678  1.00  0.00     0.217 HD
ENDBRANCH  18  21
ENDBRANCH   2  15
TORSDOF 6
ENDMDL
MODEL 6
REMARK VINA RESULT:      -4.9     13.985     15.676
REMARK  6 active torsions:
REMARK  status: ('A' for Active; 'I' for Inactive)
REMARK    1  A    between atoms: O_1  and  C_2 
REMARK    2  A    between atoms: C_5  and  C_6 
REMARK    3  A    between atoms: C_6  and  C_7 
REMARK    4  A    between atoms: C_9  and  C_10 
REMARK    5  A    between atoms: C_9  and  C_12 
REMARK    6  A    between atoms: C_15  and  O_16 
ROOT
HETATM    1  C   LIG     1      24.223  21.927  20.548  1.00  0.00    -0.041 C 
HETATM    2  C   LIG     1      24.324  22.069  19.196  1.00  0.00    -0.041 C 
ENDROOT
BRANCH   1   3
HETATM    3  C   LIG     1      25.430  21.995  21.410  1.00  0.00    -0.029 A 
HETATM    4  C   LIG     1      26.193  20.841  21.656  1.00  0.00     0.014 A 
HETATM    5  C   LIG     1      27.333  20.910  22.462  1.00  0.00     0.037 A 
HETATM    6  C   LIG     1      27.718  22.131  23.034  1.00  0.00     0.065 A 
HETATM    7  C   LIG     1      26.955  23.279  22.797  1.00  0.00     0.037 A 
HETATM    8  C   LIG     1      25.814  23.213  21.992  1.00  0.00     0.014 A 
BRANCH   6   9
HETATM    9  O   LIG     1      28.853  22.212  23.836  1.00  0.00    -0.361 OA
HETATM   10  H   LIG     1      28.785  22.367  24.836  1.00  0.00     0.217 HD
ENDBRANCH   6   9
ENDBRANCH   1   3
BRANCH   1  11
HETATM   11  C   LIG     1      22.920  21.582  21.241  1.00  0.00     0.035 C 
HETATM   12  C   LIG     1      22.093  22.839  21.499  1.00  0.00     0.010 C 
ENDBRANCH   1  11
BRANCH   2  13
HETATM   13  C   LIG     1      23.134  21.946  18.265  1.00  0.00     0.035 C 
HETATM   14  C   LIG     1      22.860  20.484  17.925  1.00  0.00     0.010 C 
ENDBRANCH   2  13
BRANCH   2  15
HETATM   15  C   LIG     1      25.609  22.473  18.569  1.00  0.00    -0.029 A 
HETATM   16  C   LIG     1      26.505  21.498  18.108  1.00  0.00     0.014 A 
HETATM   17  C   LIG     1      27.719  21.876  17.526  1.00  0.00     0.037 A 
HETATM   18  C   LIG     1      28.047  23.230  17.396  1.00  0.00     0.065 A 
HETATM   19  C   LIG     1      27.150  24.208  17.848  1.00  0.00     0.037 A 
HETATM   20  C   LIG     1      25.935  23.832  18.430  1.00  0.00     0.014 A 
BRANCH  18  21
HETATM   21  O   LIG     1      29.260  23.592  16.817  1.00  0.00    -0.361 OA
HETATM   22  H   LIG     1      30.141  23.223  17.157  1.00  0.00     0.217 HD
ENDBRANCH  18  21
ENDBRANCH   2  15
TORSDOF 6
ENDMDL
MODEL 7
REMARK VINA RESULT:      -4.9     13.987     15.103
REMARK  6 active torsions:
REMARK  status: ('A' for Active; 'I' for Inactive)
REMARK    1  A    between atoms: O_1  and  C_2 
REMARK    2  A    between atoms: C_5  and  C_6 
REMARK    3  A    between atoms: C_6  and  C_7 
REMARK    4  A    between atoms: C_9  and  C_10 
REMARK    5  A    between atoms: C_9  and  C_12 
REMARK    6  A    between atoms: C_15  and  O_16 
ROOT
HETATM    1  C   LIG     1      24.346  22.095  19.200  1.00  0.00    -0.041 C 
HETATM    2  C   LIG     1      24.241  21.955  20.552  1.00  0.00    -0.041 C 
ENDROOT
BRANCH   1   3
HETATM    3  C   LIG     1      25.632  22.498  18.577  1.00  0.00    -0.029 A 
HETATM    4  C   LIG     1      26.540  21.525  18.129  1.00  0.00     0.014 A 
HETATM    5  C   LIG     1      27.747  21.908  17.534  1.00  0.00     0.037 A 
HETATM    6  C   LIG     1      28.059  23.267  17.390  1.00  0.00     0.065 A 
HETATM    7  C   LIG     1      27.160  24.237  17.844  1.00  0.00     0.037 A 
HETATM    8  C   LIG     1      25.954  23.857  18.438  1.00  0.00     0.014 A 
BRANCH   6   9
HETATM    9  O   LIG     1      29.257  23.660  16.799  1.00  0.00    -0.361 OA
HETATM   10  H   LIG     1      29.472  23.433  15.835  1.00  0.00     0.217 HD
ENDBRANCH   6   9
ENDBRANCH   1   3
BRANCH   1  11
HETATM   11  C   LIG     1      23.158  21.968  18.267  1.00  0.00     0.035 C 
HETATM   12  C   LIG     1      22.894  20.505  17.923  1.00  0.00     0.010 C 
ENDBRANCH   1  11
BRANCH   2  13
HETATM   13  C   LIG     1      22.938  21.607  21.243  1.00  0.00     0.035 C 
HETATM   14  C   LIG     1      22.113  22.863  21.510  1.00  0.00     0.010 C 
ENDBRANCH   2  13
BRANCH   2  15
HETATM   15  C   LIG     1      25.446  22.023  21.418  1.00  0.00    -0.029 A 
HETATM   16  C   LIG     1      26.190  20.864  21.683  1.00  0.00     0.014 A 
HETATM   17  C   LIG     1      27.320  20.924  22.505  1.00  0.00     0.037 A 
HETATM   18  C   LIG     1      27.718  22.142  23.066  1.00  0.00     0.065 A 
HETATM   19  C   LIG     1      26.982  23.305  22.798  1.00  0.00     0.037 A 
HETATM   20  C   LIG     1      25.853  23.247  21.976  1.00  0.00     0.014 A 
BRANCH  18  21
HETATM   21  O   LIG     1      28.844  22.188  23.885  1.00  0.00    -0.361 OA
HETATM   22  H   LIG     1      28.911  22.841  24.657  1.00  0.00     0.217 HD
ENDBRANCH  18  21
ENDBRANCH   2  15
TORSDOF 6
ENDMDL
MODEL 8
REMARK VINA RESULT:      -4.7     13.644     15.522
REMARK  6 active torsions:
REMARK  status: ('A' for Active; 'I' for Inactive)
REMARK    1  A    between atoms: O_1  and  C_2 
REMARK    2  A    between atoms: C_5  and  C_6 
REMARK    3  A    between atoms: C_6  and  C_7 
REMARK    4  A    between atoms: C_9  and  C_10 
REMARK    5  A    between atoms: C_9  and  C_12 
REMARK    6  A    between atoms: C_15  and  O_16 
ROOT
HETATM    1  C   LIG     1      23.973  21.970  19.460  1.00  0.00    -0.041 C 
HETATM    2  C   LIG     1      24.216  20.676  19.103  1.00  0.00    -0.041 C 
ENDROOT
BRANCH   1   3
HETATM    3  C   LIG     1      25.060  22.981  19.436  1.00  0.00    -0.029 A 
HETATM    4  C   LIG     1      25.312  23.725  18.271  1.00  0.00     0.014 A 
HETATM    5  C   LIG     1      26.331  24.683  18.255  1.00  0.00     0.037 A 
HETATM    6  C   LIG     1      27.110  24.900  19.399  1.00  0.00     0.065 A 
HETATM    7  C   LIG     1      26.866  24.154  20.557  1.00  0.00     0.037 A 
HETATM    8  C   LIG     1      25.848  23.197  20.576  1.00  0.00     0.014 A 
BRANCH   6   9
HETATM    9  O   LIG     1      28.127  25.852  19.395  1.00  0.00    -0.361 OA
HETATM   10  H   LIG     1      28.115  26.642  20.030  1.00  0.00     0.217 HD
ENDBRANCH   6   9
ENDBRANCH   1   3
BRANCH   1  11
HETATM   11  C   LIG     1      22.636  22.432  20.005  1.00  0.00     0.035 C 
HETATM   12  C   LIG     1      22.636  22.407  21.532  1.00  0.00     0.010 C 
ENDBRANCH   1  11
BRANCH   2  13
HETATM   13  C   LIG     1      23.159  19.593  19.170  1.00  0.00     0.035 C 
HETATM   14  C   LIG     1      22.434  19.457  17.834  1.00  0.00     0.010 C 
ENDBRANCH   2  13
BRANCH   2  15
HETATM   15  C   LIG     1      25.521  20.286  18.512  1.00  0.00    -0.029 A 
HETATM   16  C   LIG     1      26.537  19.765  19.328  1.00  0.00     0.014 A 
HETATM   17  C   LIG     1      27.770  19.406  18.774  1.00  0.00     0.037 A 
HETATM   18  C   LIG     1      27.997  19.557  17.403  1.00  0.00     0.065 A 
HETATM   19  C   LIG     1      26.983  20.068  16.582  1.00  0.00     0.037 A 
HETATM   20  C   LIG     1      25.749  20.429  17.133  1.00  0.00     0.014 A 
BRANCH  18  21
HETATM   21  O   LIG     1      29.231  19.196  16.865  1.00  0.00    -0.361 OA
HETATM   22  H   LIG     1      29.382  18.283  16.453  1.00  0.00     0.217 HD
ENDBRANCH  18  21
ENDBRANCH   2  15
TORSDOF 6
ENDMDL
MODEL 9
REMARK VINA RESULT:      -4.7     14.032     15.808
REMARK  6 active torsions:
REMARK  status: ('A' for Active; 'I' for Inactive)
REMARK    1  A    between atoms: O_1  and  C_2 
REMARK    2  A    between atoms: C_5  and  C_6 
REMARK    3  A    between atoms: C_6  and  C_7 
REMARK    4  A    between atoms: C_9  and  C_10 
REMARK    5  A    between atoms: C_9  and  C_12 
REMARK    6  A    between atoms: C_15  and  O_16 
ROOT
HETATM    1  C   LIG     1      25.231  22.031  20.657  1.00  0.00    -0.041 C 
HETATM    2  C   LIG     1      23.948  21.601  20.826  1.00  0.00    -0.041 C 
ENDROOT
BRANCH   1   3
HETATM    3  C   LIG     1      26.108  21.414  19.631  1.00  0.00    -0.029 A 
HETATM    4  C   LIG     1      26.422  22.111  18.452  1.00  0.00     0.014 A 
HETATM    5  C   LIG     1      27.256  21.531  17.491  1.00  0.00     0.037 A 
HETATM    6  C   LIG     1      27.777  20.247  17.697  1.00  0.00     0.065 A 
HETATM    7  C   LIG     1      27.460  19.547  18.866  1.00  0.00     0.037 A 
HETATM    8  C   LIG     1      26.627  20.125  19.828  1.00  0.00     0.014 A 
BRANCH   6   9
HETATM    9  O   LIG     1      28.610  19.659  16.748  1.00  0.00    -0.361 OA
HETATM   10  H   LIG     1      28.450  19.781  15.754  1.00  0.00     0.217 HD
ENDBRANCH   6   9
ENDBRANCH   1   3
BRANCH   1  11
HETATM   11  C   LIG     1      25.876  23.063  21.561  1.00  0.00     0.035 C 
HETATM   12  C   LIG     1      26.594  22.388  22.727  1.00  0.00     0.010 C 
ENDBRANCH   1  11
BRANCH   2  13
HETATM   13  C   LIG     1      23.031  22.153  21.900  1.00  0.00     0.035 C 
HETATM   14  C   LIG     1      21.906  22.978  21.282  1.00  0.00     0.010 C 
ENDBRANCH   2  13
BRANCH   2  15
HETATM   15  C   LIG     1      23.339  20.637  19.874  1.00  0.00    -0.029 A 
HETATM   16  C   LIG     1      23.009  21.045  18.573  1.00  0.00     0.014 A 
HETATM   17  C   LIG     1      22.428  20.141  17.678  1.00  0.00     0.037 A 
HETATM   18  C   LIG     1      22.175  18.823  18.073  1.00  0.00     0.065 A 
HETATM   19  C   LIG     1      22.511  18.409  19.369  1.00  0.00     0.037 A 
HETATM   20  C   LIG     1      23.093  19.311  20.266  1.00  0.00     0.014 A 
BRANCH  18  21
HETATM   21  O   LIG     1      21.594  17.934  17.172  1.00  0.00    -0.361 OA
HETATM   22  H   LIG     1      20.590  17.894  17.041  1.00  0.00     0.217 HD
ENDBRANCH  18  21
ENDBRANCH   2  15
TORSDOF 6
ENDMDL
MODEL 10
REMARK VINA RESULT:      -4.7     13.669     15.265
REMARK  6 active torsions:
REMARK  status: ('A' for Active; 'I' for Inactive)
REMARK    1  A    between atoms: O_1  and  C_2 
REMARK    2  A    between atoms: C_5  and  C_6 
REMARK    3  A    between atoms: C_6  and  C_7 
REMARK    4  A    between atoms: C_9  and  C_10 
REMARK    5  A    between atoms: C_9  and  C_12 
REMARK    6  A    between atoms: C_15  and  O_16 
ROOT
HETATM    1  C   LIG     1      23.950  20.626  18.756  1.00  0.00    -0.041 C 
HETATM    2  C   LIG     1      23.792  21.901  19.213  1.00  0.00    -0.041 C 
ENDROOT
BRANCH   1   3
HETATM    3  C   LIG     1      25.254  20.174  18.207  1.00  0.00    -0.029 A 
HETATM    4  C   LIG     1      25.483  20.183  16.821  1.00  0.00     0.014 A 
HETATM    5  C   LIG     1      26.714  19.764  16.308  1.00  0.00     0.037 A 
HETATM    6  C   LIG     1      27.725  19.326  17.175  1.00  0.00     0.065 A 
HETATM    7  C   LIG     1      27.495  19.308  18.555  1.00  0.00     0.037 A 
HETATM    8  C   LIG     1      26.266  19.726  19.070  1.00  0.00     0.014 A 
BRANCH   6   9
HETATM    9  O   LIG     1      28.956  18.907  16.676  1.00  0.00    -0.361 OA
HETATM   10  H   LIG     1      29.586  18.340  17.231  1.00  0.00     0.217 HD
ENDBRANCH   6   9
ENDBRANCH   1   3
BRANCH   1  11
HETATM   11  C   LIG     1      22.805  19.638  18.668  1.00  0.00     0.035 C 
HETATM   12  C   LIG     1      22.810  18.694  19.868  1.00  0.00     0.010 C 
ENDBRANCH   1  11
BRANCH   2  13
HETATM   13  C   LIG     1      22.468  22.432  19.724  1.00  0.00     0.035 C 
HETATM   14  C   LIG     1      22.435  22.432  21.250  1.00  0.00     0.010 C 
ENDBRANCH   2  13
BRANCH   2  15
HETATM   15  C   LIG     1      24.959  22.811  19.342  1.00  0.00    -0.029 A 
HETATM   16  C   LIG     1      25.360  23.602  18.254  1.00  0.00     0.014 A 
HETATM   17  C   LIG     1      26.464  24.452  18.371  1.00  0.00     0.037 A 
HETATM   18  C   LIG     1      27.173  24.524  19.574  1.00  0.00     0.065 A 
HETATM   19  C   LIG     1      26.771  23.743  20.666  1.00  0.00     0.037 A 
HETATM   20  C   LIG     1      25.668  22.892  20.552  1.00  0.00     0.014 A 
BRANCH  18  21
HETATM   21  O   LIG     1      28.272  25.374  19.675  1.00  0.00    -0.361 OA
HETATM   22  H   LIG     1      29.014  25.365  18.985  1.00  0.00     0.217 HD
ENDBRANCH  18  21
ENDBRANCH   2  15
TORSDOF 6
ENDMDL
MODEL 11
REMARK VINA RESULT:      -4.6     14.012     15.568
REMARK  6 active torsions:
REMARK  status: ('A' for Active; 'I' for Inactive)
REMARK    1  A    between atoms: O_1  and  C_2 
REMARK    2  A    between atoms: C_5  and  C_6 
REMARK    3  A    between atoms: C_6  and  C_7 
REMARK    4  A    between atoms: C_9  and  C_10 
REMARK    5  A    between atoms: C_9  and  C_12 
REMARK    6  A    between atoms: C_15  and  O_16 
ROOT
HETATM    1  C   LIG     1      24.273  21.756  20.975  1.00  0.00    -0.041 C 
HETATM    2  C   LIG     1      24.319  22.211  19.690  1.00  0.00    -0.041 C 
ENDROOT
BRANCH   1   3
HETATM    3  C   LIG     1      25.426  21.952  21.890  1.00  0.00    -0.029 A 
HETATM    4  C   LIG     1      25.326  22.835  22.979  1.00  0.00     0.014 A 
HETATM    5  C   LIG     1      26.410  23.011  23.844  1.00  0.00     0.037 A 
HETATM    6  C   LIG     1      27.605  22.313  23.625  1.00  0.00     0.065 A 
HETATM    7  C   LIG     1      27.709  21.440  22.537  1.00  0.00     0.037 A 
HETATM    8  C   LIG     1      26.628  21.262  21.671  1.00  0.00     0.014 A 
BRANCH   6   9
HETATM    9  O   LIG     1      28.691  22.479  24.481  1.00  0.00    -0.361 OA
HETATM   10  H   LIG     1      29.555  22.903  24.164  1.00  0.00     0.217 HD
ENDBRANCH   6   9
ENDBRANCH   1   3
BRANCH   1  11
HETATM   11  C   LIG     1      23.120  20.933  21.513  1.00  0.00     0.035 C 
HETATM   12  C   LIG     1      23.477  19.449  21.538  1.00  0.00     0.010 C 
ENDBRANCH   1  11
BRANCH   2  13
HETATM   13  C   LIG     1      23.197  21.981  18.697  1.00  0.00     0.035 C 
HETATM   14  C   LIG     1      23.352  20.630  18.005  1.00  0.00     0.010 C 
ENDBRANCH   2  13
BRANCH   2  15
HETATM   15  C   LIG     1      25.440  23.068  19.228  1.00  0.00    -0.029 A 
HETATM   16  C   LIG     1      26.394  22.560  18.333  1.00  0.00     0.014 A 
HETATM   17  C   LIG     1      27.455  23.363  17.904  1.00  0.00     0.037 A 
HETATM   18  C   LIG     1      27.572  24.680  18.362  1.00  0.00     0.065 A 
HETATM   19  C   LIG     1      26.617  25.194  19.249  1.00  0.00     0.037 A 
HETATM   20  C   LIG     1      25.554  24.394  19.679  1.00  0.00     0.014 A 
BRANCH  18  21
HETATM   21  O   LIG     1      28.635  25.468  17.928  1.00  0.00    -0.361 OA
HETATM   22  H   LIG     1      28.934  26.286  18.445  1.00  0.00     0.217 HD
ENDBRANCH  18  21
ENDBRANCH   2  15
TORSDOF 6
ENDMDL
MODEL 12
REMARK VINA RESULT:      -4.3     14.706     16.258
REMARK  6 active torsions:
REMARK  status: ('A' for Active; 'I' for Inactive)
REMARK    1  A    between atoms: O_1  and  C_2 
REMARK    2  A    between atoms: C_5  and  C_6 
REMARK    3  A    between atoms: C_6  and  C_7 
REMARK    4  A    between atoms: C_9  and  C_10 
REMARK    5  A    between atoms: C_9  and  C_12 
REMARK    6  A    between atoms: C_15  and  O_16 
ROOT
HETATM    1  C   LIG     1      24.492  22.137  21.184  1.00  0.00    -0.041 C 
HETATM    2  C   LIG     1      25.290  22.584  20.172  1.00  0.00    -0.041 C 
ENDROOT
BRANCH   1   3
HETATM    3  C   LIG     1      25.037  21.947  22.552  1.00  0.00    -0.029 A 
HETATM    4  C   LIG     1      25.569  20.706  22.938  1.00  0.00     0.014 A 
HETATM    5  C   LIG     1      26.089  20.532  24.224  1.00  0.00     0.037 A 
HETATM    6  C   LIG     1      26.075  21.596  25.138  1.00  0.00     0.065 A 
HETATM    7  C   LIG     1      25.538  22.830  24.758  1.00  0.00     0.037 A 
HETATM    8  C   LIG     1      25.018  23.006  23.473  1.00  0.00     0.014 A 
BRANCH   6   9
HETATM    9  O   LIG     1      26.592  21.436  26.421  1.00  0.00    -0.361 OA
HETATM   10  H   LIG     1      26.569  20.539  26.893  1.00  0.00     0.217 HD
ENDBRANCH   6   9
ENDBRANCH   1   3
BRANCH   1  11
HETATM   11  C   LIG     1      23.057  21.701  20.965  1.00  0.00     0.035 C 
HETATM   12  C   LIG     1      22.091  22.844  21.270  1.00  0.00     0.010 C 
ENDBRANCH   1  11
BRANCH   2  13
HETATM   13  C   LIG     1      24.800  22.735  18.746  1.00  0.00     0.035 C 
HETATM   14  C   LIG     1      25.095  21.477  17.934  1.00  0.00     0.010 C 
ENDBRANCH   2  13
BRANCH   2  15
HETATM   15  C   LIG     1      26.669  23.061  20.448  1.00  0.00    -0.029 A 
HETATM   16  C   LIG     1      27.735  22.150  20.492  1.00  0.00     0.014 A 
HETATM   17  C   LIG     1      29.032  22.596  20.761  1.00  0.00     0.037 A 
HETATM   18  C   LIG     1      29.277  23.956  20.983  1.00  0.00     0.065 A 
HETATM   19  C   LIG     1      28.217  24.871  20.931  1.00  0.00     0.037 A 
HETATM   20  C   LIG     1      26.919  24.427  20.663  1.00  0.00     0.014 A 
BRANCH  18  21
HETATM   21  O   LIG     1      30.575  24.386  21.251  1.00  0.00    -0.361 OA
HETATM   22  H   LIG     1      31.381  23.821  21.009  1.00  0.00     0.217 HD
ENDBRANCH  18  21
ENDBRANCH   2  15
TORSDOF 6
ENDMDL
MODEL 13
REMARK VINA RESULT:      -4.2     14.702     16.258
REMARK  6 active torsions:
REMARK  status: ('A' for Active; 'I' for Inactive)
REMARK    1  A    between atoms: O_1  and  C_2 
REMARK    2  A    between atoms: C_5  and  C_6 
REMARK    3  A    between atoms: C_6  and  C_7 
REMARK    4  A    between atoms: C_9  and  C_10 
REMARK    5  A    between atoms: C_9  and  C_12 
REMARK    6  A    between atoms: C_15  and  O_16 
ROOT
HETATM    1  C   LIG     1      23.851  21.861  20.241  1.00  0.00    -0.041 C 
HETATM    2  C   LIG     1      25.069  22.465  20.342  1.00  0.00    -0.041 C 
ENDROOT
BRANCH   1   3
HETATM    3  C   LIG     1      23.431  20.831  21.226  1.00  0.00    -0.029 A 
HETATM    4  C   LIG     1      23.744  19.478  21.016  1.00  0.00     0.014 A 
HETATM    5  C   LIG     1      23.355  18.512  21.949  1.00  0.00     0.037 A 
HETATM    6  C   LIG     1      22.643  18.890  23.096  1.00  0.00     0.065 A 
HETATM    7  C   LIG     1      22.323  20.236  23.302  1.00  0.00     0.037 A 
HETATM    8  C   LIG     1      22.711  21.203  22.372  1.00  0.00     0.014 A 
BRANCH   6   9
HETATM    9  O   LIG     1      22.251  17.937  24.033  1.00  0.00    -0.361 OA
HETATM   10  H   LIG     1      22.892  17.595  24.740  1.00  0.00     0.217 HD
ENDBRANCH   6   9
ENDBRANCH   1   3
BRANCH   1  11
HETATM   11  C   LIG     1      22.909  22.103  19.079  1.00  0.00     0.035 C 
HETATM   12  C   LIG     1      22.865  20.889  18.155  1.00  0.00     0.010 C 
ENDBRANCH   1  11
BRANCH   2  13
HETATM   13  C   LIG     1      25.572  23.475  19.330  1.00  0.00     0.035 C 
HETATM   14  C   LIG     1      26.508  22.814  18.323  1.00  0.00     0.010 C 
ENDBRANCH   2  13
BRANCH   2  15
HETATM   15  C   LIG     1      25.929  22.245  21.533  1.00  0.00    -0.029 A 
HETATM   16  C   LIG     1      25.771  23.046  22.674  1.00  0.00     0.014 A 
HETATM   17  C   LIG     1      26.586  22.847  23.793  1.00  0.00     0.037 A 
HETATM   18  C   LIG     1      27.560  21.844  23.785  1.00  0.00     0.065 A 
HETATM   19  C   LIG     1      27.716  21.035  22.651  1.00  0.00     0.037 A 
HETATM   20  C   LIG     1      26.903  21.233  21.530  1.00  0.00     0.014 A 
BRANCH  18  21
HETATM   21  O   LIG     1      28.366  21.657  24.906  1.00  0.00    -0.361 OA
HETATM   22  H   LIG     1      28.301  20.819  25.471  1.00  0.00     0.217 HD
ENDBRANCH  18  21
ENDBRANCH   2  15
TORSDOF 6
ENDMDL
MODEL 14
REMARK VINA RESULT:      -4.2     14.409     16.165
REMARK  6 active torsions:
REMARK  status: ('A' for Active; 'I' for Inactive)
REMARK    1  A    between atoms: O_1  and  C_2 
REMARK    2  A    between atoms: C_5  and  C_6 
REMARK    3  A    between atoms: C_6  and  C_7 
REMARK    4  A    between atoms: C_9  and  C_10 
REMARK    5  A    between atoms: C_9  and  C_12 
REMARK    6  A    between atoms: C_15  and  O_16 
ROOT
HETATM    1  C   LIG     1      26.008  22.425  21.294  1.00  0.00    -0.041 C 
HETATM    2  C   LIG     1      26.402  21.224  20.782  1.00  0.00    -0.041 C 
ENDROOT
BRANCH   1   3
HETATM    3  C   LIG     1      26.456  23.698  20.675  1.00  0.00    -0.029 A 
HETATM    4  C   LIG     1      27.511  24.431  21.243  1.00  0.00     0.014 A 
HETATM    5  C   LIG     1      27.936  25.625  20.652  1.00  0.00     0.037 A 
HETATM    6  C   LIG     1      27.307  26.100  19.493  1.00  0.00     0.065 A 
HETATM    7  C   LIG     1      26.251  25.375  18.931  1.00  0.00     0.037 A 
HETATM    8  C   LIG     1      25.824  24.182  19.519  1.00  0.00     0.014 A 
BRANCH   6   9
HETATM    9  O   LIG     1      27.723  27.287  18.895  1.00  0.00    -0.361 OA
HETATM   10  H   LIG     1      27.673  28.173  19.385  1.00  0.00     0.217 HD
ENDBRANCH   6   9
ENDBRANCH   1   3
BRANCH   1  11
HETATM   11  C   LIG     1      25.200  22.547  22.570  1.00  0.00     0.035 C 
HETATM   12  C   LIG     1      23.711  22.678  22.259  1.00  0.00     0.010 C 
ENDBRANCH   1  11
BRANCH   2  13
HETATM   13  C   LIG     1      26.025  19.899  21.412  1.00  0.00     0.035 C 
HETATM   14  C   LIG     1      27.168  19.359  22.267  1.00  0.00     0.010 C 
ENDBRANCH   2  13
BRANCH   2  15
HETATM   15  C   LIG     1      27.136  21.154  19.493  1.00  0.00    -0.029 A 
HETATM   16  C   LIG     1      28.517  21.398  19.454  1.00  0.00     0.014 A 
HETATM   17  C   LIG     1      29.209  21.342  18.240  1.00  0.00     0.037 A 
HETATM   18  C   LIG     1      28.529  21.036  17.056  1.00  0.00     0.065 A 
HETATM   19  C   LIG     1      27.151  20.783  17.091  1.00  0.00     0.037 A 
HETATM   20  C   LIG     1      26.457  20.839  18.304  1.00  0.00     0.014 A 
BRANCH  18  21
HETATM   21  O   LIG     1      29.231  20.985  15.854  1.00  0.00    -0.361 OA
HETATM   22  H   LIG     1      29.530  20.104  15.452  1.00  0.00     0.217 HD
ENDBRANCH  18  21
ENDBRANCH   2  15
TORSDOF 6
ENDMDL
MODEL 15
REMARK VINA RESULT:      -4.1     15.488     16.713
REMARK  6 active torsions:
REMARK  status: ('A' for Active; 'I' for Inactive)
REMARK    1  A    between atoms: O_1  and  C_2 
REMARK    2  A    between atoms: C_5  and  C_6 
REMARK    3  A    between atoms: C_6  and  C_7 
REMARK    4  A    between atoms: C_9  and  C_10 
REMARK    5  A    between atoms: C_9  and  C_12 
REMARK    6  A    between atoms: C_15  and  O_16 
ROOT
HETATM    1  C   LIG     1      26.508  20.631  22.264  1.00  0.00    -0.041 C 
HETATM    2  C   LIG     1      27.221  20.898  23.395  1.00  0.00    -0.041 C 
ENDROOT
BRANCH   1   3
HETATM    3  C   LIG     1      25.205  21.297  22.015  1.00  0.00    -0.029 A 
HETATM    4  C   LIG     1      24.004  20.674  22.394  1.00  0.00     0.014 A 
HETATM    5  C   LIG     1      22.779  21.308  22.165  1.00  0.00     0.037 A 
HETATM    6  C   LIG     1      22.742  22.567  21.550  1.00  0.00     0.065 A 
HETATM    7  C   LIG     1      23.936  23.185  21.165  1.00  0.00     0.037 A 
HETATM    8  C   LIG     1      25.162  22.554  21.392  1.00  0.00     0.014 A 
BRANCH   6   9
HETATM    9  O   LIG     1      21.528  23.208  21.319  1.00  0.00    -0.361 OA
HETATM   10  H   LIG     1      20.737  23.083  21.939  1.00  0.00     0.217 HD
ENDBRANCH   6   9
ENDBRANCH   1   3
BRANCH   1  11
HETATM   11  C   LIG     1      26.925  19.575  21.261  1.00  0.00     0.035 C 
HETATM   12  C   LIG     1      27.676  20.205  20.090  1.00  0.00     0.010 C 
ENDBRANCH   1  11
BRANCH   2  13
HETATM   13  C   LIG     1      28.525  20.199  23.728  1.00  0.00     0.035 C 
HETATM   14  C   LIG     1      28.290  19.045  24.698  1.00  0.00     0.010 C 
ENDBRANCH   2  13
BRANCH   2  15
HETATM   15  C   LIG     1      26.807  21.988  24.314  1.00  0.00    -0.029 A 
HETATM   16  C   LIG     1      25.849  21.744  25.310  1.00  0.00     0.014 A 
HETATM   17  C   LIG     1      25.450  22.771  26.171  1.00  0.00     0.037 A 
HETATM   18  C   LIG     1      26.007  24.049  26.048  1.00  0.00     0.065 A 
HETATM   19  C   LIG     1      26.970  24.295  25.060  1.00  0.00     0.037 A 
HETATM   20  C   LIG     1      27.371  23.269  24.198  1.00  0.00     0.014 A 
BRANCH  18  21
HETATM   21  O   LIG     1      25.599  25.063  26.911  1.00  0.00    -0.361 OA
HETATM   22  H   LIG     1      26.267  25.590  27.462  1.00  0.00     0.217 HD
ENDBRANCH  18  21
ENDBRANCH   2  15
TORSDOF 6
ENDMDL
MODEL 16
REMARK VINA RESULT:      -4.1     14.805     16.170
REMARK  6 active torsions:
REMARK  status: ('A' for Active; 'I' for Inactive)
REMARK    1  A    between atoms: O_1  and  C_2 
REMARK    2  A    between atoms: C_5  and  C_6 
REMARK    3  A    between atoms: C_6  and  C_7 
REMARK    4  A    between atoms: C_9  and  C_10 
REMARK    5  A    between atoms: C_9  and  C_12 
REMARK    6  A    between atoms: C_15  and  O_16 
ROOT
HETATM    1  C   LIG     1      26.643  23.514  21.252  1.00  0.00    -0.041 C 
HETATM    2  C   LIG     1      26.988  23.345  22.561  1.00  0.00    -0.041 C 
ENDROOT
BRANCH   1   3
HETATM    3  C   LIG     1      25.620  22.644  20.619  1.00  0.00    -0.029 A 
HETATM    4  C   LIG     1      26.008  21.574  19.796  1.00  0.00     0.014 A 
HETATM    5  C   LIG     1      25.042  20.752  19.208  1.00  0.00     0.037 A 
HETATM    6  C   LIG     1      23.680  20.996  19.432  1.00  0.00     0.065 A 
HETATM    7  C   LIG     1      23.291  22.067  20.244  1.00  0.00     0.037 A 
HETATM    8  C   LIG     1      24.255  22.890  20.833  1.00  0.00     0.014 A 
BRANCH   6   9
HETATM    9  O   LIG     1      22.708  20.184  18.853  1.00  0.00    -0.361 OA
HETATM   10  H   LIG     1      21.753  20.177  19.192  1.00  0.00     0.217 HD
ENDBRANCH   6   9
ENDBRANCH   1   3
BRANCH   1  11
HETATM   11  C   LIG     1      27.346  24.499  20.340  1.00  0.00     0.035 C 
HETATM   12  C   LIG     1      26.335  25.401  19.635  1.00  0.00     0.010 C 
ENDBRANCH   1  11
BRANCH   2  13
HETATM   13  C   LIG     1      28.069  24.163  23.238  1.00  0.00     0.035 C 
HETATM   14  C   LIG     1      29.382  23.386  23.295  1.00  0.00     0.010 C 
ENDBRANCH   2  13
BRANCH   2  15
HETATM   15  C   LIG     1      26.226  22.414  23.432  1.00  0.00    -0.029 A 
HETATM   16  C   LIG     1      25.207  22.903  24.265  1.00  0.00     0.014 A 
HETATM   17  C   LIG     1      24.495  22.029  25.092  1.00  0.00     0.037 A 
HETATM   18  C   LIG     1      24.789  20.662  25.092  1.00  0.00     0.065 A 
HETATM   19  C   LIG     1      25.799  20.168  24.256  1.00  0.00     0.037 A 
HETATM   20  C   LIG     1      26.513  21.039  23.427  1.00  0.00     0.014 A 
BRANCH  18  21
HETATM   21  O   LIG     1      24.073  19.804  25.923  1.00  0.00    -0.361 OA
HETATM   22  H   LIG     1      23.162  19.448  25.657  1.00  0.00     0.217 HD
ENDBRANCH  18  21
ENDBRANCH   2  15
TORSDOF 6
ENDMDL
MODEL 17
REMARK VINA RESULT:      -4.1     14.506     16.054
REMARK  6 active torsions:
REMARK  status: ('A' for Active; 'I' for Inactive)
REMARK    1  A    between atoms: O_1  and  C_2 
REMARK    2  A    between atoms: C_5  and  C_6 
REMARK    3  A    between atoms: C_6  and  C_7 
REMARK    4  A    between atoms: C_9  and  C_10 
REMARK    5  A    between atoms: C_9  and  C_12 
REMARK    6  A    between atoms: C_15  and  O_16 
ROOT
HETATM    1  C   LIG     1      25.590  22.389  19.325  1.00  0.00    -0.041 C 
HETATM    2  C   LIG     1      26.869  22.856  19.244  1.00  0.00    -0.041 C 
ENDROOT
BRANCH   1   3
HETATM    3  C   LIG     1      24.998  22.023  20.637  1.00  0.00    -0.029 A 
HETATM    4  C   LIG     1      24.134  22.912  21.299  1.00  0.00     0.014 A 
HETATM    5  C   LIG     1      23.571  22.560  22.529  1.00  0.00     0.037 A 
HETATM    6  C   LIG     1      23.871  21.322  23.112  1.00  0.00     0.065 A 
HETATM    7  C   LIG     1      24.738  20.439  22.459  1.00  0.00     0.037 A 
HETATM    8  C   LIG     1      25.302  20.788  21.229  1.00  0.00     0.014 A 
BRANCH   6   9
HETATM    9  O   LIG     1      23.316  20.960  24.337  1.00  0.00    -0.361 OA
HETATM   10  H   LIG     1      23.842  20.429  25.021  1.00  0.00     0.217 HD
ENDBRANCH   6   9
ENDBRANCH   1   3
BRANCH   1  11
HETATM   11  C   LIG     1      24.742  22.106  18.102  1.00  0.00     0.035 C 
HETATM   12  C   LIG     1      24.890  20.651  17.664  1.00  0.00     0.010 C 
ENDBRANCH   1  11
BRANCH   2  13
HETATM   13  C   LIG     1      27.542  23.183  17.927  1.00  0.00     0.035 C 
HETATM   14  C   LIG     1      27.413  24.670  17.606  1.00  0.00     0.010 C 
ENDBRANCH   2  13
BRANCH   2  15
HETATM   15  C   LIG     1      27.637  23.180  20.473  1.00  0.00    -0.029 A 
HETATM   16  C   LIG     1      27.422  24.397  21.138  1.00  0.00     0.014 A 
HETATM   17  C   LIG     1      28.151  24.708  22.290  1.00  0.00     0.037 A 
HETATM   18  C   LIG     1      29.096  23.807  22.791  1.00  0.00     0.065 A 
HETATM   19  C   LIG     1      29.308  22.587  22.135  1.00  0.00     0.037 A 
HETATM   20  C   LIG     1      28.580  22.273  20.983  1.00  0.00     0.014 A 
BRANCH  18  21
HETATM   21  O   LIG     1      29.816  24.131  23.938  1.00  0.00    -0.361 OA
HETATM   22  H   LIG     1      30.406  23.451  24.403  1.00  0.00     0.217 HD
ENDBRANCH  18  21
ENDBRANCH   2  15
TORSDOF 6
ENDMDL
MODEL 18
REMARK VINA RESULT:      -4.1     15.587     17.116
REMARK  6 active torsions:
REMARK  status: ('A' for Active; 'I' for Inactive)
REMARK    1  A    between atoms: O_1  and  C_2 
REMARK    2  A    between atoms: C_5  and  C_6 
REMARK    3  A    between atoms: C_6  and  C_7 
REMARK    4  A    between atoms: C_9  and  C_10 
REMARK    5  A    between atoms: C_9  and  C_12 
REMARK    6  A    between atoms: C_15  and  O_16 
ROOT
HETATM    1  C   LIG     1      27.202  20.755  23.609  1.00  0.00    -0.041 C 
HETATM    2  C   LIG     1      26.509  20.480  22.467  1.00  0.00    -0.041 C 
ENDROOT
BRANCH   1   3
HETATM    3  C   LIG     1      26.794  21.875  24.493  1.00  0.00    -0.029 A 
HETATM    4  C   LIG     1      25.931  21.646  25.577  1.00  0.00     0.014 A 
HETATM    5  C   LIG     1      25.556  22.702  26.414  1.00  0.00     0.037 A 
HETATM    6  C   LIG     1      26.034  23.997  26.170  1.00  0.00     0.065 A 
HETATM    7  C   LIG     1      26.888  24.228  25.086  1.00  0.00     0.037 A 
HETATM    8  C   LIG     1      27.264  23.175  24.249  1.00  0.00     0.014 A 
BRANCH   6   9
HETATM    9  O   LIG     1      25.669  25.056  26.996  1.00  0.00    -0.361 OA
HETATM   10  H   LIG     1      25.699  26.016  26.671  1.00  0.00     0.217 HD
ENDBRANCH   6   9
ENDBRANCH   1   3
BRANCH   1  11
HETATM   11  C   LIG     1      28.477  20.029  23.988  1.00  0.00     0.035 C 
HETATM   12  C   LIG     1      29.701  20.759  23.440  1.00  0.00     0.010 C 
ENDBRANCH   1  11
BRANCH   2  13
HETATM   13  C   LIG     1      26.920  19.390  21.498  1.00  0.00     0.035 C 
HETATM   14  C   LIG     1      27.703  19.972  20.325  1.00  0.00     0.010 C 
ENDBRANCH   2  13
BRANCH   2  15
HETATM   15  C   LIG     1      25.229  21.174  22.172  1.00  0.00    -0.029 A 
HETATM   16  C   LIG     1      25.230  22.382  21.459  1.00  0.00     0.014 A 
HETATM   17  C   LIG     1      24.027  23.041  21.188  1.00  0.00     0.037 A 
HETATM   18  C   LIG     1      22.813  22.498  21.622  1.00  0.00     0.065 A 
HETATM   19  C   LIG     1      22.807  21.287  22.327  1.00  0.00     0.037 A 
HETATM   20  C   LIG     1      24.008  20.626  22.599  1.00  0.00     0.014 A 
BRANCH  18  21
HETATM   21  O   LIG     1      21.623  23.166  21.346  1.00  0.00    -0.361 OA
HETATM   22  H   LIG     1      21.164  23.741  22.044  1.00  0.00     0.217 HD
ENDBRANCH  18  21
ENDBRANCH   2  15
TORSDOF 6
ENDMDL
MODEL 19
REMARK VINA RESULT:      -4.1     14.847     16.599
REMARK  6 active torsions:
REMARK  status: ('A' for Active; 'I' for Inactive)
REMARK    1  A    between atoms: O_1  and  C_2 
REMARK    2  A    between atoms: C_5  and  C_6 
REMARK    3  A    between atoms: C_6  and  C_7 
REMARK    4  A    between atoms: C_9  and  C_10 
REMARK    5  A    between atoms: C_9  and  C_12 
REMARK    6  A    between atoms: C_15  and  O_16 
ROOT
HETATM    1  C   LIG     1      27.301  23.484  22.821  1.00  0.00    -0.041 C 
HETATM    2  C   LIG     1      26.951  23.663  21.515  1.00  0.00    -0.041 C 
ENDROOT
BRANCH   1   3
HETATM    3  C   LIG     1      26.491  22.612  23.709  1.00  0.00    -0.029 A 
HETATM    4  C   LIG     1      26.762  21.236  23.794  1.00  0.00     0.014 A 
HETATM    5  C   LIG     1      26.003  20.420  24.638  1.00  0.00     0.037 A 
HETATM    6  C   LIG     1      24.963  20.970  25.400  1.00  0.00     0.065 A 
HETATM    7  C   LIG     1      24.686  22.339  25.311  1.00  0.00     0.037 A 
HETATM    8  C   LIG     1      25.443  23.157  24.468  1.00  0.00     0.014 A 
BRANCH   6   9
HETATM    9  O   LIG     1      24.201  20.168  26.246  1.00  0.00    -0.361 OA
HETATM   10  H   LIG     1      24.184  20.321  27.247  1.00  0.00     0.217 HD
ENDBRANCH   6   9
ENDBRANCH   1   3
BRANCH   1  11
HETATM   11  C   LIG     1      28.444  24.234  23.475  1.00  0.00     0.035 C 
HETATM   12  C   LIG     1      27.925  25.440  24.253  1.00  0.00     0.010 C 
ENDBRANCH   1  11
BRANCH   2  13
HETATM   13  C   LIG     1      27.706  24.590  20.583  1.00  0.00     0.035 C 
HETATM   14  C   LIG     1      26.740  25.433  19.756  1.00  0.00     0.010 C 
ENDBRANCH   2  13
BRANCH   2  15
HETATM   15  C   LIG     1      25.866  22.857  20.902  1.00  0.00    -0.029 A 
HETATM   16  C   LIG     1      26.178  21.749  20.099  1.00  0.00     0.014 A 
HETATM   17  C   LIG     1      25.157  20.993  19.514  1.00  0.00     0.037 A 
HETATM   18  C   LIG     1      23.817  21.334  19.729  1.00  0.00     0.065 A 
HETATM   19  C   LIG     1      23.500  22.434  20.536  1.00  0.00     0.037 A 
HETATM   20  C   LIG     1      24.519  23.192  21.123  1.00  0.00     0.014 A 
BRANCH  18  21
HETATM   21  O   LIG     1      22.811  20.574  19.138  1.00  0.00    -0.361 OA
HETATM   22  H   LIG     1      22.179  20.008  19.693  1.00  0.00     0.217 HD
ENDBRANCH  18  21
ENDBRANCH   2  15
TORSDOF 6
ENDMDL
MODEL 20
REMARK VINA RESULT:      -4.1     16.342     17.768
REMARK  6 active torsions:
REMARK  status: ('A' for Active; 'I' for Inactive)
REMARK    1  A    between atoms: O_1  and  C_2 
REMARK    2  A    between atoms: C_5  and  C_6 
REMARK    3  A    between atoms: C_6  and  C_7 
REMARK    4  A    between atoms: C_9  and  C_10 
REMARK    5  A    between atoms: C_9  and  C_12 
REMARK    6  A    between atoms: C_15  and  O_16 
ROOT
HETATM    1  C   LIG     1      26.231  23.484  26.740  1.00  0.00    -0.041 C 
HETATM    2  C   LIG     1      25.292  22.582  26.335  1.00  0.00    -0.041 C 
ENDROOT
BRANCH   1   3
HETATM    3  C   LIG     1      27.373  23.838  25.859  1.00  0.00    -0.029 A 
HETATM    4  C   LIG     1      28.507  23.012  25.799  1.00  0.00     0.014 A 
HETATM    5  C   LIG     1      29.576  23.343  24.962  1.00  0.00     0.037 A 
HETATM    6  C   LIG     1      29.525  24.508  24.183  1.00  0.00     0.065 A 
HETATM    7  C   LIG     1      28.400  25.337  24.248  1.00  0.00     0.037 A 
HETATM    8  C   LIG     1      27.330  25.007  25.084  1.00  0.00     0.014 A 
BRANCH   6   9
HETATM    9  O   LIG     1      30.583  24.848  23.344  1.00  0.00    -0.361 OA
HETATM   10  H   LIG     1      30.649  24.485  22.400  1.00  0.00     0.217 HD
ENDBRANCH   6   9
ENDBRANCH   1   3
BRANCH   1  11
HETATM   11  C   LIG     1      26.243  24.088  28.130  1.00  0.00     0.035 C 
HETATM   12  C   LIG     1      27.132  23.273  29.067  1.00  0.00     0.010 C 
ENDBRANCH   1  11
BRANCH   2  13
HETATM   13  C   LIG     1      24.144  22.139  27.219  1.00  0.00     0.035 C 
HETATM   14  C   LIG     1      24.495  20.853  27.962  1.00  0.00     0.010 C 
ENDBRANCH   2  13
BRANCH   2  15
HETATM   15  C   LIG     1      25.285  22.069  24.941  1.00  0.00    -0.029 A 
HETATM   16  C   LIG     1      24.647  22.798  23.925  1.00  0.00     0.014 A 
HETATM   17  C   LIG     1      24.631  22.312  22.614  1.00  0.00     0.037 A 
HETATM   18  C   LIG     1      25.255  21.098  22.305  1.00  0.00     0.065 A 
HETATM   19  C   LIG     1      25.900  20.372  23.315  1.00  0.00     0.037 A 
HETATM   20  C   LIG     1      25.918  20.855  24.627  1.00  0.00     0.014 A 
BRANCH  18  21
HETATM   21  O   LIG     1      25.230  20.626  20.995  1.00  0.00    -0.361 OA
HETATM   22  H   LIG     1      25.751  21.084  20.257  1.00  0.00     0.217 HD
ENDBRANCH  18  21
ENDBRANCH   2  15
TORSDOF 6
ENDMDL
