REMARK  5 active torsions:
REMARK  status: ('A' for Active; 'I' for Inactive)
REMARK    1  A    between atoms: O_1  and  C_2 
REMARK    2  A    between atoms: C_2  and  C_5 
REMARK    3  A    between atoms: C_2  and  C_3 
REMARK    4  A    between atoms: C_3  and  O_4 
REMARK    5  A    between atoms: C_5  and  O_6 
ROOT
HETATM    1  C   LIG     1      -0.119   0.256  -0.632  1.00  0.00     0.165 C 
ENDROOT
BRANCH   1   2
HETATM    2  O   LIG     1      -0.409   1.466   0.021  1.00  0.00    -0.391 OA
HETATM    3  H   LIG     1      -1.287   1.778  -0.323  1.00  0.00     0.210 HD
ENDBRANCH   1   2
BRANCH   1   4
HETATM    4  C   LIG     1       1.402   0.051  -0.669  1.00  0.00     0.198 C 
BRANCH   4   5
HETATM    5  O   LIG     1       1.935  -0.028   0.627  1.00  0.00    -0.398 OA
HETATM    6  H   LIG     1       2.019   0.903   0.959  1.00  0.00     0.209 HD
ENDBRANCH   4   5
ENDBRANCH   1   4
BRANCH   1   7
HETATM    7  C   LIG     1      -0.821  -0.912   0.079  1.00  0.00     0.198 C 
BRANCH   7   8
HETATM    8  O   LIG     1      -2.213  -0.792  -0.037  1.00  0.00    -0.398 OA
HETATM    9  H   LIG     1      -2.510  -0.184   0.691  1.00  0.00     0.209 HD
ENDBRANCH   7   8
ENDBRANCH   1   7
TORSDOF 5
