MODEL 1
REMARK VINA RESULT:      -5.4      0.000      0.000
REMARK  6 active torsions:
REMARK  status: ('A' for Active; 'I' for Inactive)
REMARK    1  A    between atoms: O_1  and  C_2 
REMARK    2  A    between atoms: C_2  and  CA_3 
REMARK    3  A    between atoms: CA_3  and  CB_5 
REMARK    4  A    between atoms: CA_3  and  N_4 
REMARK    5  A    between atoms: CB_5  and  CG_6 
REMARK    6  A    between atoms: CG_6  and  CD_7 
REMARK       I    between atoms: CD_7  and  NE2_8 
ROOT
ATOM      1  CA  GLN A   1      16.424  37.387  23.510  1.00  0.00     0.315 C 
ENDROOT
BRANCH   1   2
ATOM      2  C   GLN A   1      17.446  38.251  24.203  1.00  0.00     0.173 C 
ATOM      3  OXT GLN A   1      18.494  38.597  23.597  1.00  0.00    -0.648 OA
BRANCH   2   4
ATOM      4  O   GLN A   1      17.235  38.666  25.515  1.00  0.00    -0.775 OA
ATOM      5  H   GLN A   1      16.298  38.728  25.897  1.00  0.00     0.167 HD
ENDBRANCH   2   4
ENDBRANCH   1   2
BRANCH   1   6
ATOM      6  CB  GLN A   1      17.011  36.717  22.250  1.00  0.00     0.056 C 
BRANCH   6   7
ATOM      7  CG  GLN A   1      16.760  35.200  22.186  1.00  0.00     0.105 C 
BRANCH   7   8
ATOM      8  CD  GLN A   1      15.757  34.834  21.131  1.00  0.00     0.215 C 
ATOM      9  NE2 GLN A   1      14.398  34.571  21.481  1.00  0.00    -0.370 N 
ATOM     10 1HE2 GLN A   1      13.706  34.305  20.746  1.00  0.00     0.159 HD
ATOM     11 2HE2 GLN A   1      14.076  34.655  22.472  1.00  0.00     0.159 HD
ATOM     12  OE1 GLN A   1      16.112  34.769  19.924  1.00  0.00    -0.274 OA
ENDBRANCH   7   8
ENDBRANCH   6   7
ENDBRANCH   1   6
BRANCH   1  13
ATOM     13  N   GLN A   1      15.248  38.179  23.145  1.00  0.00     0.093 N 
ATOM     14  H1  GLN A   1      14.596  37.595  22.570  1.00  0.00     0.314 HD
ATOM     15  H2  GLN A   1      15.556  38.981  22.549  1.00  0.00     0.314 HD
ENDBRANCH   1  13
TORSDOF 6
ENDMDL
MODEL 2
REMARK VINA RESULT:      -5.3      2.143      4.546
REMARK  6 active torsions:
REMARK  status: ('A' for Active; 'I' for Inactive)
REMARK    1  A    between atoms: O_1  and  C_2 
REMARK    2  A    between atoms: C_2  and  CA_3 
REMARK    3  A    between atoms: CA_3  and  CB_5 
REMARK    4  A    between atoms: CA_3  and  N_4 
REMARK    5  A    between atoms: CB_5  and  CG_6 
REMARK    6  A    between atoms: CG_6  and  CD_7 
REMARK       I    between atoms: CD_7  and  NE2_8 
ROOT
ATOM      1  CA  GLN A   1      16.441  34.778  21.301  1.00  0.00     0.315 C 
ENDROOT
BRANCH   1   2
ATOM      2  C   GLN A   1      14.937  34.710  21.372  1.00  0.00     0.173 C 
ATOM      3  OXT GLN A   1      14.366  33.618  21.634  1.00  0.00    -0.648 OA
BRANCH   2   4
ATOM      4  O   GLN A   1      14.175  35.853  21.144  1.00  0.00    -0.775 OA
ATOM      5  H   GLN A   1      13.162  35.808  21.128  1.00  0.00     0.167 HD
ENDBRANCH   2   4
ENDBRANCH   1   2
BRANCH   1   6
ATOM      6  CB  GLN A   1      17.039  35.402  22.579  1.00  0.00     0.056 C 
BRANCH   6   7
ATOM      7  CG  GLN A   1      17.255  36.922  22.478  1.00  0.00     0.105 C 
BRANCH   7   8
ATOM      8  CD  GLN A   1      16.334  37.690  23.381  1.00  0.00     0.215 C 
ATOM      9  NE2 GLN A   1      16.747  38.056  24.698  1.00  0.00    -0.370 N 
ATOM     10 1HE2 GLN A   1      16.099  38.580  25.327  1.00  0.00     0.159 HD
ATOM     11 2HE2 GLN A   1      17.704  37.820  25.042  1.00  0.00     0.159 HD
ATOM     12  OE1 GLN A   1      15.190  38.024  22.973  1.00  0.00    -0.274 OA
ENDBRANCH   7   8
ENDBRANCH   6   7
ENDBRANCH   1   6
BRANCH   1  13
ATOM     13  N   GLN A   1      16.864  35.549  20.131  1.00  0.00     0.093 N 
ATOM     14  H1  GLN A   1      16.326  36.446  20.090  1.00  0.00     0.314 HD
ATOM     15  H2  GLN A   1      16.631  35.005  19.268  1.00  0.00     0.314 HD
ENDBRANCH   1  13
TORSDOF 6
ENDMDL
MODEL 3
REMARK VINA RESULT:      -5.3      3.308      4.008
REMARK  6 active torsions:
REMARK  status: ('A' for Active; 'I' for Inactive)
REMARK    1  A    between atoms: O_1  and  C_2 
REMARK    2  A    between atoms: C_2  and  CA_3 
REMARK    3  A    between atoms: CA_3  and  CB_5 
REMARK    4  A    between atoms: CA_3  and  N_4 
REMARK    5  A    between atoms: CB_5  and  CG_6 
REMARK    6  A    between atoms: CG_6  and  CD_7 
REMARK       I    between atoms: CD_7  and  NE2_8 
ROOT
ATOM      1  CA  GLN A   1      17.398  37.669  22.682  1.00  0.00     0.315 C 
ENDROOT
BRANCH   1   2
ATOM      2  C   GLN A   1      16.337  37.936  23.719  1.00  0.00     0.173 C 
ATOM      3  OXT GLN A   1      16.651  38.011  24.937  1.00  0.00    -0.648 OA
BRANCH   2   4
ATOM      4  O   GLN A   1      15.009  38.098  23.335  1.00  0.00    -0.775 OA
ATOM      5  H   GLN A   1      14.418  38.789  23.782  1.00  0.00     0.167 HD
ENDBRANCH   2   4
ENDBRANCH   1   2
BRANCH   1   6
ATOM      6  CB  GLN A   1      17.576  38.873  21.733  1.00  0.00     0.056 C 
BRANCH   6   7
ATOM      7  CG  GLN A   1      19.041  39.141  21.348  1.00  0.00     0.105 C 
BRANCH   7   8
ATOM      8  CD  GLN A   1      19.368  38.639  19.971  1.00  0.00     0.215 C 
ATOM      9  NE2 GLN A   1      20.334  39.313  19.163  1.00  0.00    -0.370 N 
ATOM     10 1HE2 GLN A   1      20.551  38.967  18.202  1.00  0.00     0.159 HD
ATOM     11 2HE2 GLN A   1      20.846  40.148  19.527  1.00  0.00     0.159 HD
ATOM     12  OE1 GLN A   1      18.796  37.609  19.527  1.00  0.00    -0.274 OA
ENDBRANCH   7   8
ENDBRANCH   6   7
ENDBRANCH   1   6
BRANCH   1  13
ATOM     13  N   GLN A   1      17.064  36.474  21.905  1.00  0.00     0.093 N 
ATOM     14  H1  GLN A   1      16.031  36.308  21.945  1.00  0.00     0.314 HD
ATOM     15  H2  GLN A   1      17.530  35.647  22.344  1.00  0.00     0.314 HD
ENDBRANCH   1  13
TORSDOF 6
ENDMDL
MODEL 4
REMARK VINA RESULT:      -5.3      2.575      3.440
REMARK  6 active torsions:
REMARK  status: ('A' for Active; 'I' for Inactive)
REMARK    1  A    between atoms: O_1  and  C_2 
REMARK    2  A    between atoms: C_2  and  CA_3 
REMARK    3  A    between atoms: CA_3  and  CB_5 
REMARK    4  A    between atoms: CA_3  and  N_4 
REMARK    5  A    between atoms: CB_5  and  CG_6 
REMARK    6  A    between atoms: CG_6  and  CD_7 
REMARK       I    between atoms: CD_7  and  NE2_8 
ROOT
ATOM      1  CA  GLN A   1      16.537  37.605  23.287  1.00  0.00     0.315 C 
ENDROOT
BRANCH   1   2
ATOM      2  C   GLN A   1      16.959  37.587  24.735  1.00  0.00     0.173 C 
ATOM      3  OXT GLN A   1      17.128  38.670  25.355  1.00  0.00    -0.648 OA
BRANCH   2   4
ATOM      4  O   GLN A   1      17.165  36.374  25.387  1.00  0.00    -0.775 OA
ATOM      5  H   GLN A   1      16.596  36.109  26.183  1.00  0.00     0.167 HD
ENDBRANCH   2   4
ENDBRANCH   1   2
BRANCH   1   6
ATOM      6  CB  GLN A   1      17.555  38.366  22.412  1.00  0.00     0.056 C 
BRANCH   6   7
ATOM      7  CG  GLN A   1      17.930  37.623  21.118  1.00  0.00     0.105 C 
BRANCH   7   8
ATOM      8  CD  GLN A   1      18.958  38.365  20.314  1.00  0.00     0.215 C 
ATOM      9  NE2 GLN A   1      19.128  39.773  20.475  1.00  0.00    -0.370 N 
ATOM     10 1HE2 GLN A   1      19.837  40.287  19.906  1.00  0.00     0.159 HD
ATOM     11 2HE2 GLN A   1      18.559  40.304  21.172  1.00  0.00     0.159 HD
ATOM     12  OE1 GLN A   1      19.686  37.740  19.498  1.00  0.00    -0.274 OA
ENDBRANCH   7   8
ENDBRANCH   6   7
ENDBRANCH   1   6
BRANCH   1  13
ATOM     13  N   GLN A   1      15.214  38.216  23.148  1.00  0.00     0.093 N 
ATOM     14  H1  GLN A   1      14.477  37.516  23.398  1.00  0.00     0.314 HD
ATOM     15  H2  GLN A   1      15.069  38.479  22.147  1.00  0.00     0.314 HD
ENDBRANCH   1  13
TORSDOF 6
ENDMDL
MODEL 5
REMARK VINA RESULT:      -5.2      2.748      3.179
REMARK  6 active torsions:
REMARK  status: ('A' for Active; 'I' for Inactive)
REMARK    1  A    between atoms: O_1  and  C_2 
REMARK    2  A    between atoms: C_2  and  CA_3 
REMARK    3  A    between atoms: CA_3  and  CB_5 
REMARK    4  A    between atoms: CA_3  and  N_4 
REMARK    5  A    between atoms: CB_5  and  CG_6 
REMARK    6  A    between atoms: CG_6  and  CD_7 
REMARK       I    between atoms: CD_7  and  NE2_8 
ROOT
ATOM      1  CA  GLN A   1      18.334  37.787  20.227  1.00  0.00     0.315 C 
ENDROOT
BRANCH   1   2
ATOM      2  C   GLN A   1      19.306  38.876  20.606  1.00  0.00     0.173 C 
ATOM      3  OXT GLN A   1      20.082  39.358  19.739  1.00  0.00    -0.648 OA
BRANCH   2   4
ATOM      4  O   GLN A   1      19.349  39.348  21.915  1.00  0.00    -0.775 OA
ATOM      5  H   GLN A   1      19.872  38.853  22.629  1.00  0.00     0.167 HD
ENDBRANCH   2   4
ENDBRANCH   1   2
BRANCH   1   6
ATOM      6  CB  GLN A   1      17.494  37.332  21.438  1.00  0.00     0.056 C 
BRANCH   6   7
ATOM      7  CG  GLN A   1      17.171  35.828  21.432  1.00  0.00     0.105 C 
BRANCH   7   8
ATOM      8  CD  GLN A   1      15.949  35.511  20.619  1.00  0.00     0.215 C 
ATOM      9  NE2 GLN A   1      14.645  35.649  21.185  1.00  0.00    -0.370 N 
ATOM     10 1HE2 GLN A   1      13.799  35.418  20.619  1.00  0.00     0.159 HD
ATOM     11 2HE2 GLN A   1      14.521  35.997  22.162  1.00  0.00     0.159 HD
ATOM     12  OE1 GLN A   1      16.072  35.132  19.424  1.00  0.00    -0.274 OA
ENDBRANCH   7   8
ENDBRANCH   6   7
ENDBRANCH   1   6
BRANCH   1  13
ATOM     13  N   GLN A   1      19.048  36.640  19.663  1.00  0.00     0.093 N 
ATOM     14  H1  GLN A   1      18.934  36.633  18.622  1.00  0.00     0.314 HD
ATOM     15  H2  GLN A   1      18.615  35.762  20.030  1.00  0.00     0.314 HD
ENDBRANCH   1  13
TORSDOF 6
ENDMDL
MODEL 6
REMARK VINA RESULT:      -5.0      7.172      8.956
REMARK  6 active torsions:
REMARK  status: ('A' for Active; 'I' for Inactive)
REMARK    1  A    between atoms: O_1  and  C_2 
REMARK    2  A    between atoms: C_2  and  CA_3 
REMARK    3  A    between atoms: CA_3  and  CB_5 
REMARK    4  A    between atoms: CA_3  and  N_4 
REMARK    5  A    between atoms: CB_5  and  CG_6 
REMARK    6  A    between atoms: CG_6  and  CD_7 
REMARK       I    between atoms: CD_7  and  NE2_8 
ROOT
ATOM      1  CA  GLN A   1      13.820  31.374  17.218  1.00  0.00     0.315 C 
ENDROOT
BRANCH   1   2
ATOM      2  C   GLN A   1      14.608  31.978  18.353  1.00  0.00     0.173 C 
ATOM      3  OXT GLN A   1      15.589  32.729  18.109  1.00  0.00    -0.648 OA
BRANCH   2   4
ATOM      4  O   GLN A   1      14.256  31.704  19.671  1.00  0.00    -0.775 OA
ATOM      5  H   GLN A   1      14.589  32.287  20.430  1.00  0.00     0.167 HD
ENDBRANCH   2   4
ENDBRANCH   1   2
BRANCH   1   6
ATOM      6  CB  GLN A   1      14.603  31.439  15.890  1.00  0.00     0.056 C 
BRANCH   6   7
ATOM      7  CG  GLN A   1      14.107  30.436  14.834  1.00  0.00     0.105 C 
BRANCH   7   8
ATOM      8  CD  GLN A   1      15.166  30.104  13.823  1.00  0.00     0.215 C 
ATOM      9  NE2 GLN A   1      15.270  28.785  13.287  1.00  0.00    -0.370 N 
ATOM     10 1HE2 GLN A   1      16.015  28.556  12.592  1.00  0.00     0.159 HD
ATOM     11 2HE2 GLN A   1      14.596  28.039  13.569  1.00  0.00     0.159 HD
ATOM     12  OE1 GLN A   1      15.963  30.998  13.433  1.00  0.00    -0.274 OA
ENDBRANCH   7   8
ENDBRANCH   6   7
ENDBRANCH   1   6
BRANCH   1  13
ATOM     13  N   GLN A   1      12.535  32.060  17.067  1.00  0.00     0.093 N 
ATOM     14  H1  GLN A   1      12.212  32.409  17.999  1.00  0.00     0.314 HD
ATOM     15  H2  GLN A   1      11.825  31.371  16.728  1.00  0.00     0.314 HD
ENDBRANCH   1  13
TORSDOF 6
ENDMDL
MODEL 7
REMARK VINA RESULT:      -5.0      1.574      4.444
REMARK  6 active torsions:
REMARK  status: ('A' for Active; 'I' for Inactive)
REMARK    1  A    between atoms: O_1  and  C_2 
REMARK    2  A    between atoms: C_2  and  CA_3 
REMARK    3  A    between atoms: CA_3  and  CB_5 
REMARK    4  A    between atoms: CA_3  and  N_4 
REMARK    5  A    between atoms: CB_5  and  CG_6 
REMARK    6  A    between atoms: CG_6  and  CD_7 
REMARK       I    between atoms: CD_7  and  NE2_8 
ROOT
ATOM      1  CA  GLN A   1      15.543  35.305  21.306  1.00  0.00     0.315 C 
ENDROOT
BRANCH   1   2
ATOM      2  C   GLN A   1      16.048  35.198  19.890  1.00  0.00     0.173 C 
ATOM      3  OXT GLN A   1      17.120  35.771  19.559  1.00  0.00    -0.648 OA
BRANCH   2   4
ATOM      4  O   GLN A   1      15.330  34.471  18.945  1.00  0.00    -0.775 OA
ATOM      5  H   GLN A   1      14.383  34.733  18.696  1.00  0.00     0.167 HD
ENDBRANCH   2   4
ENDBRANCH   1   2
BRANCH   1   6
ATOM      6  CB  GLN A   1      16.674  35.067  22.329  1.00  0.00     0.056 C 
BRANCH   6   7
ATOM      7  CG  GLN A   1      16.835  36.210  23.345  1.00  0.00     0.105 C 
BRANCH   7   8
ATOM      8  CD  GLN A   1      16.514  37.550  22.749  1.00  0.00     0.215 C 
ATOM      9  NE2 GLN A   1      15.305  38.227  23.094  1.00  0.00    -0.370 N 
ATOM     10 1HE2 GLN A   1      15.080  39.154  22.669  1.00  0.00     0.159 HD
ATOM     11 2HE2 GLN A   1      14.639  37.813  23.784  1.00  0.00     0.159 HD
ATOM     12  OE1 GLN A   1      17.322  38.090  21.948  1.00  0.00    -0.274 OA
ENDBRANCH   7   8
ENDBRANCH   6   7
ENDBRANCH   1   6
BRANCH   1  13
ATOM     13  N   GLN A   1      14.461  34.345  21.536  1.00  0.00     0.093 N 
ATOM     14  H1  GLN A   1      14.769  33.631  22.236  1.00  0.00     0.314 HD
ATOM     15  H2  GLN A   1      14.264  33.841  20.641  1.00  0.00     0.314 HD
ENDBRANCH   1  13
TORSDOF 6
ENDMDL
MODEL 8
REMARK VINA RESULT:      -4.9      1.938      2.049
REMARK  6 active torsions:
REMARK  status: ('A' for Active; 'I' for Inactive)
REMARK    1  A    between atoms: O_1  and  C_2 
REMARK    2  A    between atoms: C_2  and  CA_3 
REMARK    3  A    between atoms: CA_3  and  CB_5 
REMARK    4  A    between atoms: CA_3  and  N_4 
REMARK    5  A    between atoms: CB_5  and  CG_6 
REMARK    6  A    between atoms: CG_6  and  CD_7 
REMARK       I    between atoms: CD_7  and  NE2_8 
ROOT
ATOM      1  CA  GLN A   1      16.658  37.250  21.927  1.00  0.00     0.315 C 
ENDROOT
BRANCH   1   2
ATOM      2  C   GLN A   1      16.130  38.272  22.900  1.00  0.00     0.173 C 
ATOM      3  OXT GLN A   1      16.773  39.336  23.107  1.00  0.00    -0.648 OA
BRANCH   2   4
ATOM      4  O   GLN A   1      14.935  38.042  23.576  1.00  0.00    -0.775 OA
ATOM      5  H   GLN A   1      14.104  37.748  23.076  1.00  0.00     0.167 HD
ENDBRANCH   2   4
ENDBRANCH   1   2
BRANCH   1   6
ATOM      6  CB  GLN A   1      16.892  35.886  22.610  1.00  0.00     0.056 C 
BRANCH   6   7
ATOM      7  CG  GLN A   1      16.940  34.705  21.626  1.00  0.00     0.105 C 
BRANCH   7   8
ATOM      8  CD  GLN A   1      15.632  34.502  20.917  1.00  0.00     0.215 C 
ATOM      9  NE2 GLN A   1      15.542  34.660  19.501  1.00  0.00    -0.370 N 
ATOM     10 1HE2 GLN A   1      14.629  34.529  19.013  1.00  0.00     0.159 HD
ATOM     11 2HE2 GLN A   1      16.389  34.892  18.935  1.00  0.00     0.159 HD
ATOM     12  OE1 GLN A   1      14.607  34.178  21.573  1.00  0.00    -0.274 OA
ENDBRANCH   7   8
ENDBRANCH   6   7
ENDBRANCH   1   6
BRANCH   1  13
ATOM     13  N   GLN A   1      17.906  37.718  21.320  1.00  0.00     0.093 N 
ATOM     14  H1  GLN A   1      17.699  38.492  20.646  1.00  0.00     0.314 HD
ATOM     15  H2  GLN A   1      18.329  36.933  20.775  1.00  0.00     0.314 HD
ENDBRANCH   1  13
TORSDOF 6
ENDMDL
MODEL 9
REMARK VINA RESULT:      -4.9      2.971      4.196
REMARK  6 active torsions:
REMARK  status: ('A' for Active; 'I' for Inactive)
REMARK    1  A    between atoms: O_1  and  C_2 
REMARK    2  A    between atoms: C_2  and  CA_3 
REMARK    3  A    between atoms: CA_3  and  CB_5 
REMARK    4  A    between atoms: CA_3  and  N_4 
REMARK    5  A    between atoms: CB_5  and  CG_6 
REMARK    6  A    between atoms: CG_6  and  CD_7 
REMARK       I    between atoms: CD_7  and  NE2_8 
ROOT
ATOM      1  CA  GLN A   1      16.560  37.954  22.457  1.00  0.00     0.315 C 
ENDROOT
BRANCH   1   2
ATOM      2  C   GLN A   1      16.308  36.584  21.881  1.00  0.00     0.173 C 
ATOM      3  OXT GLN A   1      17.278  35.827  21.608  1.00  0.00    -0.648 OA
BRANCH   2   4
ATOM      4  O   GLN A   1      15.005  36.153  21.646  1.00  0.00    -0.775 OA
ATOM      5  H   GLN A   1      14.227  36.801  21.696  1.00  0.00     0.167 HD
ENDBRANCH   2   4
ENDBRANCH   1   2
BRANCH   1   6
ATOM      6  CB  GLN A   1      18.043  38.358  22.326  1.00  0.00     0.056 C 
BRANCH   6   7
ATOM      7  CG  GLN A   1      18.320  39.309  21.149  1.00  0.00     0.105 C 
BRANCH   7   8
ATOM      8  CD  GLN A   1      19.277  38.718  20.154  1.00  0.00     0.215 C 
ATOM      9  NE2 GLN A   1      19.142  37.361  19.734  1.00  0.00    -0.370 N 
ATOM     10 1HE2 GLN A   1      19.816  36.951  19.050  1.00  0.00     0.159 HD
ATOM     11 2HE2 GLN A   1      18.360  36.767  20.091  1.00  0.00     0.159 HD
ATOM     12  OE1 GLN A   1      20.201  39.428  19.675  1.00  0.00    -0.274 OA
ENDBRANCH   7   8
ENDBRANCH   6   7
ENDBRANCH   1   6
BRANCH   1  13
ATOM     13  N   GLN A   1      16.159  37.998  23.865  1.00  0.00     0.093 N 
ATOM     14  H1  GLN A   1      15.117  38.071  23.931  1.00  0.00     0.314 HD
ATOM     15  H2  GLN A   1      16.561  38.859  24.302  1.00  0.00     0.314 HD
ENDBRANCH   1  13
TORSDOF 6
ENDMDL
MODEL 10
REMARK VINA RESULT:      -4.8      7.315     10.226
REMARK  6 active torsions:
REMARK  status: ('A' for Active; 'I' for Inactive)
REMARK    1  A    between atoms: O_1  and  C_2 
REMARK    2  A    between atoms: C_2  and  CA_3 
REMARK    3  A    between atoms: CA_3  and  CB_5 
REMARK    4  A    between atoms: CA_3  and  N_4 
REMARK    5  A    between atoms: CB_5  and  CG_6 
REMARK    6  A    between atoms: CG_6  and  CD_7 
REMARK       I    between atoms: CD_7  and  NE2_8 
ROOT
ATOM      1  CA  GLN A   1      13.269  30.633  15.364  1.00  0.00     0.315 C 
ENDROOT
BRANCH   1   2
ATOM      2  C   GLN A   1      13.517  29.461  14.449  1.00  0.00     0.173 C 
ATOM      3  OXT GLN A   1      14.696  29.122  14.163  1.00  0.00    -0.648 OA
BRANCH   2   4
ATOM      4  O   GLN A   1      12.444  28.752  13.916  1.00  0.00    -0.775 OA
ATOM      5  H   GLN A   1      11.908  29.125  13.140  1.00  0.00     0.167 HD
ENDBRANCH   2   4
ENDBRANCH   1   2
BRANCH   1   6
ATOM      6  CB  GLN A   1      14.592  31.290  15.811  1.00  0.00     0.056 C 
BRANCH   6   7
ATOM      7  CG  GLN A   1      14.426  32.270  16.985  1.00  0.00     0.105 C 
BRANCH   7   8
ATOM      8  CD  GLN A   1      15.181  33.550  16.769  1.00  0.00     0.215 C 
ATOM      9  NE2 GLN A   1      15.233  34.544  17.792  1.00  0.00    -0.370 N 
ATOM     10 1HE2 GLN A   1      15.749  35.437  17.633  1.00  0.00     0.159 HD
ATOM     11 2HE2 GLN A   1      14.770  34.385  18.715  1.00  0.00     0.159 HD
ATOM     12  OE1 GLN A   1      15.784  33.746  15.680  1.00  0.00    -0.274 OA
ENDBRANCH   7   8
ENDBRANCH   6   7
ENDBRANCH   1   6
BRANCH   1  13
ATOM     13  N   GLN A   1      12.506  30.212  16.540  1.00  0.00     0.093 N 
ATOM     14  H1  GLN A   1      13.110  30.276  17.392  1.00  0.00     0.314 HD
ATOM     15  H2  GLN A   1      12.236  29.208  16.423  1.00  0.00     0.314 HD
ENDBRANCH   1  13
TORSDOF 6
ENDMDL
MODEL 11
REMARK VINA RESULT:      -4.7      6.489      7.667
REMARK  6 active torsions:
REMARK  status: ('A' for Active; 'I' for Inactive)
REMARK    1  A    between atoms: O_1  and  C_2 
REMARK    2  A    between atoms: C_2  and  CA_3 
REMARK    3  A    between atoms: CA_3  and  CB_5 
REMARK    4  A    between atoms: CA_3  and  N_4 
REMARK    5  A    between atoms: CB_5  and  CG_6 
REMARK    6  A    between atoms: CG_6  and  CD_7 
REMARK       I    between atoms: CD_7  and  NE2_8 
ROOT
ATOM      1  CA  GLN A   1      14.504  32.010  17.502  1.00  0.00     0.315 C 
ENDROOT
BRANCH   1   2
ATOM      2  C   GLN A   1      14.881  32.253  18.942  1.00  0.00     0.173 C 
ATOM      3  OXT GLN A   1      15.710  33.156  19.232  1.00  0.00    -0.648 OA
BRANCH   2   4
ATOM      4  O   GLN A   1      14.317  31.479  19.952  1.00  0.00    -0.775 OA
ATOM      5  H   GLN A   1      14.899  30.911  20.558  1.00  0.00     0.167 HD
ENDBRANCH   2   4
ENDBRANCH   1   2
BRANCH   1   6
ATOM      6  CB  GLN A   1      15.098  33.088  16.573  1.00  0.00     0.056 C 
BRANCH   6   7
ATOM      7  CG  GLN A   1      15.929  32.511  15.413  1.00  0.00     0.105 C 
BRANCH   7   8
ATOM      8  CD  GLN A   1      17.108  33.375  15.073  1.00  0.00     0.215 C 
ATOM      9  NE2 GLN A   1      17.186  34.719  15.549  1.00  0.00    -0.370 N 
ATOM     10 1HE2 GLN A   1      18.003  35.320  15.301  1.00  0.00     0.159 HD
ATOM     11 2HE2 GLN A   1      16.437  35.112  16.163  1.00  0.00     0.159 HD
ATOM     12  OE1 GLN A   1      18.045  32.909  14.370  1.00  0.00    -0.274 OA
ENDBRANCH   7   8
ENDBRANCH   6   7
ENDBRANCH   1   6
BRANCH   1  13
ATOM     13  N   GLN A   1      13.048  31.979  17.354  1.00  0.00     0.093 N 
ATOM     14  H1  GLN A   1      12.736  32.803  16.788  1.00  0.00     0.314 HD
ATOM     15  H2  GLN A   1      12.612  32.067  18.301  1.00  0.00     0.314 HD
ENDBRANCH   1  13
TORSDOF 6
ENDMDL
MODEL 12
REMARK VINA RESULT:      -4.7      6.939      8.962
REMARK  6 active torsions:
REMARK  status: ('A' for Active; 'I' for Inactive)
REMARK    1  A    between atoms: O_1  and  C_2 
REMARK    2  A    between atoms: C_2  and  CA_3 
REMARK    3  A    between atoms: CA_3  and  CB_5 
REMARK    4  A    between atoms: CA_3  and  N_4 
REMARK    5  A    between atoms: CB_5  and  CG_6 
REMARK    6  A    between atoms: CG_6  and  CD_7 
REMARK       I    between atoms: CD_7  and  NE2_8 
ROOT
ATOM      1  CA  GLN A   1      14.924  32.484  16.508  1.00  0.00     0.315 C 
ENDROOT
BRANCH   1   2
ATOM      2  C   GLN A   1      14.821  32.532  18.011  1.00  0.00     0.173 C 
ATOM      3  OXT GLN A   1      15.577  33.295  18.670  1.00  0.00    -0.648 OA
BRANCH   2   4
ATOM      4  O   GLN A   1      13.894  31.733  18.674  1.00  0.00    -0.775 OA
ATOM      5  H   GLN A   1      12.941  31.655  18.338  1.00  0.00     0.167 HD
ENDBRANCH   2   4
ENDBRANCH   1   2
BRANCH   1   6
ATOM      6  CB  GLN A   1      14.283  31.201  15.939  1.00  0.00     0.056 C 
BRANCH   6   7
ATOM      7  CG  GLN A   1      14.908  30.737  14.611  1.00  0.00     0.105 C 
BRANCH   7   8
ATOM      8  CD  GLN A   1      14.409  29.386  14.189  1.00  0.00     0.215 C 
ATOM      9  NE2 GLN A   1      13.011  29.096  14.186  1.00  0.00    -0.370 N 
ATOM     10 1HE2 GLN A   1      12.669  28.151  13.901  1.00  0.00     0.159 HD
ATOM     11 2HE2 GLN A   1      12.314  29.827  14.451  1.00  0.00     0.159 HD
ATOM     12  OE1 GLN A   1      15.228  28.502  13.822  1.00  0.00    -0.274 OA
ENDBRANCH   7   8
ENDBRANCH   6   7
ENDBRANCH   1   6
BRANCH   1  13
ATOM     13  N   GLN A   1      16.325  32.562  16.089  1.00  0.00     0.093 N 
ATOM     14  H1  GLN A   1      16.485  33.455  15.567  1.00  0.00     0.314 HD
ATOM     15  H2  GLN A   1      16.523  31.775  15.430  1.00  0.00     0.314 HD
ENDBRANCH   1  13
TORSDOF 6
ENDMDL
MODEL 13
REMARK VINA RESULT:      -4.7      2.511      4.321
REMARK  6 active torsions:
REMARK  status: ('A' for Active; 'I' for Inactive)
REMARK    1  A    between atoms: O_1  and  C_2 
REMARK    2  A    between atoms: C_2  and  CA_3 
REMARK    3  A    between atoms: CA_3  and  CB_5 
REMARK    4  A    between atoms: CA_3  and  N_4 
REMARK    5  A    between atoms: CB_5  and  CG_6 
REMARK    6  A    between atoms: CG_6  and  CD_7 
REMARK       I    between atoms: CD_7  and  NE2_8 
ROOT
ATOM      1  CA  GLN A   1      16.748  38.041  23.175  1.00  0.00     0.315 C 
ENDROOT
BRANCH   1   2
ATOM      2  C   GLN A   1      16.999  36.799  22.358  1.00  0.00     0.173 C 
ATOM      3  OXT GLN A   1      16.660  35.671  22.806  1.00  0.00    -0.648 OA
BRANCH   2   4
ATOM      4  O   GLN A   1      17.608  36.894  21.110  1.00  0.00    -0.775 OA
ATOM      5  H   GLN A   1      18.109  36.107  20.714  1.00  0.00     0.167 HD
ENDBRANCH   2   4
ENDBRANCH   1   2
BRANCH   1   6
ATOM      6  CB  GLN A   1      16.725  37.728  24.686  1.00  0.00     0.056 C 
BRANCH   6   7
ATOM      7  CG  GLN A   1      18.107  37.371  25.261  1.00  0.00     0.105 C 
BRANCH   7   8
ATOM      8  CD  GLN A   1      18.055  36.173  26.164  1.00  0.00     0.215 C 
ATOM      9  NE2 GLN A   1      17.242  35.047  25.831  1.00  0.00    -0.370 N 
ATOM     10 1HE2 GLN A   1      17.201  34.220  26.467  1.00  0.00     0.159 HD
ATOM     11 2HE2 GLN A   1      16.694  35.029  24.942  1.00  0.00     0.159 HD
ATOM     12  OE1 GLN A   1      18.741  36.153  27.220  1.00  0.00    -0.274 OA
ENDBRANCH   7   8
ENDBRANCH   6   7
ENDBRANCH   1   6
BRANCH   1  13
ATOM     13  N   GLN A   1      15.483  38.664  22.782  1.00  0.00     0.093 N 
ATOM     14  H1  GLN A   1      15.670  39.610  22.374  1.00  0.00     0.314 HD
ATOM     15  H2  GLN A   1      14.897  38.803  23.637  1.00  0.00     0.314 HD
ENDBRANCH   1  13
TORSDOF 6
ENDMDL
MODEL 14
REMARK VINA RESULT:      -4.6      7.159     10.042
REMARK  6 active torsions:
REMARK  status: ('A' for Active; 'I' for Inactive)
REMARK    1  A    between atoms: O_1  and  C_2 
REMARK    2  A    between atoms: C_2  and  CA_3 
REMARK    3  A    between atoms: CA_3  and  CB_5 
REMARK    4  A    between atoms: CA_3  and  N_4 
REMARK    5  A    between atoms: CB_5  and  CG_6 
REMARK    6  A    between atoms: CG_6  and  CD_7 
REMARK       I    between atoms: CD_7  and  NE2_8 
ROOT
ATOM      1  CA  GLN A   1      13.769  30.475  15.007  1.00  0.00     0.315 C 
ENDROOT
BRANCH   1   2
ATOM      2  C   GLN A   1      15.123  30.035  14.511  1.00  0.00     0.173 C 
ATOM      3  OXT GLN A   1      15.311  28.837  14.171  1.00  0.00    -0.648 OA
BRANCH   2   4
ATOM      4  O   GLN A   1      16.169  30.951  14.430  1.00  0.00    -0.775 OA
ATOM      5  H   GLN A   1      15.992  31.924  14.209  1.00  0.00     0.167 HD
ENDBRANCH   2   4
ENDBRANCH   1   2
BRANCH   1   6
ATOM      6  CB  GLN A   1      13.778  30.721  16.530  1.00  0.00     0.056 C 
BRANCH   6   7
ATOM      7  CG  GLN A   1      13.724  32.210  16.913  1.00  0.00     0.105 C 
BRANCH   7   8
ATOM      8  CD  GLN A   1      15.080  32.763  17.245  1.00  0.00     0.215 C 
ATOM      9  NE2 GLN A   1      15.882  33.373  16.234  1.00  0.00    -0.370 N 
ATOM     10 1HE2 GLN A   1      16.829  33.747  16.467  1.00  0.00     0.159 HD
ATOM     11 2HE2 GLN A   1      15.528  33.468  15.256  1.00  0.00     0.159 HD
ATOM     12  OE1 GLN A   1      15.511  32.699  18.427  1.00  0.00    -0.274 OA
ENDBRANCH   7   8
ENDBRANCH   6   7
ENDBRANCH   1   6
BRANCH   1  13
ATOM     13  N   GLN A   1      12.754  29.473  14.676  1.00  0.00     0.093 N 
ATOM     14  H1  GLN A   1      13.045  28.949  13.818  1.00  0.00     0.314 HD
ATOM     15  H2  GLN A   1      11.858  29.965  14.453  1.00  0.00     0.314 HD
ENDBRANCH   1  13
TORSDOF 6
ENDMDL
MODEL 15
REMARK VINA RESULT:      -4.5      9.063     10.266
REMARK  6 active torsions:
REMARK  status: ('A' for Active; 'I' for Inactive)
REMARK    1  A    between atoms: O_1  and  C_2 
REMARK    2  A    between atoms: C_2  and  CA_3 
REMARK    3  A    between atoms: CA_3  and  CB_5 
REMARK    4  A    between atoms: CA_3  and  N_4 
REMARK    5  A    between atoms: CB_5  and  CG_6 
REMARK    6  A    between atoms: CG_6  and  CD_7 
REMARK       I    between atoms: CD_7  and  NE2_8 
ROOT
ATOM      1  CA  GLN A   1      16.098  32.436  13.753  1.00  0.00     0.315 C 
ENDROOT
BRANCH   1   2
ATOM      2  C   GLN A   1      16.670  32.734  15.116  1.00  0.00     0.173 C 
ATOM      3  OXT GLN A   1      17.675  32.097  15.530  1.00  0.00    -0.648 OA
BRANCH   2   4
ATOM      4  O   GLN A   1      16.088  33.709  15.921  1.00  0.00    -0.775 OA
ATOM      5  H   GLN A   1      15.167  33.571  16.321  1.00  0.00     0.167 HD
ENDBRANCH   2   4
ENDBRANCH   1   2
BRANCH   1   6
ATOM      6  CB  GLN A   1      15.769  30.937  13.594  1.00  0.00     0.056 C 
BRANCH   6   7
ATOM      7  CG  GLN A   1      14.607  30.464  14.485  1.00  0.00     0.105 C 
BRANCH   7   8
ATOM      8  CD  GLN A   1      14.125  29.092  14.112  1.00  0.00     0.215 C 
ATOM      9  NE2 GLN A   1      12.728  28.801  14.065  1.00  0.00    -0.370 N 
ATOM     10 1HE2 GLN A   1      12.398  27.843  13.815  1.00  0.00     0.159 HD
ATOM     11 2HE2 GLN A   1      12.021  29.544  14.263  1.00  0.00     0.159 HD
ATOM     12  OE1 GLN A   1      14.958  28.192  13.826  1.00  0.00    -0.274 OA
ENDBRANCH   7   8
ENDBRANCH   6   7
ENDBRANCH   1   6
BRANCH   1  13
ATOM     13  N   GLN A   1      17.033  32.849  12.705  1.00  0.00     0.093 N 
ATOM     14  H1  GLN A   1      16.613  32.660  11.766  1.00  0.00     0.314 HD
ATOM     15  H2  GLN A   1      17.901  32.270  12.782  1.00  0.00     0.314 HD
ENDBRANCH   1  13
TORSDOF 6
ENDMDL
MODEL 16
REMARK VINA RESULT:      -4.5      2.664      3.779
REMARK  6 active torsions:
REMARK  status: ('A' for Active; 'I' for Inactive)
REMARK    1  A    between atoms: O_1  and  C_2 
REMARK    2  A    between atoms: C_2  and  CA_3 
REMARK    3  A    between atoms: CA_3  and  CB_5 
REMARK    4  A    between atoms: CA_3  and  N_4 
REMARK    5  A    between atoms: CB_5  and  CG_6 
REMARK    6  A    between atoms: CG_6  and  CD_7 
REMARK       I    between atoms: CD_7  and  NE2_8 
ROOT
ATOM      1  CA  GLN A   1      16.324  36.458  22.866  1.00  0.00     0.315 C 
ENDROOT
BRANCH   1   2
ATOM      2  C   GLN A   1      16.775  37.882  23.068  1.00  0.00     0.173 C 
ATOM      3  OXT GLN A   1      17.289  38.522  22.113  1.00  0.00    -0.648 OA
BRANCH   2   4
ATOM      4  O   GLN A   1      16.626  38.492  24.311  1.00  0.00    -0.775 OA
ATOM      5  H   GLN A   1      17.435  38.804  24.836  1.00  0.00     0.167 HD
ENDBRANCH   2   4
ENDBRANCH   1   2
BRANCH   1   6
ATOM      6  CB  GLN A   1      17.339  35.455  23.454  1.00  0.00     0.056 C 
BRANCH   6   7
ATOM      7  CG  GLN A   1      16.922  34.889  24.823  1.00  0.00     0.105 C 
BRANCH   7   8
ATOM      8  CD  GLN A   1      17.797  35.388  25.936  1.00  0.00     0.215 C 
ATOM      9  NE2 GLN A   1      17.640  36.712  26.445  1.00  0.00    -0.370 N 
ATOM     10 1HE2 GLN A   1      18.257  37.059  27.212  1.00  0.00     0.159 HD
ATOM     11 2HE2 GLN A   1      16.897  37.344  26.070  1.00  0.00     0.159 HD
ATOM     12  OE1 GLN A   1      18.671  34.629  26.434  1.00  0.00    -0.274 OA
ENDBRANCH   7   8
ENDBRANCH   6   7
ENDBRANCH   1   6
BRANCH   1  13
ATOM     13  N   GLN A   1      16.127  36.182  21.442  1.00  0.00     0.093 N 
ATOM     14  H1  GLN A   1      15.267  36.673  21.105  1.00  0.00     0.314 HD
ATOM     15  H2  GLN A   1      15.970  35.155  21.318  1.00  0.00     0.314 HD
ENDBRANCH   1  13
TORSDOF 6
ENDMDL
MODEL 17
REMARK VINA RESULT:      -4.4      5.147      6.833
REMARK  6 active torsions:
REMARK  status: ('A' for Active; 'I' for Inactive)
REMARK    1  A    between atoms: O_1  and  C_2 
REMARK    2  A    between atoms: C_2  and  CA_3 
REMARK    3  A    between atoms: CA_3  and  CB_5 
REMARK    4  A    between atoms: CA_3  and  N_4 
REMARK    5  A    between atoms: CB_5  and  CG_6 
REMARK    6  A    between atoms: CG_6  and  CD_7 
REMARK       I    between atoms: CD_7  and  NE2_8 
ROOT
ATOM      1  CA  GLN A   1      15.383  32.337  19.160  1.00  0.00     0.315 C 
ENDROOT
BRANCH   1   2
ATOM      2  C   GLN A   1      15.350  33.686  19.832  1.00  0.00     0.173 C 
ATOM      3  OXT GLN A   1      15.086  33.771  21.061  1.00  0.00    -0.648 OA
BRANCH   2   4
ATOM      4  O   GLN A   1      15.606  34.839  19.096  1.00  0.00    -0.775 OA
ATOM      5  H   GLN A   1      16.233  34.819  18.299  1.00  0.00     0.167 HD
ENDBRANCH   2   4
ENDBRANCH   1   2
BRANCH   1   6
ATOM      6  CB  GLN A   1      15.318  32.468  17.624  1.00  0.00     0.056 C 
BRANCH   6   7
ATOM      7  CG  GLN A   1      13.885  32.432  17.064  1.00  0.00     0.105 C 
BRANCH   7   8
ATOM      8  CD  GLN A   1      13.559  31.115  16.422  1.00  0.00     0.215 C 
ATOM      9  NE2 GLN A   1      14.224  30.705  15.227  1.00  0.00    -0.370 N 
ATOM     10 1HE2 GLN A   1      13.986  29.793  14.778  1.00  0.00     0.159 HD
ATOM     11 2HE2 GLN A   1      14.966  31.301  14.797  1.00  0.00     0.159 HD
ATOM     12  OE1 GLN A   1      12.699  30.358  16.946  1.00  0.00    -0.274 OA
ENDBRANCH   7   8
ENDBRANCH   6   7
ENDBRANCH   1   6
BRANCH   1  13
ATOM     13  N   GLN A   1      14.275  31.504  19.631  1.00  0.00     0.093 N 
ATOM     14  H1  GLN A   1      13.367  31.918  19.315  1.00  0.00     0.314 HD
ATOM     15  H2  GLN A   1      14.273  31.508  20.677  1.00  0.00     0.314 HD
ENDBRANCH   1  13
TORSDOF 6
ENDMDL
MODEL 18
REMARK VINA RESULT:      -4.3      2.407      4.619
REMARK  6 active torsions:
REMARK  status: ('A' for Active; 'I' for Inactive)
REMARK    1  A    between atoms: O_1  and  C_2 
REMARK    2  A    between atoms: C_2  and  CA_3 
REMARK    3  A    between atoms: CA_3  and  CB_5 
REMARK    4  A    between atoms: CA_3  and  N_4 
REMARK    5  A    between atoms: CB_5  and  CG_6 
REMARK    6  A    between atoms: CG_6  and  CD_7 
REMARK       I    between atoms: CD_7  and  NE2_8 
ROOT
ATOM      1  CA  GLN A   1      16.185  35.810  22.075  1.00  0.00     0.315 C 
ENDROOT
BRANCH   1   2
ATOM      2  C   GLN A   1      16.619  35.395  20.692  1.00  0.00     0.173 C 
ATOM      3  OXT GLN A   1      16.083  34.401  20.135  1.00  0.00    -0.648 OA
BRANCH   2   4
ATOM      4  O   GLN A   1      17.615  36.107  20.030  1.00  0.00    -0.775 OA
ATOM      5  H   GLN A   1      18.491  35.663  19.777  1.00  0.00     0.167 HD
ENDBRANCH   2   4
ENDBRANCH   1   2
BRANCH   1   6
ATOM      6  CB  GLN A   1      16.137  37.346  22.216  1.00  0.00     0.056 C 
BRANCH   6   7
ATOM      7  CG  GLN A   1      17.335  37.931  22.983  1.00  0.00     0.105 C 
BRANCH   7   8
ATOM      8  CD  GLN A   1      18.210  38.782  22.109  1.00  0.00     0.215 C 
ATOM      9  NE2 GLN A   1      19.434  39.320  22.610  1.00  0.00    -0.370 N 
ATOM     10 1HE2 GLN A   1      20.034  39.920  22.002  1.00  0.00     0.159 HD
ATOM     11 2HE2 GLN A   1      19.752  39.107  23.582  1.00  0.00     0.159 HD
ATOM     12  OE1 GLN A   1      17.869  39.016  20.919  1.00  0.00    -0.274 OA
ENDBRANCH   7   8
ENDBRANCH   6   7
ENDBRANCH   1   6
BRANCH   1  13
ATOM     13  N   GLN A   1      17.088  35.251  23.083  1.00  0.00     0.093 N 
ATOM     14  H1  GLN A   1      16.926  34.220  23.165  1.00  0.00     0.314 HD
ATOM     15  H2  GLN A   1      16.861  35.678  24.011  1.00  0.00     0.314 HD
ENDBRANCH   1  13
TORSDOF 6
ENDMDL
MODEL 19
REMARK VINA RESULT:      -4.0      7.828      8.966
REMARK  6 active torsions:
REMARK  status: ('A' for Active; 'I' for Inactive)
REMARK    1  A    between atoms: O_1  and  C_2 
REMARK    2  A    between atoms: C_2  and  CA_3 
REMARK    3  A    between atoms: CA_3  and  CB_5 
REMARK    4  A    between atoms: CA_3  and  N_4 
REMARK    5  A    between atoms: CB_5  and  CG_6 
REMARK    6  A    between atoms: CG_6  and  CD_7 
REMARK       I    between atoms: CD_7  and  NE2_8 
ROOT
ATOM      1  CA  GLN A   1      14.860  31.333  15.882  1.00  0.00     0.315 C 
ENDROOT
BRANCH   1   2
ATOM      2  C   GLN A   1      13.951  32.156  16.758  1.00  0.00     0.173 C 
ATOM      3  OXT GLN A   1      12.775  31.767  16.988  1.00  0.00    -0.648 OA
BRANCH   2   4
ATOM      4  O   GLN A   1      14.407  33.350  17.311  1.00  0.00    -0.775 OA
ATOM      5  H   GLN A   1      15.383  33.470  17.555  1.00  0.00     0.167 HD
ENDBRANCH   2   4
ENDBRANCH   1   2
BRANCH   1   6
ATOM      6  CB  GLN A   1      15.482  32.183  14.754  1.00  0.00     0.056 C 
BRANCH   6   7
ATOM      7  CG  GLN A   1      16.943  32.586  15.021  1.00  0.00     0.105 C 
BRANCH   7   8
ATOM      8  CD  GLN A   1      17.134  34.075  15.006  1.00  0.00     0.215 C 
ATOM      9  NE2 GLN A   1      16.712  34.873  16.112  1.00  0.00    -0.370 N 
ATOM     10 1HE2 GLN A   1      16.838  35.909  16.093  1.00  0.00     0.159 HD
ATOM     11 2HE2 GLN A   1      16.289  34.430  16.959  1.00  0.00     0.159 HD
ATOM     12  OE1 GLN A   1      17.683  34.626  14.015  1.00  0.00    -0.274 OA
ENDBRANCH   7   8
ENDBRANCH   6   7
ENDBRANCH   1   6
BRANCH   1  13
ATOM     13  N   GLN A   1      14.128  30.205  15.302  1.00  0.00     0.093 N 
ATOM     14  H1  GLN A   1      13.624  29.688  16.059  1.00  0.00     0.314 HD
ATOM     15  H2  GLN A   1      14.815  29.543  14.874  1.00  0.00     0.314 HD
ENDBRANCH   1  13
TORSDOF 6
ENDMDL
MODEL 20
REMARK VINA RESULT:      -2.6     15.843     16.606
REMARK  6 active torsions:
REMARK  status: ('A' for Active; 'I' for Inactive)
REMARK    1  A    between atoms: O_1  and  C_2 
REMARK    2  A    between atoms: C_2  and  CA_3 
REMARK    3  A    between atoms: CA_3  and  CB_5 
REMARK    4  A    between atoms: CA_3  and  N_4 
REMARK    5  A    between atoms: CB_5  and  CG_6 
REMARK    6  A    between atoms: CG_6  and  CD_7 
REMARK       I    between atoms: CD_7  and  NE2_8 
ROOT
ATOM      1  CA  GLN A   1      26.114  23.590  19.122  1.00  0.00     0.315 C 
ENDROOT
BRANCH   1   2
ATOM      2  C   GLN A   1      26.701  24.910  18.692  1.00  0.00     0.173 C 
ATOM      3  OXT GLN A   1      27.576  24.944  17.787  1.00  0.00    -0.648 OA
BRANCH   2   4
ATOM      4  O   GLN A   1      26.281  26.091  19.296  1.00  0.00    -0.775 OA
ATOM      5  H   GLN A   1      25.385  26.504  19.063  1.00  0.00     0.167 HD
ENDBRANCH   2   4
ENDBRANCH   1   2
BRANCH   1   6
ATOM      6  CB  GLN A   1      25.033  23.103  18.134  1.00  0.00     0.056 C 
BRANCH   6   7
ATOM      7  CG  GLN A   1      24.731  21.599  18.244  1.00  0.00     0.105 C 
BRANCH   7   8
ATOM      8  CD  GLN A   1      23.278  21.328  18.510  1.00  0.00     0.215 C 
ATOM      9  NE2 GLN A   1      22.589  22.022  19.550  1.00  0.00    -0.370 N 
ATOM     10 1HE2 GLN A   1      21.581  21.822  19.738  1.00  0.00     0.159 HD
ATOM     11 2HE2 GLN A   1      23.076  22.747  20.122  1.00  0.00     0.159 HD
ATOM     12  OE1 GLN A   1      22.658  20.489  17.804  1.00  0.00    -0.274 OA
ENDBRANCH   7   8
ENDBRANCH   6   7
ENDBRANCH   1   6
BRANCH   1  13
ATOM     13  N   GLN A   1      25.540  23.699  20.465  1.00  0.00     0.093 N 
ATOM     14  H1  GLN A   1      25.873  22.901  21.055  1.00  0.00     0.314 HD
ATOM     15  H2  GLN A   1      24.500  23.621  20.394  1.00  0.00     0.314 HD
ENDBRANCH   1  13
TORSDOF 6
ENDMDL
