REMARK  6 active torsions:
REMARK  status: ('A' for Active; 'I' for Inactive)
REMARK    1  A    between atoms: O_1  and  C_2 
REMARK    2  A    between atoms: C_2  and  CA_3 
REMARK    3  A    between atoms: CA_3  and  CB_5 
REMARK    4  A    between atoms: CA_3  and  N_4 
REMARK    5  A    between atoms: CB_5  and  CG_6 
REMARK    6  A    between atoms: CG_6  and  CD_7 
REMARK       I    between atoms: CD_7  and  NE2_8 
ROOT
ATOM      1  CA  GLN A   1       0.847  -0.263   0.509  1.00  0.00     0.315 C 
ENDROOT
BRANCH   1   2
ATOM      2  C   GLN A   1       1.876  -0.430  -0.580  1.00  0.00     0.173 C 
ATOM      3  OXT GLN A   1       1.991  -1.535  -1.174  1.00  0.00    -0.648 OA
BRANCH   2   4
ATOM      4  O   GLN A   1       2.703   0.634  -0.929  1.00  0.00    -0.775 OA
ATOM      5  H   GLN A   1       3.398   0.534  -1.660  1.00  0.00     0.167 HD
ENDBRANCH   2   4
ENDBRANCH   1   2
BRANCH   1   6
ATOM      6  CB  GLN A   1      -0.155   0.861   0.172  1.00  0.00     0.056 C 
BRANCH   6   7
ATOM      7  CG  GLN A   1      -0.996   0.579  -1.085  1.00  0.00     0.105 C 
BRANCH   7   8
ATOM      8  CD  GLN A   1      -1.889  -0.616  -0.916  1.00  0.00     0.215 C 
ATOM      9  NE2 GLN A   1      -2.959  -0.595   0.029  1.00  0.00    -0.370 N 
ATOM     10 1HE2 GLN A   1      -3.571  -1.432   0.151  1.00  0.00     0.159 HD
ATOM     11 2HE2 GLN A   1      -3.153   0.260   0.597  1.00  0.00     0.159 HD
ATOM     12  OE1 GLN A   1      -1.702  -1.643  -1.621  1.00  0.00    -0.274 OA
ENDBRANCH   7   8
ENDBRANCH   6   7
ENDBRANCH   1   6
BRANCH   1  13
ATOM     13  N   GLN A   1       1.499   0.025   1.788  1.00  0.00     0.093 N 
ATOM     14  H1  GLN A   1       2.095   0.880   1.693  1.00  0.00     0.314 HD
ATOM     15  H2  GLN A   1       2.132  -0.772   2.029  1.00  0.00     0.314 HD
ENDBRANCH   1  13
TORSDOF 6
