MODEL 1
REMARK VINA RESULT:      -4.0      0.000      0.000
REMARK  5 active torsions:
REMARK  status: ('A' for Active; 'I' for Inactive)
REMARK    1  A    between atoms: O_1  and  C_2 
REMARK    2  A    between atoms: C_2  and  C_5 
REMARK    3  A    between atoms: C_2  and  C_3 
REMARK    4  A    between atoms: C_3  and  O_4 
REMARK    5  A    between atoms: C_5  and  O_6 
ROOT
HETATM    1  C   LIG     1      13.016  31.871  27.247  1.00  0.00     0.165 C 
ENDROOT
BRANCH   1   2
HETATM    2  O   LIG     1      11.906  32.529  27.803  1.00  0.00    -0.391 OA
HETATM    3  H   LIG     1      11.869  32.274  28.762  1.00  0.00     0.210 HD
ENDBRANCH   1   2
BRANCH   1   4
HETATM    4  C   LIG     1      13.863  31.264  28.373  1.00  0.00     0.198 C 
BRANCH   4   5
HETATM    5  O   LIG     1      13.557  29.907  28.564  1.00  0.00    -0.398 OA
HETATM    6  H   LIG     1      13.573  29.482  27.668  1.00  0.00     0.209 HD
ENDBRANCH   4   5
ENDBRANCH   1   4
BRANCH   1   7
HETATM    7  C   LIG     1      12.552  30.792  26.255  1.00  0.00     0.198 C 
BRANCH   7   8
HETATM    8  O   LIG     1      12.333  31.350  24.988  1.00  0.00    -0.398 OA
HETATM    9  H   LIG     1      12.533  32.321  25.064  1.00  0.00     0.209 HD
ENDBRANCH   7   8
ENDBRANCH   1   7
TORSDOF 5
ENDMDL
MODEL 2
REMARK VINA RESULT:      -3.8      0.928      2.523
REMARK  5 active torsions:
REMARK  status: ('A' for Active; 'I' for Inactive)
REMARK    1  A    between atoms: O_1  and  C_2 
REMARK    2  A    between atoms: C_2  and  C_5 
REMARK    3  A    between atoms: C_2  and  C_3 
REMARK    4  A    between atoms: C_3  and  O_4 
REMARK    5  A    between atoms: C_5  and  O_6 
ROOT
HETATM    1  C   LIG     1      12.449  31.732  27.322  1.00  0.00     0.165 C 
ENDROOT
BRANCH   1   2
HETATM    2  O   LIG     1      12.336  33.130  27.232  1.00  0.00    -0.391 OA
HETATM    3  H   LIG     1      12.836  33.512  28.001  1.00  0.00     0.210 HD
ENDBRANCH   1   2
BRANCH   1   4
HETATM    4  C   LIG     1      12.525  31.137  25.909  1.00  0.00     0.198 C 
BRANCH   4   5
HETATM    5  O   LIG     1      12.614  29.737  25.952  1.00  0.00    -0.398 OA
HETATM    6  H   LIG     1      13.575  29.509  25.861  1.00  0.00     0.209 HD
ENDBRANCH   4   5
ENDBRANCH   1   4
BRANCH   1   7
HETATM    7  C   LIG     1      13.685  31.352  28.153  1.00  0.00     0.198 C 
BRANCH   7   8
HETATM    8  O   LIG     1      13.614  30.011  28.553  1.00  0.00    -0.398 OA
HETATM    9  H   LIG     1      13.168  29.515  27.816  1.00  0.00     0.209 HD
ENDBRANCH   7   8
ENDBRANCH   1   7
TORSDOF 5
ENDMDL
MODEL 3
REMARK VINA RESULT:      -3.7      8.455      9.180
REMARK  5 active torsions:
REMARK  status: ('A' for Active; 'I' for Inactive)
REMARK    1  A    between atoms: O_1  and  C_2 
REMARK    2  A    between atoms: C_2  and  C_5 
REMARK    3  A    between atoms: C_2  and  C_3 
REMARK    4  A    between atoms: C_3  and  O_4 
REMARK    5  A    between atoms: C_5  and  O_6 
ROOT
HETATM    1  C   LIG     1      16.429  37.757  23.428  1.00  0.00     0.165 C 
ENDROOT
BRANCH   1   2
HETATM    2  O   LIG     1      15.065  38.058  23.584  1.00  0.00    -0.391 OA
HETATM    3  H   LIG     1      15.009  38.836  24.199  1.00  0.00     0.210 HD
ENDBRANCH   1   2
BRANCH   1   4
HETATM    4  C   LIG     1      17.116  38.897  22.662  1.00  0.00     0.198 C 
BRANCH   4   5
HETATM    5  O   LIG     1      18.511  38.831  22.799  1.00  0.00    -0.398 OA
HETATM    6  H   LIG     1      18.833  38.173  22.129  1.00  0.00     0.209 HD
ENDBRANCH   4   5
ENDBRANCH   1   4
BRANCH   1   7
HETATM    7  C   LIG     1      17.084  37.534  24.800  1.00  0.00     0.198 C 
BRANCH   7   8
HETATM    8  O   LIG     1      17.265  38.756  25.462  1.00  0.00    -0.398 OA
HETATM    9  H   LIG     1      18.197  38.759  25.809  1.00  0.00     0.209 HD
ENDBRANCH   7   8
ENDBRANCH   1   7
TORSDOF 5
ENDMDL
MODEL 4
REMARK VINA RESULT:      -3.7      7.579      7.862
REMARK  5 active torsions:
REMARK  status: ('A' for Active; 'I' for Inactive)
REMARK    1  A    between atoms: O_1  and  C_2 
REMARK    2  A    between atoms: C_2  and  C_5 
REMARK    3  A    between atoms: C_2  and  C_3 
REMARK    4  A    between atoms: C_3  and  O_4 
REMARK    5  A    between atoms: C_5  and  O_6 
ROOT
HETATM    1  C   LIG     1      17.888  37.876  25.093  1.00  0.00     0.165 C 
ENDROOT
BRANCH   1   2
HETATM    2  O   LIG     1      17.278  38.937  25.784  1.00  0.00    -0.391 OA
HETATM    3  H   LIG     1      17.764  39.041  26.644  1.00  0.00     0.210 HD
ENDBRANCH   1   2
BRANCH   1   4
HETATM    4  C   LIG     1      18.089  36.694  26.053  1.00  0.00     0.198 C 
BRANCH   4   5
HETATM    5  O   LIG     1      17.156  35.675  25.804  1.00  0.00    -0.398 OA
HETATM    6  H   LIG     1      16.282  35.998  26.144  1.00  0.00     0.209 HD
ENDBRANCH   4   5
ENDBRANCH   1   4
BRANCH   1   7
HETATM    7  C   LIG     1      17.034  37.470  23.881  1.00  0.00     0.198 C 
BRANCH   7   8
HETATM    8  O   LIG     1      15.715  37.919  24.038  1.00  0.00    -0.398 OA
HETATM    9  H   LIG     1      15.755  38.734  24.605  1.00  0.00     0.209 HD
ENDBRANCH   7   8
ENDBRANCH   1   7
TORSDOF 5
ENDMDL
MODEL 5
REMARK VINA RESULT:      -3.6      7.596      8.010
REMARK  5 active torsions:
REMARK  status: ('A' for Active; 'I' for Inactive)
REMARK    1  A    between atoms: O_1  and  C_2 
REMARK    2  A    between atoms: C_2  and  C_5 
REMARK    3  A    between atoms: C_2  and  C_3 
REMARK    4  A    between atoms: C_3  and  O_4 
REMARK    5  A    between atoms: C_5  and  O_6 
ROOT
HETATM    1  C   LIG     1      16.629  37.753  23.677  1.00  0.00     0.165 C 
ENDROOT
BRANCH   1   2
HETATM    2  O   LIG     1      15.260  38.068  23.656  1.00  0.00    -0.391 OA
HETATM    3  H   LIG     1      14.778  37.247  23.372  1.00  0.00     0.210 HD
ENDBRANCH   1   2
BRANCH   1   4
HETATM    4  C   LIG     1      17.133  37.773  25.127  1.00  0.00     0.198 C 
BRANCH   4   5
HETATM    5  O   LIG     1      18.530  37.901  25.177  1.00  0.00    -0.398 OA
HETATM    6  H   LIG     1      18.823  37.497  26.034  1.00  0.00     0.209 HD
ENDBRANCH   4   5
ENDBRANCH   1   4
BRANCH   1   7
HETATM    7  C   LIG     1      16.869  36.383  23.023  1.00  0.00     0.198 C 
BRANCH   7   8
HETATM    8  O   LIG     1      17.209  35.429  23.993  1.00  0.00    -0.398 OA
HETATM    9  H   LIG     1      16.542  34.696  23.920  1.00  0.00     0.209 HD
ENDBRANCH   7   8
ENDBRANCH   1   7
TORSDOF 5
ENDMDL
MODEL 6
REMARK VINA RESULT:      -3.6      8.127      8.644
REMARK  5 active torsions:
REMARK  status: ('A' for Active; 'I' for Inactive)
REMARK    1  A    between atoms: O_1  and  C_2 
REMARK    2  A    between atoms: C_2  and  C_5 
REMARK    3  A    between atoms: C_2  and  C_3 
REMARK    4  A    between atoms: C_3  and  O_4 
REMARK    5  A    between atoms: C_5  and  O_6 
ROOT
HETATM    1  C   LIG     1      17.334  37.504  23.435  1.00  0.00     0.165 C 
ENDROOT
BRANCH   1   2
HETATM    2  O   LIG     1      18.064  38.657  23.100  1.00  0.00    -0.391 OA
HETATM    3  H   LIG     1      18.940  38.592  23.563  1.00  0.00     0.210 HD
ENDBRANCH   1   2
BRANCH   1   4
HETATM    4  C   LIG     1      17.142  37.450  24.957  1.00  0.00     0.198 C 
BRANCH   4   5
HETATM    5  O   LIG     1      17.221  38.732  25.524  1.00  0.00    -0.398 OA
HETATM    6  H   LIG     1      16.362  38.890  25.995  1.00  0.00     0.209 HD
ENDBRANCH   4   5
ENDBRANCH   1   4
BRANCH   1   7
HETATM    7  C   LIG     1      15.983  37.499  22.702  1.00  0.00     0.198 C 
BRANCH   7   8
HETATM    8  O   LIG     1      14.998  38.117  23.485  1.00  0.00    -0.398 OA
HETATM    9  H   LIG     1      14.796  37.496  24.234  1.00  0.00     0.209 HD
ENDBRANCH   7   8
ENDBRANCH   1   7
TORSDOF 5
ENDMDL
MODEL 7
REMARK VINA RESULT:      -3.6      1.102      2.162
REMARK  5 active torsions:
REMARK  status: ('A' for Active; 'I' for Inactive)
REMARK    1  A    between atoms: O_1  and  C_2 
REMARK    2  A    between atoms: C_2  and  C_5 
REMARK    3  A    between atoms: C_2  and  C_3 
REMARK    4  A    between atoms: C_3  and  O_4 
REMARK    5  A    between atoms: C_5  and  O_6 
ROOT
HETATM    1  C   LIG     1      12.527  30.785  27.149  1.00  0.00     0.165 C 
ENDROOT
BRANCH   1   2
HETATM    2  O   LIG     1      12.723  30.140  25.916  1.00  0.00    -0.391 OA
HETATM    3  H   LIG     1      13.450  30.628  25.446  1.00  0.00     0.210 HD
ENDBRANCH   1   2
BRANCH   1   4
HETATM    4  C   LIG     1      13.650  30.385  28.116  1.00  0.00     0.198 C 
BRANCH   4   5
HETATM    5  O   LIG     1      13.707  31.255  29.215  1.00  0.00    -0.398 OA
HETATM    6  H   LIG     1      12.770  31.456  29.471  1.00  0.00     0.209 HD
ENDBRANCH   4   5
ENDBRANCH   1   4
BRANCH   1   7
HETATM    7  C   LIG     1      12.480  32.308  26.950  1.00  0.00     0.198 C 
BRANCH   7   8
HETATM    8  O   LIG     1      11.491  32.879  27.764  1.00  0.00    -0.398 OA
HETATM    9  H   LIG     1      11.155  32.156  28.358  1.00  0.00     0.209 HD
ENDBRANCH   7   8
ENDBRANCH   1   7
TORSDOF 5
ENDMDL
MODEL 8
REMARK VINA RESULT:      -3.5      7.304      7.960
REMARK  5 active torsions:
REMARK  status: ('A' for Active; 'I' for Inactive)
REMARK    1  A    between atoms: O_1  and  C_2 
REMARK    2  A    between atoms: C_2  and  C_5 
REMARK    3  A    between atoms: C_2  and  C_3 
REMARK    4  A    between atoms: C_3  and  O_4 
REMARK    5  A    between atoms: C_5  and  O_6 
ROOT
HETATM    1  C   LIG     1      17.182  37.279  25.071  1.00  0.00     0.165 C 
ENDROOT
BRANCH   1   2
HETATM    2  O   LIG     1      18.331  38.079  25.185  1.00  0.00    -0.391 OA
HETATM    3  H   LIG     1      18.098  38.838  25.782  1.00  0.00     0.210 HD
ENDBRANCH   1   2
BRANCH   1   4
HETATM    4  C   LIG     1      16.593  37.434  23.662  1.00  0.00     0.198 C 
BRANCH   4   5
HETATM    5  O   LIG     1      15.340  38.065  23.702  1.00  0.00    -0.398 OA
HETATM    6  H   LIG     1      14.745  37.559  23.091  1.00  0.00     0.209 HD
ENDBRANCH   4   5
ENDBRANCH   1   4
BRANCH   1   7
HETATM    7  C   LIG     1      17.526  35.811  25.372  1.00  0.00     0.198 C 
BRANCH   7   8
HETATM    8  O   LIG     1      17.252  35.004  24.259  1.00  0.00    -0.398 OA
HETATM    9  H   LIG     1      16.338  34.636  24.390  1.00  0.00     0.209 HD
ENDBRANCH   7   8
ENDBRANCH   1   7
TORSDOF 5
ENDMDL
MODEL 9
REMARK VINA RESULT:      -3.5     11.537     12.411
REMARK  5 active torsions:
REMARK  status: ('A' for Active; 'I' for Inactive)
REMARK    1  A    between atoms: O_1  and  C_2 
REMARK    2  A    between atoms: C_2  and  C_5 
REMARK    3  A    between atoms: C_2  and  C_3 
REMARK    4  A    between atoms: C_3  and  O_4 
REMARK    5  A    between atoms: C_5  and  O_6 
ROOT
HETATM    1  C   LIG     1      19.188  37.776  19.772  1.00  0.00     0.165 C 
ENDROOT
BRANCH   1   2
HETATM    2  O   LIG     1      18.463  36.719  19.197  1.00  0.00    -0.391 OA
HETATM    3  H   LIG     1      17.500  36.913  19.347  1.00  0.00     0.210 HD
ENDBRANCH   1   2
BRANCH   1   4
HETATM    4  C   LIG     1      19.442  38.855  18.709  1.00  0.00     0.198 C 
BRANCH   4   5
HETATM    5  O   LIG     1      20.647  39.532  18.951  1.00  0.00    -0.398 OA
HETATM    6  H   LIG     1      20.515  40.066  19.776  1.00  0.00     0.209 HD
ENDBRANCH   4   5
ENDBRANCH   1   4
BRANCH   1   7
HETATM    7  C   LIG     1      18.425  38.350  20.976  1.00  0.00     0.198 C 
BRANCH   7   8
HETATM    8  O   LIG     1      19.090  39.473  21.489  1.00  0.00    -0.398 OA
HETATM    9  H   LIG     1      20.038  39.401  21.201  1.00  0.00     0.209 HD
ENDBRANCH   7   8
ENDBRANCH   1   7
TORSDOF 5
ENDMDL
MODEL 10
REMARK VINA RESULT:      -3.5      7.988      9.499
REMARK  5 active torsions:
REMARK  status: ('A' for Active; 'I' for Inactive)
REMARK    1  A    between atoms: O_1  and  C_2 
REMARK    2  A    between atoms: C_2  and  C_5 
REMARK    3  A    between atoms: C_2  and  C_3 
REMARK    4  A    between atoms: C_3  and  O_4 
REMARK    5  A    between atoms: C_5  and  O_6 
ROOT
HETATM    1  C   LIG     1      14.817  32.261  17.886  1.00  0.00     0.165 C 
ENDROOT
BRANCH   1   2
HETATM    2  O   LIG     1      13.451  31.935  17.923  1.00  0.00    -0.391 OA
HETATM    3  H   LIG     1      13.170  31.972  18.875  1.00  0.00     0.210 HD
ENDBRANCH   1   2
BRANCH   1   4
HETATM    4  C   LIG     1      14.990  33.651  17.257  1.00  0.00     0.198 C 
BRANCH   4   5
HETATM    5  O   LIG     1      15.363  34.601  18.221  1.00  0.00    -0.398 OA
HETATM    6  H   LIG     1      16.255  34.944  17.954  1.00  0.00     0.209 HD
ENDBRANCH   4   5
ENDBRANCH   1   4
BRANCH   1   7
HETATM    7  C   LIG     1      15.413  32.212  19.302  1.00  0.00     0.198 C 
BRANCH   7   8
HETATM    8  O   LIG     1      14.467  32.631  20.248  1.00  0.00    -0.398 OA
HETATM    9  H   LIG     1      14.190  31.822  20.754  1.00  0.00     0.209 HD
ENDBRANCH   7   8
ENDBRANCH   1   7
TORSDOF 5
ENDMDL
MODEL 11
REMARK VINA RESULT:      -3.4      8.306      9.944
REMARK  5 active torsions:
REMARK  status: ('A' for Active; 'I' for Inactive)
REMARK    1  A    between atoms: O_1  and  C_2 
REMARK    2  A    between atoms: C_2  and  C_5 
REMARK    3  A    between atoms: C_2  and  C_3 
REMARK    4  A    between atoms: C_3  and  O_4 
REMARK    5  A    between atoms: C_5  and  O_6 
ROOT
HETATM    1  C   LIG     1      14.816  32.608  17.548  1.00  0.00     0.165 C 
ENDROOT
BRANCH   1   2
HETATM    2  O   LIG     1      15.991  32.669  16.780  1.00  0.00    -0.391 OA
HETATM    3  H   LIG     1      15.827  33.323  16.051  1.00  0.00     0.210 HD
ENDBRANCH   1   2
BRANCH   1   4
HETATM    4  C   LIG     1      13.911  31.494  17.002  1.00  0.00     0.198 C 
BRANCH   4   5
HETATM    5  O   LIG     1      12.556  31.797  17.205  1.00  0.00    -0.398 OA
HETATM    6  H   LIG     1      12.362  32.611  16.672  1.00  0.00     0.209 HD
ENDBRANCH   4   5
ENDBRANCH   1   4
BRANCH   1   7
HETATM    7  C   LIG     1      15.160  32.370  19.027  1.00  0.00     0.198 C 
BRANCH   7   8
HETATM    8  O   LIG     1      14.254  31.469  19.604  1.00  0.00    -0.398 OA
HETATM    9  H   LIG     1      14.766  30.642  19.811  1.00  0.00     0.209 HD
ENDBRANCH   7   8
ENDBRANCH   1   7
TORSDOF 5
ENDMDL
MODEL 12
REMARK VINA RESULT:      -3.4      7.299      7.842
REMARK  5 active torsions:
REMARK  status: ('A' for Active; 'I' for Inactive)
REMARK    1  A    between atoms: O_1  and  C_2 
REMARK    2  A    between atoms: C_2  and  C_5 
REMARK    3  A    between atoms: C_2  and  C_3 
REMARK    4  A    between atoms: C_3  and  O_4 
REMARK    5  A    between atoms: C_5  and  O_6 
ROOT
HETATM    1  C   LIG     1      17.018  36.706  24.611  1.00  0.00     0.165 C 
ENDROOT
BRANCH   1   2
HETATM    2  O   LIG     1      17.060  36.222  23.292  1.00  0.00    -0.391 OA
HETATM    3  H   LIG     1      16.134  35.955  23.052  1.00  0.00     0.210 HD
ENDBRANCH   1   2
BRANCH   1   4
HETATM    4  C   LIG     1      17.597  35.647  25.559  1.00  0.00     0.198 C 
BRANCH   4   5
HETATM    5  O   LIG     1      17.630  36.113  26.882  1.00  0.00    -0.398 OA
HETATM    6  H   LIG     1      17.385  37.074  26.853  1.00  0.00     0.209 HD
ENDBRANCH   4   5
ENDBRANCH   1   4
BRANCH   1   7
HETATM    7  C   LIG     1      17.794  38.029  24.715  1.00  0.00     0.198 C 
BRANCH   7   8
HETATM    8  O   LIG     1      17.273  38.823  25.747  1.00  0.00    -0.398 OA
HETATM    9  H   LIG     1      18.035  39.336  26.127  1.00  0.00     0.209 HD
ENDBRANCH   7   8
ENDBRANCH   1   7
TORSDOF 5
ENDMDL
MODEL 13
REMARK VINA RESULT:      -3.4      7.728      8.672
REMARK  5 active torsions:
REMARK  status: ('A' for Active; 'I' for Inactive)
REMARK    1  A    between atoms: O_1  and  C_2 
REMARK    2  A    between atoms: C_2  and  C_5 
REMARK    3  A    between atoms: C_2  and  C_3 
REMARK    4  A    between atoms: C_3  and  O_4 
REMARK    5  A    between atoms: C_5  and  O_6 
ROOT
HETATM    1  C   LIG     1      16.925  37.124  23.473  1.00  0.00     0.165 C 
ENDROOT
BRANCH   1   2
HETATM    2  O   LIG     1      17.084  35.766  23.148  1.00  0.00    -0.391 OA
HETATM    3  H   LIG     1      17.520  35.730  22.256  1.00  0.00     0.210 HD
ENDBRANCH   1   2
BRANCH   1   4
HETATM    4  C   LIG     1      15.572  37.617  22.941  1.00  0.00     0.198 C 
BRANCH   4   5
HETATM    5  O   LIG     1      15.551  39.017  22.831  1.00  0.00    -0.398 OA
HETATM    6  H   LIG     1      14.730  39.327  23.294  1.00  0.00     0.209 HD
ENDBRANCH   4   5
ENDBRANCH   1   4
BRANCH   1   7
HETATM    7  C   LIG     1      17.031  37.321  24.994  1.00  0.00     0.198 C 
BRANCH   7   8
HETATM    8  O   LIG     1      17.295  38.664  25.297  1.00  0.00    -0.398 OA
HETATM    9  H   LIG     1      16.429  39.148  25.235  1.00  0.00     0.209 HD
ENDBRANCH   7   8
ENDBRANCH   1   7
TORSDOF 5
ENDMDL
MODEL 14
REMARK VINA RESULT:      -3.3      8.739      9.173
REMARK  5 active torsions:
REMARK  status: ('A' for Active; 'I' for Inactive)
REMARK    1  A    between atoms: O_1  and  C_2 
REMARK    2  A    between atoms: C_2  and  C_5 
REMARK    3  A    between atoms: C_2  and  C_3 
REMARK    4  A    between atoms: C_3  and  O_4 
REMARK    5  A    between atoms: C_5  and  O_6 
ROOT
HETATM    1  C   LIG     1      16.638  38.451  23.402  1.00  0.00     0.165 C 
ENDROOT
BRANCH   1   2
HETATM    2  O   LIG     1      15.293  38.128  23.153  1.00  0.00    -0.391 OA
HETATM    3  H   LIG     1      15.165  38.157  22.169  1.00  0.00     0.210 HD
ENDBRANCH   1   2
BRANCH   1   4
HETATM    4  C   LIG     1      17.124  37.683  24.639  1.00  0.00     0.198 C 
BRANCH   4   5
HETATM    5  O   LIG     1      18.420  38.079  25.005  1.00  0.00    -0.398 OA
HETATM    6  H   LIG     1      18.322  38.877  25.586  1.00  0.00     0.209 HD
ENDBRANCH   4   5
ENDBRANCH   1   4
BRANCH   1   7
HETATM    7  C   LIG     1      17.498  38.125  22.170  1.00  0.00     0.198 C 
BRANCH   7   8
HETATM    8  O   LIG     1      18.642  38.935  22.143  1.00  0.00    -0.398 OA
HETATM    9  H   LIG     1      18.795  39.183  21.192  1.00  0.00     0.209 HD
ENDBRANCH   7   8
ENDBRANCH   1   7
TORSDOF 5
ENDMDL
MODEL 15
REMARK VINA RESULT:      -3.3      9.644     10.558
REMARK  5 active torsions:
REMARK  status: ('A' for Active; 'I' for Inactive)
REMARK    1  A    between atoms: O_1  and  C_2 
REMARK    2  A    between atoms: C_2  and  C_5 
REMARK    3  A    between atoms: C_2  and  C_3 
REMARK    4  A    between atoms: C_3  and  O_4 
REMARK    5  A    between atoms: C_5  and  O_6 
ROOT
HETATM    1  C   LIG     1      13.834  32.191  17.136  1.00  0.00     0.165 C 
ENDROOT
BRANCH   1   2
HETATM    2  O   LIG     1      13.895  31.828  18.493  1.00  0.00    -0.391 OA
HETATM    3  H   LIG     1      13.413  30.964  18.584  1.00  0.00     0.210 HD
ENDBRANCH   1   2
BRANCH   1   4
HETATM    4  C   LIG     1      15.179  32.795  16.711  1.00  0.00     0.198 C 
BRANCH   4   5
HETATM    5  O   LIG     1      15.071  34.180  16.509  1.00  0.00    -0.398 OA
HETATM    6  H   LIG     1      15.982  34.557  16.619  1.00  0.00     0.209 HD
ENDBRANCH   4   5
ENDBRANCH   1   4
BRANCH   1   7
HETATM    7  C   LIG     1      13.476  30.968  16.276  1.00  0.00     0.198 C 
BRANCH   7   8
HETATM    8  O   LIG     1      12.347  30.317  16.793  1.00  0.00    -0.398 OA
HETATM    9  H   LIG     1      12.579  30.032  17.717  1.00  0.00     0.209 HD
ENDBRANCH   7   8
ENDBRANCH   1   7
TORSDOF 5
ENDMDL
MODEL 16
REMARK VINA RESULT:      -3.2      9.285      9.949
REMARK  5 active torsions:
REMARK  status: ('A' for Active; 'I' for Inactive)
REMARK    1  A    between atoms: O_1  and  C_2 
REMARK    2  A    between atoms: C_2  and  C_5 
REMARK    3  A    between atoms: C_2  and  C_3 
REMARK    4  A    between atoms: C_3  and  O_4 
REMARK    5  A    between atoms: C_5  and  O_6 
ROOT
HETATM    1  C   LIG     1      17.285  38.688  22.907  1.00  0.00     0.165 C 
ENDROOT
BRANCH   1   2
HETATM    2  O   LIG     1      18.013  38.273  24.034  1.00  0.00    -0.391 OA
HETATM    3  H   LIG     1      18.962  38.190  23.753  1.00  0.00     0.210 HD
ENDBRANCH   1   2
BRANCH   1   4
HETATM    4  C   LIG     1      18.213  38.715  21.684  1.00  0.00     0.198 C 
BRANCH   4   5
HETATM    5  O   LIG     1      18.834  39.966  21.545  1.00  0.00    -0.398 OA
HETATM    6  H   LIG     1      19.499  39.876  20.815  1.00  0.00     0.209 HD
ENDBRANCH   4   5
ENDBRANCH   1   4
BRANCH   1   7
HETATM    7  C   LIG     1      16.086  37.754  22.675  1.00  0.00     0.198 C 
BRANCH   7   8
HETATM    8  O   LIG     1      15.039  38.074  23.551  1.00  0.00    -0.398 OA
HETATM    9  H   LIG     1      14.424  38.676  23.054  1.00  0.00     0.209 HD
ENDBRANCH   7   8
ENDBRANCH   1   7
TORSDOF 5
ENDMDL
MODEL 17
REMARK VINA RESULT:      -3.2     10.106     10.792
REMARK  5 active torsions:
REMARK  status: ('A' for Active; 'I' for Inactive)
REMARK    1  A    between atoms: O_1  and  C_2 
REMARK    2  A    between atoms: C_2  and  C_5 
REMARK    3  A    between atoms: C_2  and  C_3 
REMARK    4  A    between atoms: C_3  and  O_4 
REMARK    5  A    between atoms: C_5  and  O_6 
ROOT
HETATM    1  C   LIG     1      15.304  32.684  16.552  1.00  0.00     0.165 C 
ENDROOT
BRANCH   1   2
HETATM    2  O   LIG     1      15.685  32.832  15.208  1.00  0.00    -0.391 OA
HETATM    3  H   LIG     1      16.617  32.498  15.132  1.00  0.00     0.210 HD
ENDBRANCH   1   2
BRANCH   1   4
HETATM    4  C   LIG     1      14.934  34.058  17.129  1.00  0.00     0.198 C 
BRANCH   4   5
HETATM    5  O   LIG     1      15.309  34.159  18.478  1.00  0.00    -0.398 OA
HETATM    6  H   LIG     1      14.952  33.354  18.935  1.00  0.00     0.209 HD
ENDBRANCH   4   5
ENDBRANCH   1   4
BRANCH   1   7
HETATM    7  C   LIG     1      14.129  31.698  16.665  1.00  0.00     0.198 C 
BRANCH   7   8
HETATM    8  O   LIG     1      13.452  31.880  17.879  1.00  0.00    -0.398 OA
HETATM    9  H   LIG     1      13.334  30.978  18.280  1.00  0.00     0.209 HD
ENDBRANCH   7   8
ENDBRANCH   1   7
TORSDOF 5
ENDMDL
MODEL 18
REMARK VINA RESULT:      -3.2      8.507      9.227
REMARK  5 active torsions:
REMARK  status: ('A' for Active; 'I' for Inactive)
REMARK    1  A    between atoms: O_1  and  C_2 
REMARK    2  A    between atoms: C_2  and  C_5 
REMARK    3  A    between atoms: C_2  and  C_3 
REMARK    4  A    between atoms: C_3  and  O_4 
REMARK    5  A    between atoms: C_5  and  O_6 
ROOT
HETATM    1  C   LIG     1      16.430  37.761  23.159  1.00  0.00     0.165 C 
ENDROOT
BRANCH   1   2
HETATM    2  O   LIG     1      15.121  38.091  23.548  1.00  0.00    -0.391 OA
HETATM    3  H   LIG     1      14.972  37.683  24.441  1.00  0.00     0.210 HD
ENDBRANCH   1   2
BRANCH   1   4
HETATM    4  C   LIG     1      16.391  36.532  22.239  1.00  0.00     0.198 C 
BRANCH   4   5
HETATM    5  O   LIG     1      17.283  36.674  21.165  1.00  0.00    -0.398 OA
HETATM    6  H   LIG     1      18.196  36.560  21.534  1.00  0.00     0.209 HD
ENDBRANCH   4   5
ENDBRANCH   1   4
BRANCH   1   7
HETATM    7  C   LIG     1      17.094  38.958  22.460  1.00  0.00     0.198 C 
BRANCH   7   8
HETATM    8  O   LIG     1      18.489  38.884  22.578  1.00  0.00    -0.398 OA
HETATM    9  H   LIG     1      18.814  39.812  22.723  1.00  0.00     0.209 HD
ENDBRANCH   7   8
ENDBRANCH   1   7
TORSDOF 5
ENDMDL
MODEL 19
REMARK VINA RESULT:      -3.1     10.231     10.930
REMARK  5 active torsions:
REMARK  status: ('A' for Active; 'I' for Inactive)
REMARK    1  A    between atoms: O_1  and  C_2 
REMARK    2  A    between atoms: C_2  and  C_5 
REMARK    3  A    between atoms: C_2  and  C_3 
REMARK    4  A    between atoms: C_3  and  O_4 
REMARK    5  A    between atoms: C_5  and  O_6 
ROOT
HETATM    1  C   LIG     1      13.860  31.614  17.041  1.00  0.00     0.165 C 
ENDROOT
BRANCH   1   2
HETATM    2  O   LIG     1      12.559  32.107  17.234  1.00  0.00    -0.391 OA
HETATM    3  H   LIG     1      11.962  31.319  17.332  1.00  0.00     0.210 HD
ENDBRANCH   1   2
BRANCH   1   4
HETATM    4  C   LIG     1      13.890  30.740  15.779  1.00  0.00     0.198 C 
BRANCH   4   5
HETATM    5  O   LIG     1      12.640  30.147  15.543  1.00  0.00    -0.398 OA
HETATM    6  H   LIG     1      12.207  30.030  16.428  1.00  0.00     0.209 HD
ENDBRANCH   4   5
ENDBRANCH   1   4
BRANCH   1   7
HETATM    7  C   LIG     1      14.858  32.778  16.935  1.00  0.00     0.198 C 
BRANCH   7   8
HETATM    8  O   LIG     1      14.189  34.007  17.015  1.00  0.00    -0.398 OA
HETATM    9  H   LIG     1      14.885  34.715  16.991  1.00  0.00     0.209 HD
ENDBRANCH   7   8
ENDBRANCH   1   7
TORSDOF 5
ENDMDL
MODEL 20
REMARK VINA RESULT:      -3.1      8.023      8.619
REMARK  5 active torsions:
REMARK  status: ('A' for Active; 'I' for Inactive)
REMARK    1  A    between atoms: O_1  and  C_2 
REMARK    2  A    between atoms: C_2  and  C_5 
REMARK    3  A    between atoms: C_2  and  C_3 
REMARK    4  A    between atoms: C_3  and  O_4 
REMARK    5  A    between atoms: C_5  and  O_6 
ROOT
HETATM    1  C   LIG     1      17.131  37.988  23.899  1.00  0.00     0.165 C 
ENDROOT
BRANCH   1   2
HETATM    2  O   LIG     1      18.236  38.598  23.282  1.00  0.00    -0.391 OA
HETATM    3  H   LIG     1      18.523  39.344  23.872  1.00  0.00     0.210 HD
ENDBRANCH   1   2
BRANCH   1   4
HETATM    4  C   LIG     1      16.891  36.611  23.263  1.00  0.00     0.198 C 
BRANCH   4   5
HETATM    5  O   LIG     1      17.259  35.577  24.138  1.00  0.00    -0.398 OA
HETATM    6  H   LIG     1      17.348  34.756  23.588  1.00  0.00     0.209 HD
ENDBRANCH   4   5
ENDBRANCH   1   4
BRANCH   1   7
HETATM    7  C   LIG     1      17.368  37.868  25.413  1.00  0.00     0.198 C 
BRANCH   7   8
HETATM    8  O   LIG     1      18.707  37.546  25.677  1.00  0.00    -0.398 OA
HETATM    9  H   LIG     1      19.079  38.289  26.221  1.00  0.00     0.209 HD
ENDBRANCH   7   8
ENDBRANCH   1   7
TORSDOF 5
ENDMDL
