REMARK  8 active torsions:
REMARK  status: ('A' for Active; 'I' for Inactive)
REMARK    1  A    between atoms: C_2  and  C_3 
REMARK       I    between atoms: C_2  and  N_5 
REMARK    2  A    between atoms: N_5  and  C_6 
REMARK    3  A    between atoms: N_5  and  C_12 
REMARK    4  A    between atoms: C_12  and  C_13 
REMARK    5  A    between atoms: C_13  and  O_14 
REMARK    6  A    between atoms: N_18  and  C_19 
REMARK    7  A    between atoms: C_19  and  C_20 
REMARK    8  A    between atoms: C_20  and  C_21 
ROOT
HETATM    1  C   LIG     1      -0.769   0.270   0.041  1.00  0.00     0.065 C 
HETATM    2  C   LIG     1      -0.150   1.640  -0.365  1.00  0.00     0.064 C 
HETATM    3  C   LIG     1       1.397   1.643  -0.443  1.00  0.00     0.275 C 
HETATM    4  N   LIG     1       1.999   0.393   0.070  1.00  0.00     0.088 N 
HETATM    5  C   LIG     1       1.460   0.100   1.411  1.00  0.00     0.275 C 
HETATM    6  C   LIG     1      -0.047  -0.228   1.349  1.00  0.00     0.064 C 
ENDROOT
BRANCH   1   7
HETATM    7  N   LIG     1      -2.241   0.458   0.288  1.00  0.00    -0.306 N 
HETATM    8  C   LIG     1      -2.743   1.007   1.529  1.00  0.00     0.224 C 
HETATM    9  O   LIG     1      -2.155   1.975   2.081  1.00  0.00    -0.273 OA
BRANCH   8  10
HETATM   10  C   LIG     1      -3.960   0.428   2.194  1.00  0.00     0.099 C 
HETATM   11  C   LIG     1      -3.630  -0.914   2.836  1.00  0.00     0.014 C 
ENDBRANCH   8  10
BRANCH   7  12
HETATM   12  C   LIG     1      -3.174   0.557  -0.808  1.00  0.00     0.038 A 
HETATM   13  C   LIG     1      -4.024  -0.518  -1.118  1.00  0.00     0.030 A 
HETATM   14  C   LIG     1      -4.961  -0.404  -2.149  1.00  0.00     0.002 A 
HETATM   15  C   LIG     1      -5.075   0.792  -2.861  1.00  0.00     0.000 A 
HETATM   16  C   LIG     1      -4.263   1.882  -2.533  1.00  0.00     0.002 A 
HETATM   17  C   LIG     1      -3.327   1.771  -1.502  1.00  0.00     0.030 A 
ENDBRANCH   7  12
ENDBRANCH   1   7
BRANCH   1  18
HETATM   18  C   LIG     1      -0.529  -0.750  -1.147  1.00  0.00     0.198 C 
BRANCH  18  19
HETATM   19  O   LIG     1      -0.275  -2.078  -0.729  1.00  0.00    -0.393 OA
HETATM   20  C   LIG     1      -1.476  -2.799  -0.592  1.00  0.00     0.201 C 
ENDBRANCH  18  19
ENDBRANCH   1  18
BRANCH   4  21
HETATM   21  C   LIG     1       3.474   0.518   0.104  1.00  0.00     0.277 C 
BRANCH  21  22
HETATM   22  C   LIG     1       4.143  -0.856  -0.017  1.00  0.00     0.076 C 
BRANCH  22  23
HETATM   23  C   LIG     1       5.637  -0.724   0.001  1.00  0.00    -0.016 A 
HETATM   24  C   LIG     1       6.416  -0.076  -0.951  1.00  0.00     0.015 A 
HETATM   25  C   LIG     1       7.783  -0.096  -0.651  1.00  0.00     0.008 A 
HETATM   26  C   LIG     1       8.086  -0.761   0.531  1.00  0.00     0.050 A 
HETATM   27  S   LIG     1       6.650  -1.321   1.204  1.00  0.00    -0.106 SA
ENDBRANCH  22  23
ENDBRANCH  21  22
ENDBRANCH   4  21
TORSDOF 8
