MODEL 1
REMARK VINA RESULT:      -7.7      0.000      0.000
REMARK  8 active torsions:
REMARK  status: ('A' for Active; 'I' for Inactive)
REMARK    1  A    between atoms: C_2  and  C_3 
REMARK       I    between atoms: C_2  and  N_5 
REMARK    2  A    between atoms: N_5  and  C_6 
REMARK    3  A    between atoms: N_5  and  C_12 
REMARK    4  A    between atoms: C_12  and  C_13 
REMARK    5  A    between atoms: C_13  and  O_14 
REMARK    6  A    between atoms: N_18  and  C_19 
REMARK    7  A    between atoms: C_19  and  C_20 
REMARK    8  A    between atoms: C_20  and  C_21 
ROOT
HETATM    1  C   LIG     1      16.669  36.209  21.694  1.00  0.00     0.065 C 
HETATM    2  C   LIG     1      17.218  34.775  21.951  1.00  0.00     0.064 C 
HETATM    3  C   LIG     1      16.698  33.705  20.958  1.00  0.00     0.275 C 
HETATM    4  N   LIG     1      15.628  34.217  20.074  1.00  0.00     0.088 N 
HETATM    5  C   LIG     1      14.576  34.852  20.889  1.00  0.00     0.275 C 
HETATM    6  C   LIG     1      15.100  36.124  21.588  1.00  0.00     0.064 C 
ENDROOT
BRANCH   1   7
HETATM    7  N   LIG     1      17.075  37.095  22.840  1.00  0.00    -0.306 N 
HETATM    8  C   LIG     1      16.739  38.502  22.874  1.00  0.00     0.224 C 
HETATM    9  O   LIG     1      15.604  38.895  22.494  1.00  0.00    -0.273 OA
BRANCH   8  10
HETATM   10  C   LIG     1      17.737  39.524  23.342  1.00  0.00     0.099 C 
HETATM   11  C   LIG     1      18.984  39.493  22.467  1.00  0.00     0.014 C 
ENDBRANCH   8  10
BRANCH   7  12
HETATM   12  C   LIG     1      17.381  36.542  24.137  1.00  0.00     0.038 A 
HETATM   13  C   LIG     1      17.090  35.198  24.425  1.00  0.00     0.030 A 
HETATM   14  C   LIG     1      17.431  34.650  25.665  1.00  0.00     0.002 A 
HETATM   15  C   LIG     1      18.089  35.432  26.617  1.00  0.00     0.000 A 
HETATM   16  C   LIG     1      18.421  36.758  26.326  1.00  0.00     0.002 A 
HETATM   17  C   LIG     1      18.083  37.308  25.087  1.00  0.00     0.030 A 
ENDBRANCH   7  12
ENDBRANCH   1   7
BRANCH   1  18
HETATM   18  C   LIG     1      17.288  36.738  20.335  1.00  0.00     0.198 C 
BRANCH  18  19
HETATM   19  O   LIG     1      18.641  36.373  20.133  1.00  0.00    -0.393 OA
HETATM   20  C   LIG     1      19.333  37.380  19.435  1.00  0.00     0.201 C 
ENDBRANCH  18  19
ENDBRANCH   1  18
BRANCH   4  21
HETATM   21  C   LIG     1      15.076  33.113  19.256  1.00  0.00     0.277 C 
BRANCH  21  22
HETATM   22  C   LIG     1      15.040  33.496  17.772  1.00  0.00     0.076 C 
BRANCH  22  23
HETATM   23  C   LIG     1      14.535  32.355  16.940  1.00  0.00    -0.016 A 
HETATM   24  C   LIG     1      13.349  31.657  17.136  1.00  0.00     0.015 A 
HETATM   25  C   LIG     1      13.134  30.656  16.181  1.00  0.00     0.008 A 
HETATM   26  C   LIG     1      14.148  30.558  15.236  1.00  0.00     0.050 A 
HETATM   27  S   LIG     1      15.311  31.721  15.588  1.00  0.00    -0.106 SA
ENDBRANCH  22  23
ENDBRANCH  21  22
ENDBRANCH   4  21
TORSDOF 8
ENDMDL
MODEL 2
REMARK VINA RESULT:      -6.1     14.999     17.549
REMARK  8 active torsions:
REMARK  status: ('A' for Active; 'I' for Inactive)
REMARK    1  A    between atoms: C_2  and  C_3 
REMARK       I    between atoms: C_2  and  N_5 
REMARK    2  A    between atoms: N_5  and  C_6 
REMARK    3  A    between atoms: N_5  and  C_12 
REMARK    4  A    between atoms: C_12  and  C_13 
REMARK    5  A    between atoms: C_13  and  O_14 
REMARK    6  A    between atoms: N_18  and  C_19 
REMARK    7  A    between atoms: C_19  and  C_20 
REMARK    8  A    between atoms: C_20  and  C_21 
ROOT
HETATM    1  C   LIG     1      25.055  21.770  21.666  1.00  0.00     0.065 C 
HETATM    2  C   LIG     1      26.567  21.979  21.972  1.00  0.00     0.064 C 
HETATM    3  C   LIG     1      26.950  21.780  23.460  1.00  0.00     0.275 C 
HETATM    4  N   LIG     1      25.772  21.617  24.338  1.00  0.00     0.088 N 
HETATM    5  C   LIG     1      24.822  22.720  24.099  1.00  0.00     0.275 C 
HETATM    6  C   LIG     1      24.223  22.644  22.679  1.00  0.00     0.064 C 
ENDROOT
BRANCH   1   7
HETATM    7  N   LIG     1      24.784  22.200  20.250  1.00  0.00    -0.306 N 
HETATM    8  C   LIG     1      23.462  22.116  19.667  1.00  0.00     0.224 C 
HETATM    9  O   LIG     1      22.447  22.430  20.343  1.00  0.00    -0.273 OA
BRANCH   8  10
HETATM   10  C   LIG     1      23.270  21.639  18.255  1.00  0.00     0.099 C 
HETATM   11  C   LIG     1      22.833  20.179  18.239  1.00  0.00     0.014 C 
ENDBRANCH   8  10
BRANCH   7  12
HETATM   12  C   LIG     1      25.659  23.124  19.571  1.00  0.00     0.038 A 
HETATM   13  C   LIG     1      26.552  22.667  18.588  1.00  0.00     0.030 A 
HETATM   14  C   LIG     1      27.366  23.569  17.896  1.00  0.00     0.002 A 
HETATM   15  C   LIG     1      27.275  24.937  18.162  1.00  0.00     0.000 A 
HETATM   16  C   LIG     1      26.360  25.407  19.109  1.00  0.00     0.002 A 
HETATM   17  C   LIG     1      25.545  24.508  19.800  1.00  0.00     0.030 A 
ENDBRANCH   7  12
ENDBRANCH   1   7
BRANCH   1  18
HETATM   18  C   LIG     1      24.722  20.233  21.856  1.00  0.00     0.198 C 
BRANCH  18  19
HETATM   19  O   LIG     1      23.446  19.981  22.413  1.00  0.00    -0.393 OA
HETATM   20  C   LIG     1      22.809  18.917  21.748  1.00  0.00     0.201 C 
ENDBRANCH  18  19
ENDBRANCH   1  18
BRANCH   4  21
HETATM   21  C   LIG     1      26.198  21.579  25.756  1.00  0.00     0.277 C 
BRANCH  21  22
HETATM   22  C   LIG     1      25.269  22.429  26.630  1.00  0.00     0.076 C 
BRANCH  22  23
HETATM   23  C   LIG     1      26.062  23.311  27.549  1.00  0.00    -0.016 A 
HETATM   24  C   LIG     1      26.185  24.692  27.457  1.00  0.00     0.015 A 
HETATM   25  C   LIG     1      26.973  25.244  28.474  1.00  0.00     0.008 A 
HETATM   26  C   LIG     1      27.475  24.303  29.364  1.00  0.00     0.050 A 
HETATM   27  S   LIG     1      26.935  22.783  28.886  1.00  0.00    -0.106 SA
ENDBRANCH  22  23
ENDBRANCH  21  22
ENDBRANCH   4  21
TORSDOF 8
ENDMDL
MODEL 3
REMARK VINA RESULT:      -6.1     15.338     17.142
REMARK  8 active torsions:
REMARK  status: ('A' for Active; 'I' for Inactive)
REMARK    1  A    between atoms: C_2  and  C_3 
REMARK       I    between atoms: C_2  and  N_5 
REMARK    2  A    between atoms: N_5  and  C_6 
REMARK    3  A    between atoms: N_5  and  C_12 
REMARK    4  A    between atoms: C_12  and  C_13 
REMARK    5  A    between atoms: C_13  and  O_14 
REMARK    6  A    between atoms: N_18  and  C_19 
REMARK    7  A    between atoms: C_19  and  C_20 
REMARK    8  A    between atoms: C_20  and  C_21 
ROOT
HETATM    1  C   LIG     1      25.845  22.390  20.483  1.00  0.00     0.065 C 
HETATM    2  C   LIG     1      26.615  21.625  19.366  1.00  0.00     0.064 C 
HETATM    3  C   LIG     1      27.892  22.344  18.865  1.00  0.00     0.275 C 
HETATM    4  N   LIG     1      28.032  23.712  19.411  1.00  0.00     0.088 N 
HETATM    5  C   LIG     1      26.784  24.463  19.182  1.00  0.00     0.275 C 
HETATM    6  C   LIG     1      25.615  23.870  19.997  1.00  0.00     0.064 C 
ENDROOT
BRANCH   1   7
HETATM    7  N   LIG     1      24.529  21.701  20.722  1.00  0.00    -0.306 N 
HETATM    8  C   LIG     1      23.563  22.209  21.673  1.00  0.00     0.224 C 
HETATM    9  O   LIG     1      23.347  23.447  21.761  1.00  0.00    -0.273 OA
BRANCH   8  10
HETATM   10  C   LIG     1      22.812  21.279  22.583  1.00  0.00     0.099 C 
HETATM   11  C   LIG     1      23.756  20.650  23.601  1.00  0.00     0.014 C 
ENDBRANCH   8  10
BRANCH   7  12
HETATM   12  C   LIG     1      23.959  20.818  19.734  1.00  0.00     0.038 A 
HETATM   13  C   LIG     1      24.094  19.426  19.862  1.00  0.00     0.030 A 
HETATM   14  C   LIG     1      23.501  18.569  18.930  1.00  0.00     0.002 A 
HETATM   15  C   LIG     1      22.746  19.095  17.879  1.00  0.00     0.000 A 
HETATM   16  C   LIG     1      22.571  20.477  17.766  1.00  0.00     0.002 A 
HETATM   17  C   LIG     1      23.161  21.335  18.697  1.00  0.00     0.030 A 
ENDBRANCH   7  12
ENDBRANCH   1   7
BRANCH   1  18
HETATM   18  C   LIG     1      26.732  22.369  21.795  1.00  0.00     0.198 C 
BRANCH  18  19
HETATM   19  O   LIG     1      26.621  23.535  22.589  1.00  0.00    -0.393 OA
HETATM   20  C   LIG     1      26.756  23.226  23.956  1.00  0.00     0.201 C 
ENDBRANCH  18  19
ENDBRANCH   1  18
BRANCH   4  21
HETATM   21  C   LIG     1      29.187  24.392  18.783  1.00  0.00     0.277 C 
BRANCH  21  22
HETATM   22  C   LIG     1      28.752  25.695  18.102  1.00  0.00     0.076 C 
BRANCH  22  23
HETATM   23  C   LIG     1      29.078  25.666  16.639  1.00  0.00    -0.016 A 
HETATM   24  C   LIG     1      29.527  26.738  15.876  1.00  0.00     0.015 A 
HETATM   25  C   LIG     1      29.772  26.399  14.540  1.00  0.00     0.008 A 
HETATM   26  C   LIG     1      29.512  25.066  14.245  1.00  0.00     0.050 A 
HETATM   27  S   LIG     1      28.982  24.309  15.649  1.00  0.00    -0.106 SA
ENDBRANCH  22  23
ENDBRANCH  21  22
ENDBRANCH   4  21
TORSDOF 8
ENDMDL
MODEL 4
REMARK VINA RESULT:      -6.0     15.244     17.367
REMARK  8 active torsions:
REMARK  status: ('A' for Active; 'I' for Inactive)
REMARK    1  A    between atoms: C_2  and  C_3 
REMARK       I    between atoms: C_2  and  N_5 
REMARK    2  A    between atoms: N_5  and  C_6 
REMARK    3  A    between atoms: N_5  and  C_12 
REMARK    4  A    between atoms: C_12  and  C_13 
REMARK    5  A    between atoms: C_13  and  O_14 
REMARK    6  A    between atoms: N_18  and  C_19 
REMARK    7  A    between atoms: C_19  and  C_20 
REMARK    8  A    between atoms: C_20  and  C_21 
ROOT
HETATM    1  C   LIG     1      24.656  21.609  21.733  1.00  0.00     0.065 C 
HETATM    2  C   LIG     1      26.171  21.363  21.996  1.00  0.00     0.064 C 
HETATM    3  C   LIG     1      26.536  21.175  23.490  1.00  0.00     0.275 C 
HETATM    4  N   LIG     1      25.403  21.457  24.397  1.00  0.00     0.088 N 
HETATM    5  C   LIG     1      24.828  22.776  24.075  1.00  0.00     0.275 C 
HETATM    6  C   LIG     1      24.175  22.775  22.676  1.00  0.00     0.064 C 
ENDROOT
BRANCH   1   7
HETATM    7  N   LIG     1      24.470  21.986  20.289  1.00  0.00    -0.306 N 
HETATM    8  C   LIG     1      23.159  22.053  19.679  1.00  0.00     0.224 C 
HETATM    9  O   LIG     1      22.188  22.546  20.312  1.00  0.00    -0.273 OA
BRANCH   8  10
HETATM   10  C   LIG     1      22.924  21.523  18.293  1.00  0.00     0.099 C 
HETATM   11  C   LIG     1      22.956  19.999  18.291  1.00  0.00     0.014 C 
ENDBRANCH   8  10
BRANCH   7  12
HETATM   12  C   LIG     1      25.478  22.735  19.579  1.00  0.00     0.038 A 
HETATM   13  C   LIG     1      26.321  22.096  18.655  1.00  0.00     0.030 A 
HETATM   14  C   LIG     1      27.265  22.832  17.932  1.00  0.00     0.002 A 
HETATM   15  C   LIG     1      27.356  24.214  18.106  1.00  0.00     0.000 A 
HETATM   16  C   LIG     1      26.493  24.867  18.992  1.00  0.00     0.002 A 
HETATM   17  C   LIG     1      25.548  24.134  19.714  1.00  0.00     0.030 A 
ENDBRANCH   7  12
ENDBRANCH   1   7
BRANCH   1  18
HETATM   18  C   LIG     1      23.875  20.271  22.065  1.00  0.00     0.198 C 
BRANCH  18  19
HETATM   19  O   LIG     1      22.658  20.467  22.762  1.00  0.00    -0.393 OA
HETATM   20  C   LIG     1      22.464  19.460  23.725  1.00  0.00     0.201 C 
ENDBRANCH  18  19
ENDBRANCH   1  18
BRANCH   4  21
HETATM   21  C   LIG     1      25.856  21.402  25.806  1.00  0.00     0.277 C 
BRANCH  21  22
HETATM   22  C   LIG     1      24.855  22.104  26.730  1.00  0.00     0.076 C 
BRANCH  22  23
HETATM   23  C   LIG     1      23.738  21.177  27.108  1.00  0.00    -0.016 A 
HETATM   24  C   LIG     1      22.394  21.513  27.223  1.00  0.00     0.015 A 
HETATM   25  C   LIG     1      21.581  20.427  27.567  1.00  0.00     0.008 A 
HETATM   26  C   LIG     1      22.279  19.236  27.729  1.00  0.00     0.050 A 
HETATM   27  S   LIG     1      23.909  19.537  27.440  1.00  0.00    -0.106 SA
ENDBRANCH  22  23
ENDBRANCH  21  22
ENDBRANCH   4  21
TORSDOF 8
ENDMDL
MODEL 5
REMARK VINA RESULT:      -5.9     16.643     18.626
REMARK  8 active torsions:
REMARK  status: ('A' for Active; 'I' for Inactive)
REMARK    1  A    between atoms: C_2  and  C_3 
REMARK       I    between atoms: C_2  and  N_5 
REMARK    2  A    between atoms: N_5  and  C_6 
REMARK    3  A    between atoms: N_5  and  C_12 
REMARK    4  A    between atoms: C_12  and  C_13 
REMARK    5  A    between atoms: C_13  and  O_14 
REMARK    6  A    between atoms: N_18  and  C_19 
REMARK    7  A    between atoms: C_19  and  C_20 
REMARK    8  A    between atoms: C_20  and  C_21 
ROOT
HETATM    1  C   LIG     1      28.111  28.416  34.460  1.00  0.00     0.065 C 
HETATM    2  C   LIG     1      28.732  27.058  34.019  1.00  0.00     0.064 C 
HETATM    3  C   LIG     1      28.516  26.712  32.524  1.00  0.00     0.275 C 
HETATM    4  N   LIG     1      27.595  27.651  31.847  1.00  0.00     0.088 N 
HETATM    5  C   LIG     1      26.350  27.770  32.628  1.00  0.00     0.275 C 
HETATM    6  C   LIG     1      26.607  28.444  33.992  1.00  0.00     0.064 C 
ENDROOT
BRANCH   1   7
HETATM    7  N   LIG     1      28.202  28.526  35.957  1.00  0.00    -0.306 N 
HETATM    8  C   LIG     1      29.221  27.831  36.714  1.00  0.00     0.224 C 
HETATM    9  O   LIG     1      30.403  27.768  36.281  1.00  0.00    -0.273 OA
BRANCH   8  10
HETATM   10  C   LIG     1      28.892  27.158  38.017  1.00  0.00     0.099 C 
HETATM   11  C   LIG     1      27.809  26.106  37.815  1.00  0.00     0.014 C 
ENDBRANCH   8  10
BRANCH   7  12
HETATM   12  C   LIG     1      27.624  29.647  36.658  1.00  0.00     0.038 A 
HETATM   13  C   LIG     1      26.324  29.562  37.185  1.00  0.00     0.030 A 
HETATM   14  C   LIG     1      25.782  30.631  37.906  1.00  0.00     0.002 A 
HETATM   15  C   LIG     1      26.543  31.781  38.129  1.00  0.00     0.000 A 
HETATM   16  C   LIG     1      27.852  31.858  37.645  1.00  0.00     0.002 A 
HETATM   17  C   LIG     1      28.396  30.792  36.926  1.00  0.00     0.030 A 
ENDBRANCH   7  12
ENDBRANCH   1   7
BRANCH   1  18
HETATM   18  C   LIG     1      28.929  29.580  33.764  1.00  0.00     0.198 C 
BRANCH  18  19
HETATM   19  O   LIG     1      28.141  30.686  33.367  1.00  0.00    -0.393 OA
HETATM   20  C   LIG     1      28.949  31.727  32.873  1.00  0.00     0.201 C 
ENDBRANCH  18  19
ENDBRANCH   1  18
BRANCH   4  21
HETATM   21  C   LIG     1      27.318  27.183  30.470  1.00  0.00     0.277 C 
BRANCH  21  22
HETATM   22  C   LIG     1      27.247  25.652  30.415  1.00  0.00     0.076 C 
BRANCH  22  23
HETATM   23  C   LIG     1      27.358  25.165  29.001  1.00  0.00    -0.016 A 
HETATM   24  C   LIG     1      26.443  24.355  28.338  1.00  0.00     0.015 A 
HETATM   25  C   LIG     1      26.805  24.085  27.013  1.00  0.00     0.008 A 
HETATM   26  C   LIG     1      28.004  24.674  26.630  1.00  0.00     0.050 A 
HETATM   27  S   LIG     1      28.611  25.535  27.942  1.00  0.00    -0.106 SA
ENDBRANCH  22  23
ENDBRANCH  21  22
ENDBRANCH   4  21
TORSDOF 8
ENDMDL
MODEL 6
REMARK VINA RESULT:      -5.9      3.363      9.346
REMARK  8 active torsions:
REMARK  status: ('A' for Active; 'I' for Inactive)
REMARK    1  A    between atoms: C_2  and  C_3 
REMARK       I    between atoms: C_2  and  N_5 
REMARK    2  A    between atoms: N_5  and  C_6 
REMARK    3  A    between atoms: N_5  and  C_12 
REMARK    4  A    between atoms: C_12  and  C_13 
REMARK    5  A    between atoms: C_13  and  O_14 
REMARK    6  A    between atoms: N_18  and  C_19 
REMARK    7  A    between atoms: C_19  and  C_20 
REMARK    8  A    between atoms: C_20  and  C_21 
ROOT
HETATM    1  C   LIG     1      15.037  32.475  16.835  1.00  0.00     0.065 C 
HETATM    2  C   LIG     1      15.816  31.656  17.906  1.00  0.00     0.064 C 
HETATM    3  C   LIG     1      15.708  32.221  19.345  1.00  0.00     0.275 C 
HETATM    4  N   LIG     1      15.042  33.540  19.393  1.00  0.00     0.088 N 
HETATM    5  C   LIG     1      15.685  34.453  18.430  1.00  0.00     0.275 C 
HETATM    6  C   LIG     1      15.451  33.988  16.977  1.00  0.00     0.064 C 
ENDROOT
BRANCH   1   7
HETATM    7  N   LIG     1      15.397  31.954  15.471  1.00  0.00    -0.306 N 
HETATM    8  C   LIG     1      16.601  32.373  14.786  1.00  0.00     0.224 C 
HETATM    9  O   LIG     1      17.681  32.506  15.421  1.00  0.00    -0.273 OA
BRANCH   8  10
HETATM   10  C   LIG     1      16.587  32.674  13.314  1.00  0.00     0.099 C 
HETATM   11  C   LIG     1      17.807  33.502  12.927  1.00  0.00     0.014 C 
ENDBRANCH   8  10
BRANCH   7  12
HETATM   12  C   LIG     1      14.858  30.707  14.983  1.00  0.00     0.038 A 
HETATM   13  C   LIG     1      13.472  30.480  14.992  1.00  0.00     0.030 A 
HETATM   14  C   LIG     1      12.947  29.292  14.475  1.00  0.00     0.002 A 
HETATM   15  C   LIG     1      13.798  28.334  13.922  1.00  0.00     0.000 A 
HETATM   16  C   LIG     1      15.176  28.568  13.871  1.00  0.00     0.002 A 
HETATM   17  C   LIG     1      15.703  29.755  14.385  1.00  0.00     0.030 A 
ENDBRANCH   7  12
ENDBRANCH   1   7
BRANCH   1  18
HETATM   18  C   LIG     1      13.488  32.297  17.110  1.00  0.00     0.198 C 
BRANCH  18  19
HETATM   19  O   LIG     1      12.696  33.397  16.703  1.00  0.00    -0.393 OA
HETATM   20  C   LIG     1      11.332  33.051  16.676  1.00  0.00     0.201 C 
ENDBRANCH  18  19
ENDBRANCH   1  18
BRANCH   4  21
HETATM   21  C   LIG     1      15.102  34.088  20.768  1.00  0.00     0.277 C 
BRANCH  21  22
HETATM   22  C   LIG     1      15.542  35.556  20.754  1.00  0.00     0.076 C 
BRANCH  22  23
HETATM   23  C   LIG     1      16.130  35.948  22.077  1.00  0.00    -0.016 A 
HETATM   24  C   LIG     1      16.833  35.118  22.942  1.00  0.00     0.015 A 
HETATM   25  C   LIG     1      17.282  35.774  24.094  1.00  0.00     0.008 A 
HETATM   26  C   LIG     1      16.931  37.118  24.144  1.00  0.00     0.050 A 
HETATM   27  S   LIG     1      16.064  37.488  22.750  1.00  0.00    -0.106 SA
ENDBRANCH  22  23
ENDBRANCH  21  22
ENDBRANCH   4  21
TORSDOF 8
ENDMDL
MODEL 7
REMARK VINA RESULT:      -5.9     18.267     20.044
REMARK  8 active torsions:
REMARK  status: ('A' for Active; 'I' for Inactive)
REMARK    1  A    between atoms: C_2  and  C_3 
REMARK       I    between atoms: C_2  and  N_5 
REMARK    2  A    between atoms: N_5  and  C_6 
REMARK    3  A    between atoms: N_5  and  C_12 
REMARK    4  A    between atoms: C_12  and  C_13 
REMARK    5  A    between atoms: C_13  and  O_14 
REMARK    6  A    between atoms: N_18  and  C_19 
REMARK    7  A    between atoms: C_19  and  C_20 
REMARK    8  A    between atoms: C_20  and  C_21 
ROOT
HETATM    1  C   LIG     1      28.129  27.305  35.084  1.00  0.00     0.065 C 
HETATM    2  C   LIG     1      27.733  27.133  36.581  1.00  0.00     0.064 C 
HETATM    3  C   LIG     1      27.325  25.691  36.971  1.00  0.00     0.275 C 
HETATM    4  N   LIG     1      27.206  24.792  35.802  1.00  0.00     0.088 N 
HETATM    5  C   LIG     1      26.335  25.415  34.788  1.00  0.00     0.275 C 
HETATM    6  C   LIG     1      26.983  26.686  34.198  1.00  0.00     0.064 C 
ENDROOT
BRANCH   1   7
HETATM    7  N   LIG     1      28.290  28.771  34.791  1.00  0.00    -0.306 N 
HETATM    8  C   LIG     1      28.679  29.250  33.483  1.00  0.00     0.224 C 
HETATM    9  O   LIG     1      28.201  28.722  32.443  1.00  0.00    -0.273 OA
BRANCH   8  10
HETATM   10  C   LIG     1      29.670  30.370  33.332  1.00  0.00     0.099 C 
HETATM   11  C   LIG     1      28.982  31.625  32.808  1.00  0.00     0.014 C 
ENDBRANCH   8  10
BRANCH   7  12
HETATM   12  C   LIG     1      27.637  29.770  35.603  1.00  0.00     0.038 A 
HETATM   13  C   LIG     1      28.315  30.367  36.678  1.00  0.00     0.030 A 
HETATM   14  C   LIG     1      27.699  31.369  37.434  1.00  0.00     0.002 A 
HETATM   15  C   LIG     1      26.412  31.801  37.106  1.00  0.00     0.000 A 
HETATM   16  C   LIG     1      25.745  31.242  36.011  1.00  0.00     0.002 A 
HETATM   17  C   LIG     1      26.359  30.242  35.254  1.00  0.00     0.030 A 
ENDBRANCH   7  12
ENDBRANCH   1   7
BRANCH   1  18
HETATM   18  C   LIG     1      29.492  26.535  34.845  1.00  0.00     0.198 C 
BRANCH  18  19
HETATM   19  O   LIG     1      29.560  25.846  33.610  1.00  0.00    -0.393 OA
HETATM   20  C   LIG     1      30.684  26.257  32.868  1.00  0.00     0.201 C 
ENDBRANCH  18  19
ENDBRANCH   1  18
BRANCH   4  21
HETATM   21  C   LIG     1      26.675  23.477  36.226  1.00  0.00     0.277 C 
BRANCH  21  22
HETATM   22  C   LIG     1      25.646  23.639  37.351  1.00  0.00     0.076 C 
BRANCH  22  23
HETATM   23  C   LIG     1      24.321  23.063  36.948  1.00  0.00    -0.016 A 
HETATM   24  C   LIG     1      23.121  23.204  37.635  1.00  0.00     0.015 A 
HETATM   25  C   LIG     1      22.045  22.573  37.000  1.00  0.00     0.008 A 
HETATM   26  C   LIG     1      22.392  21.932  35.817  1.00  0.00     0.050 A 
HETATM   27  S   LIG     1      24.039  22.153  35.561  1.00  0.00    -0.106 SA
ENDBRANCH  22  23
ENDBRANCH  21  22
ENDBRANCH   4  21
TORSDOF 8
ENDMDL
MODEL 8
REMARK VINA RESULT:      -5.8     15.235     17.422
REMARK  8 active torsions:
REMARK  status: ('A' for Active; 'I' for Inactive)
REMARK    1  A    between atoms: C_2  and  C_3 
REMARK       I    between atoms: C_2  and  N_5 
REMARK    2  A    between atoms: N_5  and  C_6 
REMARK    3  A    between atoms: N_5  and  C_12 
REMARK    4  A    between atoms: C_12  and  C_13 
REMARK    5  A    between atoms: C_13  and  O_14 
REMARK    6  A    between atoms: N_18  and  C_19 
REMARK    7  A    between atoms: C_19  and  C_20 
REMARK    8  A    between atoms: C_20  and  C_21 
ROOT
HETATM    1  C   LIG     1      25.216  21.765  22.333  1.00  0.00     0.065 C 
HETATM    2  C   LIG     1      25.038  22.897  23.387  1.00  0.00     0.064 C 
HETATM    3  C   LIG     1      24.757  22.392  24.824  1.00  0.00     0.275 C 
HETATM    4  N   LIG     1      24.522  20.933  24.883  1.00  0.00     0.088 N 
HETATM    5  C   LIG     1      23.491  20.559  23.896  1.00  0.00     0.275 C 
HETATM    6  C   LIG     1      23.991  20.783  22.453  1.00  0.00     0.064 C 
ENDROOT
BRANCH   1   7
HETATM    7  N   LIG     1      25.266  22.383  20.962  1.00  0.00    -0.306 N 
HETATM    8  C   LIG     1      26.250  23.385  20.612  1.00  0.00     0.224 C 
HETATM    9  O   LIG     1      27.442  23.271  21.003  1.00  0.00    -0.273 OA
BRANCH   8  10
HETATM   10  C   LIG     1      25.871  24.587  19.793  1.00  0.00     0.099 C 
HETATM   11  C   LIG     1      26.445  24.476  18.385  1.00  0.00     0.014 C 
ENDBRANCH   8  10
BRANCH   7  12
HETATM   12  C   LIG     1      24.690  21.715  19.821  1.00  0.00     0.038 A 
HETATM   13  C   LIG     1      25.445  20.787  19.084  1.00  0.00     0.030 A 
HETATM   14  C   LIG     1      24.871  20.104  18.008  1.00  0.00     0.002 A 
HETATM   15  C   LIG     1      23.531  20.321  17.676  1.00  0.00     0.000 A 
HETATM   16  C   LIG     1      22.759  21.211  18.430  1.00  0.00     0.002 A 
HETATM   17  C   LIG     1      23.331  21.893  19.506  1.00  0.00     0.030 A 
ENDBRANCH   7  12
ENDBRANCH   1   7
BRANCH   1  18
HETATM   18  C   LIG     1      26.569  21.005  22.651  1.00  0.00     0.198 C 
BRANCH  18  19
HETATM   19  O   LIG     1      26.586  19.652  22.235  1.00  0.00    -0.393 OA
HETATM   20  C   LIG     1      27.792  19.344  21.579  1.00  0.00     0.201 C 
ENDBRANCH  18  19
ENDBRANCH   1  18
BRANCH   4  21
HETATM   21  C   LIG     1      24.116  20.540  26.252  1.00  0.00     0.277 C 
BRANCH  21  22
HETATM   22  C   LIG     1      23.302  21.652  26.922  1.00  0.00     0.076 C 
BRANCH  22  23
HETATM   23  C   LIG     1      21.961  21.140  27.359  1.00  0.00    -0.016 A 
HETATM   24  C   LIG     1      20.940  21.893  27.927  1.00  0.00     0.015 A 
HETATM   25  C   LIG     1      19.793  21.143  28.209  1.00  0.00     0.008 A 
HETATM   26  C   LIG     1      19.907  19.800  27.870  1.00  0.00     0.050 A 
HETATM   27  S   LIG     1      21.436  19.549  27.216  1.00  0.00    -0.106 SA
ENDBRANCH  22  23
ENDBRANCH  21  22
ENDBRANCH   4  21
TORSDOF 8
ENDMDL
MODEL 9
REMARK VINA RESULT:      -5.8     15.331     17.663
REMARK  8 active torsions:
REMARK  status: ('A' for Active; 'I' for Inactive)
REMARK    1  A    between atoms: C_2  and  C_3 
REMARK       I    between atoms: C_2  and  N_5 
REMARK    2  A    between atoms: N_5  and  C_6 
REMARK    3  A    between atoms: N_5  and  C_12 
REMARK    4  A    between atoms: C_12  and  C_13 
REMARK    5  A    between atoms: C_13  and  O_14 
REMARK    6  A    between atoms: N_18  and  C_19 
REMARK    7  A    between atoms: C_19  and  C_20 
REMARK    8  A    between atoms: C_20  and  C_21 
ROOT
HETATM    1  C   LIG     1      24.728  21.514  21.706  1.00  0.00     0.065 C 
HETATM    2  C   LIG     1      24.510  22.782  22.583  1.00  0.00     0.064 C 
HETATM    3  C   LIG     1      24.491  22.508  24.108  1.00  0.00     0.275 C 
HETATM    4  N   LIG     1      24.493  21.065  24.430  1.00  0.00     0.088 N 
HETATM    5  C   LIG     1      23.418  20.390  23.679  1.00  0.00     0.275 C 
HETATM    6  C   LIG     1      23.694  20.417  22.161  1.00  0.00     0.064 C 
ENDROOT
BRANCH   1   7
HETATM    7  N   LIG     1      24.512  21.880  20.263  1.00  0.00    -0.306 N 
HETATM    8  C   LIG     1      23.186  21.999  19.696  1.00  0.00     0.224 C 
HETATM    9  O   LIG     1      22.259  22.544  20.353  1.00  0.00    -0.273 OA
BRANCH   8  10
HETATM   10  C   LIG     1      22.881  21.463  18.326  1.00  0.00     0.099 C 
HETATM   11  C   LIG     1      22.800  19.941  18.354  1.00  0.00     0.014 C 
ENDBRANCH   8  10
BRANCH   7  12
HETATM   12  C   LIG     1      25.528  22.575  19.510  1.00  0.00     0.038 A 
HETATM   13  C   LIG     1      26.354  21.874  18.615  1.00  0.00     0.030 A 
HETATM   14  C   LIG     1      27.305  22.554  17.850  1.00  0.00     0.002 A 
HETATM   15  C   LIG     1      27.422  23.942  17.953  1.00  0.00     0.000 A 
HETATM   16  C   LIG     1      26.577  24.654  18.809  1.00  0.00     0.002 A 
HETATM   17  C   LIG     1      25.624  23.977  19.573  1.00  0.00     0.030 A 
ENDBRANCH   7  12
ENDBRANCH   1   7
BRANCH   1  18
HETATM   18  C   LIG     1      26.211  21.006  21.936  1.00  0.00     0.198 C 
BRANCH  18  19
HETATM   19  O   LIG     1      27.125  22.026  22.295  1.00  0.00    -0.393 OA
HETATM   20  C   LIG     1      28.404  21.761  21.771  1.00  0.00     0.201 C 
ENDBRANCH  18  19
ENDBRANCH   1  18
BRANCH   4  21
HETATM   21  C   LIG     1      24.326  20.871  25.889  1.00  0.00     0.277 C 
BRANCH  21  22
HETATM   22  C   LIG     1      24.218  22.219  26.611  1.00  0.00     0.076 C 
BRANCH  22  23
HETATM   23  C   LIG     1      25.283  22.348  27.660  1.00  0.00    -0.016 A 
HETATM   24  C   LIG     1      25.595  21.407  28.634  1.00  0.00     0.015 A 
HETATM   25  C   LIG     1      26.656  21.798  29.458  1.00  0.00     0.008 A 
HETATM   26  C   LIG     1      27.179  23.046  29.142  1.00  0.00     0.050 A 
HETATM   27  S   LIG     1      26.321  23.660  27.832  1.00  0.00    -0.106 SA
ENDBRANCH  22  23
ENDBRANCH  21  22
ENDBRANCH   4  21
TORSDOF 8
ENDMDL
MODEL 10
REMARK VINA RESULT:      -5.8     14.927     16.486
REMARK  8 active torsions:
REMARK  status: ('A' for Active; 'I' for Inactive)
REMARK    1  A    between atoms: C_2  and  C_3 
REMARK       I    between atoms: C_2  and  N_5 
REMARK    2  A    between atoms: N_5  and  C_6 
REMARK    3  A    between atoms: N_5  and  C_12 
REMARK    4  A    between atoms: C_12  and  C_13 
REMARK    5  A    between atoms: C_13  and  O_14 
REMARK    6  A    between atoms: N_18  and  C_19 
REMARK    7  A    between atoms: C_19  and  C_20 
REMARK    8  A    between atoms: C_20  and  C_21 
ROOT
HETATM    1  C   LIG     1      27.826  23.862  26.862  1.00  0.00     0.065 C 
HETATM    2  C   LIG     1      27.568  22.327  26.900  1.00  0.00     0.064 C 
HETATM    3  C   LIG     1      26.672  21.801  25.752  1.00  0.00     0.275 C 
HETATM    4  N   LIG     1      26.075  22.890  24.946  1.00  0.00     0.088 N 
HETATM    5  C   LIG     1      25.412  23.857  25.840  1.00  0.00     0.275 C 
HETATM    6  C   LIG     1      26.436  24.591  26.730  1.00  0.00     0.064 C 
ENDROOT
BRANCH   1   7
HETATM    7  N   LIG     1      28.519  24.269  28.134  1.00  0.00    -0.306 N 
HETATM    8  C   LIG     1      29.631  23.516  28.672  1.00  0.00     0.224 C 
HETATM    9  O   LIG     1      30.519  23.056  27.905  1.00  0.00    -0.273 OA
BRANCH   8  10
HETATM   10  C   LIG     1      29.744  23.251  30.147  1.00  0.00     0.099 C 
HETATM   11  C   LIG     1      28.498  22.538  30.658  1.00  0.00     0.014 C 
ENDBRANCH   8  10
BRANCH   7  12
HETATM   12  C   LIG     1      28.449  25.626  28.619  1.00  0.00     0.038 A 
HETATM   13  C   LIG     1      29.341  26.599  28.139  1.00  0.00     0.030 A 
HETATM   14  C   LIG     1      29.243  27.924  28.573  1.00  0.00     0.002 A 
HETATM   15  C   LIG     1      28.238  28.293  29.470  1.00  0.00     0.000 A 
HETATM   16  C   LIG     1      27.319  27.341  29.922  1.00  0.00     0.002 A 
HETATM   17  C   LIG     1      27.415  26.016  29.488  1.00  0.00     0.030 A 
ENDBRANCH   7  12
ENDBRANCH   1   7
BRANCH   1  18
HETATM   18  C   LIG     1      28.738  24.176  25.605  1.00  0.00     0.198 C 
BRANCH  18  19
HETATM   19  O   LIG     1      28.458  25.415  24.981  1.00  0.00    -0.393 OA
HETATM   20  C   LIG     1      28.401  25.270  23.582  1.00  0.00     0.201 C 
ENDBRANCH  18  19
ENDBRANCH   1  18
BRANCH   4  21
HETATM   21  C   LIG     1      25.120  22.328  23.964  1.00  0.00     0.277 C 
BRANCH  21  22
HETATM   22  C   LIG     1      25.577  22.616  22.530  1.00  0.00     0.076 C 
BRANCH  22  23
HETATM   23  C   LIG     1      24.442  22.441  21.565  1.00  0.00    -0.016 A 
HETATM   24  C   LIG     1      23.117  22.804  21.779  1.00  0.00     0.015 A 
HETATM   25  C   LIG     1      22.288  22.539  20.683  1.00  0.00     0.008 A 
HETATM   26  C   LIG     1      22.953  21.964  19.606  1.00  0.00     0.050 A 
HETATM   27  S   LIG     1      24.574  21.789  20.019  1.00  0.00    -0.106 SA
ENDBRANCH  22  23
ENDBRANCH  21  22
ENDBRANCH   4  21
TORSDOF 8
ENDMDL
MODEL 11
REMARK VINA RESULT:      -5.8      1.799      3.972
REMARK  8 active torsions:
REMARK  status: ('A' for Active; 'I' for Inactive)
REMARK    1  A    between atoms: C_2  and  C_3 
REMARK       I    between atoms: C_2  and  N_5 
REMARK    2  A    between atoms: N_5  and  C_6 
REMARK    3  A    between atoms: N_5  and  C_12 
REMARK    4  A    between atoms: C_12  and  C_13 
REMARK    5  A    between atoms: C_13  and  O_14 
REMARK    6  A    between atoms: N_18  and  C_19 
REMARK    7  A    between atoms: C_19  and  C_20 
REMARK    8  A    between atoms: C_20  and  C_21 
ROOT
HETATM    1  C   LIG     1      15.914  35.058  20.885  1.00  0.00     0.065 C 
HETATM    2  C   LIG     1      15.865  35.482  19.388  1.00  0.00     0.064 C 
HETATM    3  C   LIG     1      15.284  34.405  18.438  1.00  0.00     0.275 C 
HETATM    4  N   LIG     1      15.066  33.106  19.111  1.00  0.00     0.088 N 
HETATM    5  C   LIG     1      16.299  32.698  19.809  1.00  0.00     0.275 C 
HETATM    6  C   LIG     1      16.624  33.655  20.976  1.00  0.00     0.064 C 
ENDROOT
BRANCH   1   7
HETATM    7  N   LIG     1      16.687  36.093  21.657  1.00  0.00    -0.306 N 
HETATM    8  C   LIG     1      16.904  35.978  23.082  1.00  0.00     0.224 C 
HETATM    9  O   LIG     1      17.178  34.861  23.597  1.00  0.00    -0.273 OA
BRANCH   8  10
HETATM   10  C   LIG     1      16.791  37.177  23.981  1.00  0.00     0.099 C 
HETATM   11  C   LIG     1      17.668  37.005  25.214  1.00  0.00     0.014 C 
ENDBRANCH   8  10
BRANCH   7  12
HETATM   12  C   LIG     1      17.626  36.966  20.997  1.00  0.00     0.038 A 
HETATM   13  C   LIG     1      17.703  38.324  21.349  1.00  0.00     0.030 A 
HETATM   14  C   LIG     1      18.647  39.160  20.744  1.00  0.00     0.002 A 
HETATM   15  C   LIG     1      19.537  38.641  19.802  1.00  0.00     0.000 A 
HETATM   16  C   LIG     1      19.497  37.282  19.474  1.00  0.00     0.002 A 
HETATM   17  C   LIG     1      18.556  36.445  20.079  1.00  0.00     0.030 A 
ENDBRANCH   7  12
ENDBRANCH   1   7
BRANCH   1  18
HETATM   18  C   LIG     1      14.426  34.961  21.419  1.00  0.00     0.198 C 
BRANCH  18  19
HETATM   19  O   LIG     1      14.211  33.922  22.355  1.00  0.00    -0.393 OA
HETATM   20  C   LIG     1      13.352  32.941  21.827  1.00  0.00     0.201 C 
ENDBRANCH  18  19
ENDBRANCH   1  18
BRANCH   4  21
HETATM   21  C   LIG     1      14.652  32.086  18.120  1.00  0.00     0.277 C 
BRANCH  21  22
HETATM   22  C   LIG     1      14.534  32.699  16.720  1.00  0.00     0.076 C 
BRANCH  22  23
HETATM   23  C   LIG     1      14.646  31.639  15.664  1.00  0.00    -0.016 A 
HETATM   24  C   LIG     1      13.801  30.547  15.504  1.00  0.00     0.015 A 
HETATM   25  C   LIG     1      14.142  29.741  14.411  1.00  0.00     0.008 A 
HETATM   26  C   LIG     1      15.255  30.191  13.712  1.00  0.00     0.050 A 
HETATM   27  S   LIG     1      15.812  31.595  14.453  1.00  0.00    -0.106 SA
ENDBRANCH  22  23
ENDBRANCH  21  22
ENDBRANCH   4  21
TORSDOF 8
ENDMDL
MODEL 12
REMARK VINA RESULT:      -5.7     15.386     17.563
REMARK  8 active torsions:
REMARK  status: ('A' for Active; 'I' for Inactive)
REMARK    1  A    between atoms: C_2  and  C_3 
REMARK       I    between atoms: C_2  and  N_5 
REMARK    2  A    between atoms: N_5  and  C_6 
REMARK    3  A    between atoms: N_5  and  C_12 
REMARK    4  A    between atoms: C_12  and  C_13 
REMARK    5  A    between atoms: C_13  and  O_14 
REMARK    6  A    between atoms: N_18  and  C_19 
REMARK    7  A    between atoms: C_19  and  C_20 
REMARK    8  A    between atoms: C_20  and  C_21 
ROOT
HETATM    1  C   LIG     1      24.641  21.645  22.600  1.00  0.00     0.065 C 
HETATM    2  C   LIG     1      23.251  20.947  22.652  1.00  0.00     0.064 C 
HETATM    3  C   LIG     1      22.957  20.208  23.982  1.00  0.00     0.275 C 
HETATM    4  N   LIG     1      24.135  20.147  24.875  1.00  0.00     0.088 N 
HETATM    5  C   LIG     1      25.292  19.618  24.130  1.00  0.00     0.275 C 
HETATM    6  C   LIG     1      25.736  20.594  23.020  1.00  0.00     0.064 C 
ENDROOT
BRANCH   1   7
HETATM    7  N   LIG     1      24.886  22.133  21.198  1.00  0.00    -0.306 N 
HETATM    8  C   LIG     1      25.968  23.040  20.883  1.00  0.00     0.224 C 
HETATM    9  O   LIG     1      27.098  22.894  21.420  1.00  0.00    -0.273 OA
BRANCH   8  10
HETATM   10  C   LIG     1      25.765  24.183  19.927  1.00  0.00     0.099 C 
HETATM   11  C   LIG     1      26.500  23.921  18.619  1.00  0.00     0.014 C 
ENDBRANCH   8  10
BRANCH   7  12
HETATM   12  C   LIG     1      24.397  21.397  20.057  1.00  0.00     0.038 A 
HETATM   13  C   LIG     1      23.205  21.783  19.420  1.00  0.00     0.030 A 
HETATM   14  C   LIG     1      22.757  21.100  18.286  1.00  0.00     0.002 A 
HETATM   15  C   LIG     1      23.507  20.044  17.763  1.00  0.00     0.000 A 
HETATM   16  C   LIG     1      24.716  19.679  18.365  1.00  0.00     0.002 A 
HETATM   17  C   LIG     1      25.167  20.361  19.497  1.00  0.00     0.030 A 
ENDBRANCH   7  12
ENDBRANCH   1   7
BRANCH   1  18
HETATM   18  C   LIG     1      24.621  22.860  23.617  1.00  0.00     0.198 C 
BRANCH  18  19
HETATM   19  O   LIG     1      25.795  22.982  24.398  1.00  0.00    -0.393 OA
HETATM   20  C   LIG     1      25.507  23.564  25.647  1.00  0.00     0.201 C 
ENDBRANCH  18  19
ENDBRANCH   1  18
BRANCH   4  21
HETATM   21  C   LIG     1      23.831  19.307  26.056  1.00  0.00     0.277 C 
BRANCH  21  22
HETATM   22  C   LIG     1      23.826  20.146  27.339  1.00  0.00     0.076 C 
BRANCH  22  23
HETATM   23  C   LIG     1      22.433  20.287  27.877  1.00  0.00    -0.016 A 
HETATM   24  C   LIG     1      21.518  21.277  27.537  1.00  0.00     0.015 A 
HETATM   25  C   LIG     1      20.286  21.134  28.185  1.00  0.00     0.008 A 
HETATM   26  C   LIG     1      20.227  20.039  29.038  1.00  0.00     0.050 A 
HETATM   27  S   LIG     1      21.709  19.247  28.982  1.00  0.00    -0.106 SA
ENDBRANCH  22  23
ENDBRANCH  21  22
ENDBRANCH   4  21
TORSDOF 8
ENDMDL
MODEL 13
REMARK VINA RESULT:      -5.7     14.928     17.556
REMARK  8 active torsions:
REMARK  status: ('A' for Active; 'I' for Inactive)
REMARK    1  A    between atoms: C_2  and  C_3 
REMARK       I    between atoms: C_2  and  N_5 
REMARK    2  A    between atoms: N_5  and  C_6 
REMARK    3  A    between atoms: N_5  and  C_12 
REMARK    4  A    between atoms: C_12  and  C_13 
REMARK    5  A    between atoms: C_13  and  O_14 
REMARK    6  A    between atoms: N_18  and  C_19 
REMARK    7  A    between atoms: C_19  and  C_20 
REMARK    8  A    between atoms: C_20  and  C_21 
ROOT
HETATM    1  C   LIG     1      26.823  23.296  22.985  1.00  0.00     0.065 C 
HETATM    2  C   LIG     1      27.741  24.497  23.360  1.00  0.00     0.064 C 
HETATM    3  C   LIG     1      28.269  24.467  24.816  1.00  0.00     0.275 C 
HETATM    4  N   LIG     1      27.644  23.401  25.630  1.00  0.00     0.088 N 
HETATM    5  C   LIG     1      26.176  23.492  25.518  1.00  0.00     0.275 C 
HETATM    6  C   LIG     1      25.702  23.171  24.085  1.00  0.00     0.064 C 
ENDROOT
BRANCH   1   7
HETATM    7  N   LIG     1      26.213  23.556  21.635  1.00  0.00    -0.306 N 
HETATM    8  C   LIG     1      26.967  24.162  20.560  1.00  0.00     0.224 C 
HETATM    9  O   LIG     1      28.167  23.834  20.360  1.00  0.00    -0.273 OA
BRANCH   8  10
HETATM   10  C   LIG     1      26.347  25.205  19.673  1.00  0.00     0.099 C 
HETATM   11  C   LIG     1      26.185  24.672  18.255  1.00  0.00     0.014 C 
ENDBRANCH   8  10
BRANCH   7  12
HETATM   12  C   LIG     1      25.055  22.821  21.186  1.00  0.00     0.038 A 
HETATM   13  C   LIG     1      25.206  21.666  20.400  1.00  0.00     0.030 A 
HETATM   14  C   LIG     1      24.086  20.928  20.006  1.00  0.00     0.002 A 
HETATM   15  C   LIG     1      22.810  21.320  20.416  1.00  0.00     0.000 A 
HETATM   16  C   LIG     1      22.652  22.444  21.233  1.00  0.00     0.002 A 
HETATM   17  C   LIG     1      23.770  23.182  21.630  1.00  0.00     0.030 A 
ENDBRANCH   7  12
ENDBRANCH   1   7
BRANCH   1  18
HETATM   18  C   LIG     1      27.714  21.987  22.951  1.00  0.00     0.198 C 
BRANCH  18  19
HETATM   19  O   LIG     1      27.041  20.816  23.374  1.00  0.00    -0.393 OA
HETATM   20  C   LIG     1      27.468  19.697  22.634  1.00  0.00     0.201 C 
ENDBRANCH  18  19
ENDBRANCH   1  18
BRANCH   4  21
HETATM   21  C   LIG     1      28.080  23.520  27.040  1.00  0.00     0.277 C 
BRANCH  21  22
HETATM   22  C   LIG     1      29.076  24.673  27.210  1.00  0.00     0.076 C 
BRANCH  22  23
HETATM   23  C   LIG     1      28.519  25.727  28.120  1.00  0.00    -0.016 A 
HETATM   24  C   LIG     1      27.357  25.628  28.878  1.00  0.00     0.015 A 
HETATM   25  C   LIG     1      27.106  26.767  29.652  1.00  0.00     0.008 A 
HETATM   26  C   LIG     1      28.061  27.765  29.505  1.00  0.00     0.050 A 
HETATM   27  S   LIG     1      29.222  27.227  28.413  1.00  0.00    -0.106 SA
ENDBRANCH  22  23
ENDBRANCH  21  22
ENDBRANCH   4  21
TORSDOF 8
ENDMDL
MODEL 14
REMARK VINA RESULT:      -5.6     15.244     16.956
REMARK  8 active torsions:
REMARK  status: ('A' for Active; 'I' for Inactive)
REMARK    1  A    between atoms: C_2  and  C_3 
REMARK       I    between atoms: C_2  and  N_5 
REMARK    2  A    between atoms: N_5  and  C_6 
REMARK    3  A    between atoms: N_5  and  C_12 
REMARK    4  A    between atoms: C_12  and  C_13 
REMARK    5  A    between atoms: C_13  and  O_14 
REMARK    6  A    between atoms: N_18  and  C_19 
REMARK    7  A    between atoms: C_19  and  C_20 
REMARK    8  A    between atoms: C_20  and  C_21 
ROOT
HETATM    1  C   LIG     1      27.523  23.470  27.558  1.00  0.00     0.065 C 
HETATM    2  C   LIG     1      26.327  24.340  27.069  1.00  0.00     0.064 C 
HETATM    3  C   LIG     1      25.788  23.955  25.669  1.00  0.00     0.275 C 
HETATM    4  N   LIG     1      26.638  22.957  24.983  1.00  0.00     0.088 N 
HETATM    5  C   LIG     1      28.039  23.415  24.988  1.00  0.00     0.275 C 
HETATM    6  C   LIG     1      28.612  23.447  26.421  1.00  0.00     0.064 C 
ENDROOT
BRANCH   1   7
HETATM    7  N   LIG     1      28.082  24.078  28.815  1.00  0.00    -0.306 N 
HETATM    8  C   LIG     1      28.946  23.333  29.705  1.00  0.00     0.224 C 
HETATM    9  O   LIG     1      29.838  22.574  29.239  1.00  0.00    -0.273 OA
BRANCH   8  10
HETATM   10  C   LIG     1      28.789  23.431  31.196  1.00  0.00     0.099 C 
HETATM   11  C   LIG     1      29.987  24.142  31.813  1.00  0.00     0.014 C 
ENDBRANCH   8  10
BRANCH   7  12
HETATM   12  C   LIG     1      28.191  25.509  28.966  1.00  0.00     0.038 A 
HETATM   13  C   LIG     1      27.287  26.209  29.782  1.00  0.00     0.030 A 
HETATM   14  C   LIG     1      27.423  27.588  29.967  1.00  0.00     0.002 A 
HETATM   15  C   LIG     1      28.477  28.274  29.360  1.00  0.00     0.000 A 
HETATM   16  C   LIG     1      29.407  27.580  28.580  1.00  0.00     0.002 A 
HETATM   17  C   LIG     1      29.274  26.202  28.395  1.00  0.00     0.030 A 
ENDBRANCH   7  12
ENDBRANCH   1   7
BRANCH   1  18
HETATM   18  C   LIG     1      26.984  22.007  27.838  1.00  0.00     0.198 C 
BRANCH  18  19
HETATM   19  O   LIG     1      25.828  21.961  28.653  1.00  0.00    -0.393 OA
HETATM   20  C   LIG     1      25.849  20.829  29.490  1.00  0.00     0.201 C 
ENDBRANCH  18  19
ENDBRANCH   1  18
BRANCH   4  21
HETATM   21  C   LIG     1      26.152  22.744  23.600  1.00  0.00     0.277 C 
BRANCH  21  22
HETATM   22  C   LIG     1      24.654  22.419  23.590  1.00  0.00     0.076 C 
BRANCH  22  23
HETATM   23  C   LIG     1      24.159  22.229  22.187  1.00  0.00    -0.016 A 
HETATM   24  C   LIG     1      22.859  22.433  21.739  1.00  0.00     0.015 A 
HETATM   25  C   LIG     1      22.705  22.198  20.368  1.00  0.00     0.008 A 
HETATM   26  C   LIG     1      23.877  21.806  19.733  1.00  0.00     0.050 A 
HETATM   27  S   LIG     1      25.107  21.755  20.880  1.00  0.00    -0.106 SA
ENDBRANCH  22  23
ENDBRANCH  21  22
ENDBRANCH   4  21
TORSDOF 8
ENDMDL
MODEL 15
REMARK VINA RESULT:      -5.5     15.528     17.767
REMARK  8 active torsions:
REMARK  status: ('A' for Active; 'I' for Inactive)
REMARK    1  A    between atoms: C_2  and  C_3 
REMARK       I    between atoms: C_2  and  N_5 
REMARK    2  A    between atoms: N_5  and  C_6 
REMARK    3  A    between atoms: N_5  and  C_12 
REMARK    4  A    between atoms: C_12  and  C_13 
REMARK    5  A    between atoms: C_13  and  O_14 
REMARK    6  A    between atoms: N_18  and  C_19 
REMARK    7  A    between atoms: C_19  and  C_20 
REMARK    8  A    between atoms: C_20  and  C_21 
ROOT
HETATM    1  C   LIG     1      26.399  22.543  21.397  1.00  0.00     0.065 C 
HETATM    2  C   LIG     1      24.952  22.689  21.956  1.00  0.00     0.064 C 
HETATM    3  C   LIG     1      24.868  22.755  23.501  1.00  0.00     0.275 C 
HETATM    4  N   LIG     1      26.164  22.474  24.158  1.00  0.00     0.088 N 
HETATM    5  C   LIG     1      26.719  21.212  23.634  1.00  0.00     0.275 C 
HETATM    6  C   LIG     1      27.095  21.343  22.142  1.00  0.00     0.064 C 
ENDROOT
BRANCH   1   7
HETATM    7  N   LIG     1      26.322  22.276  19.919  1.00  0.00    -0.306 N 
HETATM    8  C   LIG     1      27.502  22.273  19.082  1.00  0.00     0.224 C 
HETATM    9  O   LIG     1      28.573  21.750  19.491  1.00  0.00    -0.273 OA
BRANCH   8  10
HETATM   10  C   LIG     1      27.485  22.907  17.719  1.00  0.00     0.099 C 
HETATM   11  C   LIG     1      27.144  24.389  17.823  1.00  0.00     0.014 C 
ENDBRANCH   8  10
BRANCH   7  12
HETATM   12  C   LIG     1      25.205  21.565  19.347  1.00  0.00     0.038 A 
HETATM   13  C   LIG     1      25.142  20.163  19.417  1.00  0.00     0.030 A 
HETATM   14  C   LIG     1      24.037  19.478  18.906  1.00  0.00     0.002 A 
HETATM   15  C   LIG     1      22.974  20.188  18.343  1.00  0.00     0.000 A 
HETATM   16  C   LIG     1      23.007  21.585  18.305  1.00  0.00     0.002 A 
HETATM   17  C   LIG     1      24.110  22.272  18.818  1.00  0.00     0.030 A 
ENDBRANCH   7  12
ENDBRANCH   1   7
BRANCH   1  18
HETATM   18  C   LIG     1      27.174  23.896  21.680  1.00  0.00     0.198 C 
BRANCH  18  19
HETATM   19  O   LIG     1      28.511  23.719  22.109  1.00  0.00    -0.393 OA
HETATM   20  C   LIG     1      29.370  24.624  21.457  1.00  0.00     0.201 C 
ENDBRANCH  18  19
ENDBRANCH   1  18
BRANCH   4  21
HETATM   21  C   LIG     1      25.983  22.408  25.626  1.00  0.00     0.277 C 
BRANCH  21  22
HETATM   22  C   LIG     1      25.478  23.746  26.176  1.00  0.00     0.076 C 
BRANCH  22  23
HETATM   23  C   LIG     1      26.587  24.494  26.856  1.00  0.00    -0.016 A 
HETATM   24  C   LIG     1      26.577  24.967  28.164  1.00  0.00     0.015 A 
HETATM   25  C   LIG     1      27.768  25.607  28.527  1.00  0.00     0.008 A 
HETATM   26  C   LIG     1      28.714  25.645  27.510  1.00  0.00     0.050 A 
HETATM   27  S   LIG     1      28.069  24.878  26.159  1.00  0.00    -0.106 SA
ENDBRANCH  22  23
ENDBRANCH  21  22
ENDBRANCH   4  21
TORSDOF 8
ENDMDL
MODEL 16
REMARK VINA RESULT:      -5.4     15.141     17.841
REMARK  8 active torsions:
REMARK  status: ('A' for Active; 'I' for Inactive)
REMARK    1  A    between atoms: C_2  and  C_3 
REMARK       I    between atoms: C_2  and  N_5 
REMARK    2  A    between atoms: N_5  and  C_6 
REMARK    3  A    between atoms: N_5  and  C_12 
REMARK    4  A    between atoms: C_12  and  C_13 
REMARK    5  A    between atoms: C_13  and  O_14 
REMARK    6  A    between atoms: N_18  and  C_19 
REMARK    7  A    between atoms: C_19  and  C_20 
REMARK    8  A    between atoms: C_20  and  C_21 
ROOT
HETATM    1  C   LIG     1      26.848  22.920  24.511  1.00  0.00     0.065 C 
HETATM    2  C   LIG     1      25.627  23.502  25.282  1.00  0.00     0.064 C 
HETATM    3  C   LIG     1      25.847  23.650  26.808  1.00  0.00     0.275 C 
HETATM    4  N   LIG     1      27.109  23.031  27.268  1.00  0.00     0.088 N 
HETATM    5  C   LIG     1      27.185  21.642  26.776  1.00  0.00     0.275 C 
HETATM    6  C   LIG     1      27.305  21.599  25.238  1.00  0.00     0.064 C 
ENDROOT
BRANCH   1   7
HETATM    7  N   LIG     1      26.433  22.628  23.095  1.00  0.00    -0.306 N 
HETATM    8  C   LIG     1      27.403  22.390  22.048  1.00  0.00     0.224 C 
HETATM    9  O   LIG     1      28.429  21.695  22.277  1.00  0.00    -0.273 OA
BRANCH   8  10
HETATM   10  C   LIG     1      27.221  22.977  20.677  1.00  0.00     0.099 C 
HETATM   11  C   LIG     1      27.193  24.499  20.747  1.00  0.00     0.014 C 
ENDBRANCH   8  10
BRANCH   7  12
HETATM   12  C   LIG     1      25.119  22.112  22.795  1.00  0.00     0.038 A 
HETATM   13  C   LIG     1      24.163  22.926  22.164  1.00  0.00     0.030 A 
HETATM   14  C   LIG     1      22.907  22.411  21.829  1.00  0.00     0.002 A 
HETATM   15  C   LIG     1      22.605  21.074  22.098  1.00  0.00     0.000 A 
HETATM   16  C   LIG     1      23.564  20.245  22.688  1.00  0.00     0.002 A 
HETATM   17  C   LIG     1      24.821  20.757  23.021  1.00  0.00     0.030 A 
ENDBRANCH   7  12
ENDBRANCH   1   7
BRANCH   1  18
HETATM   18  C   LIG     1      28.008  23.998  24.541  1.00  0.00     0.198 C 
BRANCH  18  19
HETATM   19  O   LIG     1      27.567  25.330  24.357  1.00  0.00    -0.393 OA
HETATM   20  C   LIG     1      28.587  26.124  23.801  1.00  0.00     0.201 C 
ENDBRANCH  18  19
ENDBRANCH   1  18
BRANCH   4  21
HETATM   21  C   LIG     1      27.188  23.078  28.745  1.00  0.00     0.277 C 
BRANCH  21  22
HETATM   22  C   LIG     1      28.490  23.744  29.204  1.00  0.00     0.076 C 
BRANCH  22  23
HETATM   23  C   LIG     1      28.338  25.235  29.252  1.00  0.00    -0.016 A 
HETATM   24  C   LIG     1      27.199  25.932  29.641  1.00  0.00     0.015 A 
HETATM   25  C   LIG     1      27.365  27.321  29.608  1.00  0.00     0.008 A 
HETATM   26  C   LIG     1      28.628  27.723  29.190  1.00  0.00     0.050 A 
HETATM   27  S   LIG     1      29.539  26.347  28.866  1.00  0.00    -0.106 SA
ENDBRANCH  22  23
ENDBRANCH  21  22
ENDBRANCH   4  21
TORSDOF 8
ENDMDL
MODEL 17
REMARK VINA RESULT:      -5.4     15.574     16.771
REMARK  8 active torsions:
REMARK  status: ('A' for Active; 'I' for Inactive)
REMARK    1  A    between atoms: C_2  and  C_3 
REMARK       I    between atoms: C_2  and  N_5 
REMARK    2  A    between atoms: N_5  and  C_6 
REMARK    3  A    between atoms: N_5  and  C_12 
REMARK    4  A    between atoms: C_12  and  C_13 
REMARK    5  A    between atoms: C_13  and  O_14 
REMARK    6  A    between atoms: N_18  and  C_19 
REMARK    7  A    between atoms: C_19  and  C_20 
REMARK    8  A    between atoms: C_20  and  C_21 
ROOT
HETATM    1  C   LIG     1      25.579  22.280  25.332  1.00  0.00     0.065 C 
HETATM    2  C   LIG     1      25.275  23.031  24.002  1.00  0.00     0.064 C 
HETATM    3  C   LIG     1      24.193  22.358  23.122  1.00  0.00     0.275 C 
HETATM    4  N   LIG     1      23.792  21.026  23.625  1.00  0.00     0.088 N 
HETATM    5  C   LIG     1      24.993  20.200  23.847  1.00  0.00     0.275 C 
HETATM    6  C   LIG     1      25.860  20.769  24.991  1.00  0.00     0.064 C 
ENDROOT
BRANCH   1   7
HETATM    7  N   LIG     1      26.782  22.909  25.980  1.00  0.00    -0.306 N 
HETATM    8  C   LIG     1      27.293  22.448  27.252  1.00  0.00     0.224 C 
HETATM    9  O   LIG     1      27.345  21.215  27.508  1.00  0.00    -0.273 OA
BRANCH   8  10
HETATM   10  C   LIG     1      27.755  23.422  28.299  1.00  0.00     0.099 C 
HETATM   11  C   LIG     1      26.648  24.415  28.630  1.00  0.00     0.014 C 
ENDBRANCH   8  10
BRANCH   7  12
HETATM   12  C   LIG     1      27.747  23.646  25.201  1.00  0.00     0.038 A 
HETATM   13  C   LIG     1      27.627  25.038  25.051  1.00  0.00     0.030 A 
HETATM   14  C   LIG     1      28.589  25.758  24.337  1.00  0.00     0.002 A 
HETATM   15  C   LIG     1      29.692  25.099  23.790  1.00  0.00     0.000 A 
HETATM   16  C   LIG     1      29.843  23.721  23.969  1.00  0.00     0.002 A 
HETATM   17  C   LIG     1      28.884  22.999  24.684  1.00  0.00     0.030 A 
ENDBRANCH   7  12
ENDBRANCH   1   7
BRANCH   1  18
HETATM   18  C   LIG     1      24.309  22.409  26.271  1.00  0.00     0.198 C 
BRANCH  18  19
HETATM   19  O   LIG     1      24.031  21.249  27.033  1.00  0.00    -0.393 OA
HETATM   20  C   LIG     1      22.651  20.973  27.039  1.00  0.00     0.201 C 
ENDBRANCH  18  19
ENDBRANCH   1  18
BRANCH   4  21
HETATM   21  C   LIG     1      22.869  20.378  22.665  1.00  0.00     0.277 C 
BRANCH  21  22
HETATM   22  C   LIG     1      23.645  19.548  21.636  1.00  0.00     0.076 C 
BRANCH  22  23
HETATM   23  C   LIG     1      23.302  19.976  20.240  1.00  0.00    -0.016 A 
HETATM   24  C   LIG     1      23.232  21.285  19.776  1.00  0.00     0.015 A 
HETATM   25  C   LIG     1      22.913  21.371  18.416  1.00  0.00     0.008 A 
HETATM   26  C   LIG     1      22.726  20.137  17.806  1.00  0.00     0.050 A 
HETATM   27  S   LIG     1      22.962  18.937  18.961  1.00  0.00    -0.106 SA
ENDBRANCH  22  23
ENDBRANCH  21  22
ENDBRANCH   4  21
TORSDOF 8
ENDMDL
MODEL 18
REMARK VINA RESULT:      -5.2     15.682     16.933
REMARK  8 active torsions:
REMARK  status: ('A' for Active; 'I' for Inactive)
REMARK    1  A    between atoms: C_2  and  C_3 
REMARK       I    between atoms: C_2  and  N_5 
REMARK    2  A    between atoms: N_5  and  C_6 
REMARK    3  A    between atoms: N_5  and  C_12 
REMARK    4  A    between atoms: C_12  and  C_13 
REMARK    5  A    between atoms: C_13  and  O_14 
REMARK    6  A    between atoms: N_18  and  C_19 
REMARK    7  A    between atoms: C_19  and  C_20 
REMARK    8  A    between atoms: C_20  and  C_21 
ROOT
HETATM    1  C   LIG     1      26.100  22.062  25.093  1.00  0.00     0.065 C 
HETATM    2  C   LIG     1      25.912  20.599  24.594  1.00  0.00     0.064 C 
HETATM    3  C   LIG     1      26.049  20.425  23.061  1.00  0.00     0.275 C 
HETATM    4  N   LIG     1      26.142  21.715  22.344  1.00  0.00     0.088 N 
HETATM    5  C   LIG     1      25.031  22.591  22.758  1.00  0.00     0.275 C 
HETATM    6  C   LIG     1      25.160  22.996  24.241  1.00  0.00     0.064 C 
ENDROOT
BRANCH   1   7
HETATM    7  N   LIG     1      25.732  22.128  26.550  1.00  0.00    -0.306 N 
HETATM    8  C   LIG     1      26.116  23.246  27.384  1.00  0.00     0.224 C 
HETATM    9  O   LIG     1      26.053  24.423  26.940  1.00  0.00    -0.273 OA
BRANCH   8  10
HETATM   10  C   LIG     1      26.611  23.029  28.787  1.00  0.00     0.099 C 
HETATM   11  C   LIG     1      27.895  22.209  28.778  1.00  0.00     0.014 C 
ENDBRANCH   8  10
BRANCH   7  12
HETATM   12  C   LIG     1      24.623  21.369  27.074  1.00  0.00     0.038 A 
HETATM   13  C   LIG     1      24.850  20.221  27.851  1.00  0.00     0.030 A 
HETATM   14  C   LIG     1      23.776  19.513  28.399  1.00  0.00     0.002 A 
HETATM   15  C   LIG     1      22.469  19.960  28.196  1.00  0.00     0.000 A 
HETATM   16  C   LIG     1      22.233  21.124  27.459  1.00  0.00     0.002 A 
HETATM   17  C   LIG     1      23.305  21.834  26.912  1.00  0.00     0.030 A 
ENDBRANCH   7  12
ENDBRANCH   1   7
BRANCH   1  18
HETATM   18  C   LIG     1      27.617  22.463  24.882  1.00  0.00     0.198 C 
BRANCH  18  19
HETATM   19  O   LIG     1      28.542  21.496  25.342  1.00  0.00    -0.393 OA
HETATM   20  C   LIG     1      29.588  21.322  24.417  1.00  0.00     0.201 C 
ENDBRANCH  18  19
ENDBRANCH   1  18
BRANCH   4  21
HETATM   21  C   LIG     1      26.123  21.485  20.881  1.00  0.00     0.277 C 
BRANCH  21  22
HETATM   22  C   LIG     1      24.950  22.222  20.226  1.00  0.00     0.076 C 
BRANCH  22  23
HETATM   23  C   LIG     1      24.045  21.258  19.518  1.00  0.00    -0.016 A 
HETATM   24  C   LIG     1      23.385  21.483  18.315  1.00  0.00     0.015 A 
HETATM   25  C   LIG     1      22.629  20.385  17.887  1.00  0.00     0.008 A 
HETATM   26  C   LIG     1      22.686  19.297  18.750  1.00  0.00     0.050 A 
HETATM   27  S   LIG     1      23.681  19.702  20.043  1.00  0.00    -0.106 SA
ENDBRANCH  22  23
ENDBRANCH  21  22
ENDBRANCH   4  21
TORSDOF 8
ENDMDL
MODEL 19
REMARK VINA RESULT:      -5.1     15.676     17.398
REMARK  8 active torsions:
REMARK  status: ('A' for Active; 'I' for Inactive)
REMARK    1  A    between atoms: C_2  and  C_3 
REMARK       I    between atoms: C_2  and  N_5 
REMARK    2  A    between atoms: N_5  and  C_6 
REMARK    3  A    between atoms: N_5  and  C_12 
REMARK    4  A    between atoms: C_12  and  C_13 
REMARK    5  A    between atoms: C_13  and  O_14 
REMARK    6  A    between atoms: N_18  and  C_19 
REMARK    7  A    between atoms: C_19  and  C_20 
REMARK    8  A    between atoms: C_20  and  C_21 
ROOT
HETATM    1  C   LIG     1      27.471  23.011  28.523  1.00  0.00     0.065 C 
HETATM    2  C   LIG     1      26.772  21.769  29.151  1.00  0.00     0.064 C 
HETATM    3  C   LIG     1      26.035  20.867  28.130  1.00  0.00     0.275 C 
HETATM    4  N   LIG     1      25.975  21.464  26.777  1.00  0.00     0.088 N 
HETATM    5  C   LIG     1      25.446  22.837  26.867  1.00  0.00     0.275 C 
HETATM    6  C   LIG     1      26.420  23.764  27.624  1.00  0.00     0.064 C 
ENDROOT
BRANCH   1   7
HETATM    7  N   LIG     1      27.957  23.904  29.631  1.00  0.00    -0.306 N 
HETATM    8  C   LIG     1      28.698  23.386  30.761  1.00  0.00     0.224 C 
HETATM    9  O   LIG     1      29.580  22.503  30.593  1.00  0.00    -0.273 OA
BRANCH   8  10
HETATM   10  C   LIG     1      28.422  23.874  32.155  1.00  0.00     0.099 C 
HETATM   11  C   LIG     1      29.603  24.679  32.683  1.00  0.00     0.014 C 
ENDBRANCH   8  10
BRANCH   7  12
HETATM   12  C   LIG     1      28.137  25.321  29.422  1.00  0.00     0.038 A 
HETATM   13  C   LIG     1      27.196  26.238  29.920  1.00  0.00     0.030 A 
HETATM   14  C   LIG     1      27.395  27.612  29.759  1.00  0.00     0.002 A 
HETATM   15  C   LIG     1      28.546  28.082  29.123  1.00  0.00     0.000 A 
HETATM   16  C   LIG     1      29.509  27.179  28.661  1.00  0.00     0.002 A 
HETATM   17  C   LIG     1      29.313  25.806  28.822  1.00  0.00     0.030 A 
ENDBRANCH   7  12
ENDBRANCH   1   7
BRANCH   1  18
HETATM   18  C   LIG     1      28.686  22.500  27.645  1.00  0.00     0.198 C 
BRANCH  18  19
HETATM   19  O   LIG     1      29.006  23.341  26.552  1.00  0.00    -0.393 OA
HETATM   20  C   LIG     1      29.081  22.602  25.356  1.00  0.00     0.201 C 
ENDBRANCH  18  19
ENDBRANCH   1  18
BRANCH   4  21
HETATM   21  C   LIG     1      25.136  20.626  25.891  1.00  0.00     0.277 C 
BRANCH  21  22
HETATM   22  C   LIG     1      23.884  21.388  25.440  1.00  0.00     0.076 C 
BRANCH  22  23
HETATM   23  C   LIG     1      23.808  21.448  23.944  1.00  0.00    -0.016 A 
HETATM   24  C   LIG     1      22.968  20.694  23.133  1.00  0.00     0.015 A 
HETATM   25  C   LIG     1      23.105  20.988  21.771  1.00  0.00     0.008 A 
HETATM   26  C   LIG     1      24.053  21.968  21.504  1.00  0.00     0.050 A 
HETATM   27  S   LIG     1      24.718  22.470  22.965  1.00  0.00    -0.106 SA
ENDBRANCH  22  23
ENDBRANCH  21  22
ENDBRANCH   4  21
TORSDOF 8
ENDMDL
MODEL 20
REMARK VINA RESULT:      -5.0     15.486     17.082
REMARK  8 active torsions:
REMARK  status: ('A' for Active; 'I' for Inactive)
REMARK    1  A    between atoms: C_2  and  C_3 
REMARK       I    between atoms: C_2  and  N_5 
REMARK    2  A    between atoms: N_5  and  C_6 
REMARK    3  A    between atoms: N_5  and  C_12 
REMARK    4  A    between atoms: C_12  and  C_13 
REMARK    5  A    between atoms: C_13  and  O_14 
REMARK    6  A    between atoms: N_18  and  C_19 
REMARK    7  A    between atoms: C_19  and  C_20 
REMARK    8  A    between atoms: C_20  and  C_21 
ROOT
HETATM    1  C   LIG     1      26.013  21.988  25.250  1.00  0.00     0.065 C 
HETATM    2  C   LIG     1      25.952  20.598  24.552  1.00  0.00     0.064 C 
HETATM    3  C   LIG     1      26.127  20.648  23.013  1.00  0.00     0.275 C 
HETATM    4  N   LIG     1      26.127  22.028  22.481  1.00  0.00     0.088 N 
HETATM    5  C   LIG     1      24.941  22.749  22.981  1.00  0.00     0.275 C 
HETATM    6  C   LIG     1      25.014  22.955  24.509  1.00  0.00     0.064 C 
ENDROOT
BRANCH   1   7
HETATM    7  N   LIG     1      25.618  21.824  26.692  1.00  0.00    -0.306 N 
HETATM    8  C   LIG     1      26.062  22.746  27.715  1.00  0.00     0.224 C 
HETATM    9  O   LIG     1      26.094  23.984  27.486  1.00  0.00    -0.273 OA
BRANCH   8  10
HETATM   10  C   LIG     1      26.509  22.249  29.061  1.00  0.00     0.099 C 
HETATM   11  C   LIG     1      27.900  21.633  28.968  1.00  0.00     0.014 C 
ENDBRANCH   8  10
BRANCH   7  12
HETATM   12  C   LIG     1      24.446  21.068  27.063  1.00  0.00     0.038 A 
HETATM   13  C   LIG     1      24.568  19.747  27.524  1.00  0.00     0.030 A 
HETATM   14  C   LIG     1      23.437  19.032  27.928  1.00  0.00     0.002 A 
HETATM   15  C   LIG     1      22.179  19.639  27.900  1.00  0.00     0.000 A 
HETATM   16  C   LIG     1      22.052  20.967  27.483  1.00  0.00     0.002 A 
HETATM   17  C   LIG     1      23.181  21.684  27.080  1.00  0.00     0.030 A 
ENDBRANCH   7  12
ENDBRANCH   1   7
BRANCH   1  18
HETATM   18  C   LIG     1      27.496  22.532  25.136  1.00  0.00     0.198 C 
BRANCH  18  19
HETATM   19  O   LIG     1      28.492  21.560  25.398  1.00  0.00    -0.393 OA
HETATM   20  C   LIG     1      29.543  21.657  24.468  1.00  0.00     0.201 C 
ENDBRANCH  18  19
ENDBRANCH   1  18
BRANCH   4  21
HETATM   21  C   LIG     1      26.149  22.000  21.001  1.00  0.00     0.277 C 
BRANCH  21  22
HETATM   22  C   LIG     1      25.402  23.206  20.420  1.00  0.00     0.076 C 
BRANCH  22  23
HETATM   23  C   LIG     1      26.366  24.211  19.861  1.00  0.00    -0.016 A 
HETATM   24  C   LIG     1      27.171  25.074  20.596  1.00  0.00     0.015 A 
HETATM   25  C   LIG     1      27.987  25.881  19.796  1.00  0.00     0.008 A 
HETATM   26  C   LIG     1      27.826  25.662  18.433  1.00  0.00     0.050 A 
HETATM   27  S   LIG     1      26.669  24.460  18.225  1.00  0.00    -0.106 SA
ENDBRANCH  22  23
ENDBRANCH  21  22
ENDBRANCH   4  21
TORSDOF 8
ENDMDL
