MODEL 1
REMARK VINA RESULT:      -9.1      0.000      0.000
REMARK  7 active torsions:
REMARK  status: ('A' for Active; 'I' for Inactive)
REMARK    1  A    between atoms: C_2  and  C_3 
REMARK    2  A    between atoms: C_3  and  C_11 
REMARK    3  A    between atoms: C_3  and  C_4 
REMARK    4  A    between atoms: C_7  and  O_10 
REMARK    5  A    between atoms: C_11  and  C_19 
REMARK    6  A    between atoms: C_11  and  C_12 
REMARK    7  A    between atoms: C_15  and  O_16 
ROOT
HETATM    1  C   LIG     1      16.990  35.837  21.275  1.00  0.00     0.027 C 
ENDROOT
BRANCH   1   2
HETATM    2  C   LIG     1      16.119  35.256  20.121  1.00  0.00     0.005 C 
HETATM    3  C   LIG     1      15.656  33.818  20.374  1.00  0.00     0.006 C 
ENDBRANCH   1   2
BRANCH   1   4
HETATM    4  C   LIG     1      16.123  36.241  22.527  1.00  0.00     0.027 C 
BRANCH   4   5
HETATM    5  C   LIG     1      15.279  37.540  22.297  1.00  0.00     0.005 C 
HETATM    6  C   LIG     1      15.958  38.794  22.847  1.00  0.00     0.006 C 
ENDBRANCH   4   5
BRANCH   4   7
HETATM    7  C   LIG     1      16.866  36.271  23.873  1.00  0.00    -0.053 A 
HETATM    8  C   LIG     1      17.207  35.043  24.479  1.00  0.00     0.010 A 
HETATM    9  C   LIG     1      17.900  35.006  25.692  1.00  0.00     0.037 A 
HETATM   10  C   LIG     1      18.289  36.196  26.316  1.00  0.00     0.065 A 
HETATM   11  C   LIG     1      17.991  37.419  25.715  1.00  0.00     0.037 A 
HETATM   12  C   LIG     1      17.299  37.461  24.501  1.00  0.00     0.010 A 
BRANCH  10  13
HETATM   13  O   LIG     1      18.978  36.172  27.525  1.00  0.00    -0.361 OA
HETATM   14  H   LIG     1      18.914  36.937  28.187  1.00  0.00     0.217 HD
ENDBRANCH  10  13
ENDBRANCH   4   7
ENDBRANCH   1   4
BRANCH   1  15
HETATM   15  C   LIG     1      17.949  36.905  20.722  1.00  0.00    -0.053 A 
HETATM   16  C   LIG     1      18.315  38.077  21.424  1.00  0.00     0.010 A 
HETATM   17  C   LIG     1      19.212  38.993  20.867  1.00  0.00     0.037 A 
HETATM   18  C   LIG     1      19.779  38.754  19.611  1.00  0.00     0.065 A 
HETATM   19  C   LIG     1      19.453  37.588  18.920  1.00  0.00     0.037 A 
HETATM   20  C   LIG     1      18.559  36.668  19.472  1.00  0.00     0.010 A 
BRANCH  18  21
HETATM   21  O   LIG     1      20.673  39.663  19.049  1.00  0.00    -0.361 OA
HETATM   22  H   LIG     1      20.959  40.500  19.544  1.00  0.00     0.217 HD
ENDBRANCH  18  21
ENDBRANCH   1  15
TORSDOF 7
ENDMDL
MODEL 2
REMARK VINA RESULT:      -9.0      2.401      5.028
REMARK  7 active torsions:
REMARK  status: ('A' for Active; 'I' for Inactive)
REMARK    1  A    between atoms: C_2  and  C_3 
REMARK    2  A    between atoms: C_3  and  C_11 
REMARK    3  A    between atoms: C_3  and  C_4 
REMARK    4  A    between atoms: C_7  and  O_10 
REMARK    5  A    between atoms: C_11  and  C_19 
REMARK    6  A    between atoms: C_11  and  C_12 
REMARK    7  A    between atoms: C_15  and  O_16 
ROOT
HETATM    1  C   LIG     1      16.307  37.071  21.728  1.00  0.00     0.027 C 
ENDROOT
BRANCH   1   2
HETATM    2  C   LIG     1      16.063  37.873  23.042  1.00  0.00     0.005 C 
HETATM    3  C   LIG     1      17.348  38.163  23.823  1.00  0.00     0.006 C 
ENDBRANCH   1   2
BRANCH   1   4
HETATM    4  C   LIG     1      16.204  35.515  21.955  1.00  0.00     0.027 C 
BRANCH   4   5
HETATM    5  C   LIG     1      17.427  34.927  22.736  1.00  0.00     0.005 C 
HETATM    6  C   LIG     1      17.183  34.839  24.243  1.00  0.00     0.006 C 
ENDBRANCH   4   5
BRANCH   4   7
HETATM    7  C   LIG     1      15.863  34.680  20.710  1.00  0.00    -0.053 A 
HETATM    8  C   LIG     1      15.712  33.285  20.858  1.00  0.00     0.010 A 
HETATM    9  C   LIG     1      15.383  32.476  19.767  1.00  0.00     0.037 A 
HETATM   10  C   LIG     1      15.174  33.045  18.508  1.00  0.00     0.065 A 
HETATM   11  C   LIG     1      15.286  34.426  18.348  1.00  0.00     0.037 A 
HETATM   12  C   LIG     1      15.615  35.240  19.436  1.00  0.00     0.010 A 
BRANCH  10  13
HETATM   13  O   LIG     1      14.848  32.249  17.412  1.00  0.00    -0.361 OA
HETATM   14  H   LIG     1      15.563  31.856  16.812  1.00  0.00     0.217 HD
ENDBRANCH  10  13
ENDBRANCH   4   7
ENDBRANCH   1   4
BRANCH   1  15
HETATM   15  C   LIG     1      17.574  37.587  21.025  1.00  0.00    -0.053 A 
HETATM   16  C   LIG     1      18.394  36.792  20.191  1.00  0.00     0.010 A 
HETATM   17  C   LIG     1      19.519  37.337  19.565  1.00  0.00     0.037 A 
HETATM   18  C   LIG     1      19.842  38.686  19.740  1.00  0.00     0.065 A 
HETATM   19  C   LIG     1      19.026  39.492  20.534  1.00  0.00     0.037 A 
HETATM   20  C   LIG     1      17.900  38.953  21.160  1.00  0.00     0.010 A 
BRANCH  18  21
HETATM   21  O   LIG     1      20.962  39.236  19.121  1.00  0.00    -0.361 OA
HETATM   22  H   LIG     1      21.792  38.684  18.941  1.00  0.00     0.217 HD
ENDBRANCH  18  21
ENDBRANCH   1  15
TORSDOF 7
ENDMDL
MODEL 3
REMARK VINA RESULT:      -8.9      0.750      5.812
REMARK  7 active torsions:
REMARK  status: ('A' for Active; 'I' for Inactive)
REMARK    1  A    between atoms: C_2  and  C_3 
REMARK    2  A    between atoms: C_3  and  C_11 
REMARK    3  A    between atoms: C_3  and  C_4 
REMARK    4  A    between atoms: C_7  and  O_10 
REMARK    5  A    between atoms: C_11  and  C_19 
REMARK    6  A    between atoms: C_11  and  C_12 
REMARK    7  A    between atoms: C_15  and  O_16 
ROOT
HETATM    1  C   LIG     1      16.395  37.145  22.724  1.00  0.00     0.027 C 
ENDROOT
BRANCH   1   2
HETATM    2  C   LIG     1      14.847  37.007  22.842  1.00  0.00     0.005 C 
HETATM    3  C   LIG     1      14.213  36.251  21.671  1.00  0.00     0.006 C 
ENDBRANCH   1   2
BRANCH   1   4
HETATM    4  C   LIG     1      16.946  36.514  21.389  1.00  0.00     0.027 C 
BRANCH   4   5
HETATM    5  C   LIG     1      17.334  35.004  21.539  1.00  0.00     0.005 C 
HETATM    6  C   LIG     1      16.331  34.063  20.872  1.00  0.00     0.006 C 
ENDBRANCH   4   5
BRANCH   4   7
HETATM    7  C   LIG     1      18.041  37.320  20.672  1.00  0.00    -0.053 A 
HETATM    8  C   LIG     1      18.212  38.676  21.018  1.00  0.00     0.010 A 
HETATM    9  C   LIG     1      19.204  39.455  20.415  1.00  0.00     0.037 A 
HETATM   10  C   LIG     1      20.063  38.888  19.469  1.00  0.00     0.065 A 
HETATM   11  C   LIG     1      19.932  37.540  19.138  1.00  0.00     0.037 A 
HETATM   12  C   LIG     1      18.942  36.757  19.739  1.00  0.00     0.010 A 
BRANCH  10  13
HETATM   13  O   LIG     1      21.054  39.654  18.859  1.00  0.00    -0.361 OA
HETATM   14  H   LIG     1      21.190  39.642  17.855  1.00  0.00     0.217 HD
ENDBRANCH  10  13
ENDBRANCH   4   7
ENDBRANCH   1   4
BRANCH   1  15
HETATM   15  C   LIG     1      17.064  36.693  24.033  1.00  0.00    -0.053 A 
HETATM   16  C   LIG     1      17.041  35.363  24.513  1.00  0.00     0.010 A 
HETATM   17  C   LIG     1      17.693  35.020  25.701  1.00  0.00     0.037 A 
HETATM   18  C   LIG     1      18.396  35.987  26.427  1.00  0.00     0.065 A 
HETATM   19  C   LIG     1      18.455  37.297  25.951  1.00  0.00     0.037 A 
HETATM   20  C   LIG     1      17.807  37.644  24.763  1.00  0.00     0.010 A 
BRANCH  18  21
HETATM   21  O   LIG     1      19.046  35.654  27.613  1.00  0.00    -0.361 OA
HETATM   22  H   LIG     1      18.645  34.995  28.270  1.00  0.00     0.217 HD
ENDBRANCH  18  21
ENDBRANCH   1  15
TORSDOF 7
ENDMDL
MODEL 4
REMARK VINA RESULT:      -8.8      2.423      5.603
REMARK  7 active torsions:
REMARK  status: ('A' for Active; 'I' for Inactive)
REMARK    1  A    between atoms: C_2  and  C_3 
REMARK    2  A    between atoms: C_3  and  C_11 
REMARK    3  A    between atoms: C_3  and  C_4 
REMARK    4  A    between atoms: C_7  and  O_10 
REMARK    5  A    between atoms: C_11  and  C_19 
REMARK    6  A    between atoms: C_11  and  C_12 
REMARK    7  A    between atoms: C_15  and  O_16 
ROOT
HETATM    1  C   LIG     1      15.730  35.260  21.718  1.00  0.00     0.027 C 
ENDROOT
BRANCH   1   2
HETATM    2  C   LIG     1      14.772  36.486  21.631  1.00  0.00     0.005 C 
HETATM    3  C   LIG     1      14.838  37.397  22.861  1.00  0.00     0.006 C 
ENDBRANCH   1   2
BRANCH   1   4
HETATM    4  C   LIG     1      17.192  35.679  22.131  1.00  0.00     0.027 C 
BRANCH   4   5
HETATM    5  C   LIG     1      17.314  36.078  23.640  1.00  0.00     0.005 C 
HETATM    6  C   LIG     1      17.266  34.873  24.579  1.00  0.00     0.006 C 
ENDBRANCH   4   5
BRANCH   4   7
HETATM    7  C   LIG     1      17.879  36.700  21.210  1.00  0.00    -0.053 A 
HETATM    8  C   LIG     1      17.972  38.039  21.643  1.00  0.00     0.010 A 
HETATM    9  C   LIG     1      18.602  39.009  20.858  1.00  0.00     0.037 A 
HETATM   10  C   LIG     1      19.176  38.657  19.633  1.00  0.00     0.065 A 
HETATM   11  C   LIG     1      19.125  37.331  19.202  1.00  0.00     0.037 A 
HETATM   12  C   LIG     1      18.496  36.357  19.984  1.00  0.00     0.010 A 
BRANCH  10  13
HETATM   13  O   LIG     1      19.805  39.615  18.841  1.00  0.00    -0.361 OA
HETATM   14  H   LIG     1      20.374  40.348  19.249  1.00  0.00     0.217 HD
ENDBRANCH  10  13
ENDBRANCH   4   7
ENDBRANCH   1   4
BRANCH   1  15
HETATM   15  C   LIG     1      15.587  34.393  20.455  1.00  0.00    -0.053 A 
HETATM   16  C   LIG     1      15.526  32.980  20.471  1.00  0.00     0.010 A 
HETATM   17  C   LIG     1      15.371  32.257  19.285  1.00  0.00     0.037 A 
HETATM   18  C   LIG     1      15.255  32.924  18.061  1.00  0.00     0.065 A 
HETATM   19  C   LIG     1      15.282  34.318  18.031  1.00  0.00     0.037 A 
HETATM   20  C   LIG     1      15.435  35.045  19.214  1.00  0.00     0.010 A 
BRANCH  18  21
HETATM   21  O   LIG     1      15.103  32.211  16.874  1.00  0.00    -0.361 OA
HETATM   22  H   LIG     1      14.730  32.648  16.038  1.00  0.00     0.217 HD
ENDBRANCH  18  21
ENDBRANCH   1  15
TORSDOF 7
ENDMDL
MODEL 5
REMARK VINA RESULT:      -8.6      0.792      2.197
REMARK  7 active torsions:
REMARK  status: ('A' for Active; 'I' for Inactive)
REMARK    1  A    between atoms: C_2  and  C_3 
REMARK    2  A    between atoms: C_3  and  C_11 
REMARK    3  A    between atoms: C_3  and  C_4 
REMARK    4  A    between atoms: C_7  and  O_10 
REMARK    5  A    between atoms: C_11  and  C_19 
REMARK    6  A    between atoms: C_11  and  C_12 
REMARK    7  A    between atoms: C_15  and  O_16 
ROOT
HETATM    1  C   LIG     1      16.714  36.904  21.561  1.00  0.00     0.027 C 
ENDROOT
BRANCH   1   2
HETATM    2  C   LIG     1      15.982  37.980  22.419  1.00  0.00     0.005 C 
HETATM    3  C   LIG     1      14.620  37.515  22.943  1.00  0.00     0.006 C 
ENDBRANCH   1   2
BRANCH   1   4
HETATM    4  C   LIG     1      17.018  35.595  22.383  1.00  0.00     0.027 C 
BRANCH   4   5
HETATM    5  C   LIG     1      15.907  34.502  22.231  1.00  0.00     0.005 C 
HETATM    6  C   LIG     1      15.442  34.325  20.785  1.00  0.00     0.006 C 
ENDBRANCH   4   5
BRANCH   4   7
HETATM    7  C   LIG     1      17.415  35.807  23.853  1.00  0.00    -0.053 A 
HETATM    8  C   LIG     1      17.309  34.717  24.741  1.00  0.00     0.010 A 
HETATM    9  C   LIG     1      17.674  34.844  26.085  1.00  0.00     0.037 A 
HETATM   10  C   LIG     1      18.176  36.056  26.565  1.00  0.00     0.065 A 
HETATM   11  C   LIG     1      18.321  37.137  25.695  1.00  0.00     0.037 A 
HETATM   12  C   LIG     1      17.958  37.015  24.350  1.00  0.00     0.010 A 
BRANCH  10  13
HETATM   13  O   LIG     1      18.542  36.195  27.902  1.00  0.00    -0.361 OA
HETATM   14  H   LIG     1      18.472  37.086  28.380  1.00  0.00     0.217 HD
ENDBRANCH  10  13
ENDBRANCH   4   7
ENDBRANCH   1   4
BRANCH   1  15
HETATM   15  C   LIG     1      17.897  37.545  20.815  1.00  0.00    -0.053 A 
HETATM   16  C   LIG     1      18.708  36.857  19.882  1.00  0.00     0.010 A 
HETATM   17  C   LIG     1      19.752  37.512  19.223  1.00  0.00     0.037 A 
HETATM   18  C   LIG     1      20.001  38.867  19.463  1.00  0.00     0.065 A 
HETATM   19  C   LIG     1      19.192  39.568  20.356  1.00  0.00     0.037 A 
HETATM   20  C   LIG     1      18.145  38.919  21.016  1.00  0.00     0.010 A 
BRANCH  18  21
HETATM   21  O   LIG     1      21.041  39.526  18.812  1.00  0.00    -0.361 OA
HETATM   22  H   LIG     1      20.865  40.291  18.170  1.00  0.00     0.217 HD
ENDBRANCH  18  21
ENDBRANCH   1  15
TORSDOF 7
ENDMDL
MODEL 6
REMARK VINA RESULT:      -8.5      2.471      5.537
REMARK  7 active torsions:
REMARK  status: ('A' for Active; 'I' for Inactive)
REMARK    1  A    between atoms: C_2  and  C_3 
REMARK    2  A    between atoms: C_3  and  C_11 
REMARK    3  A    between atoms: C_3  and  C_4 
REMARK    4  A    between atoms: C_7  and  O_10 
REMARK    5  A    between atoms: C_11  and  C_19 
REMARK    6  A    between atoms: C_11  and  C_12 
REMARK    7  A    between atoms: C_15  and  O_16 
ROOT
HETATM    1  C   LIG     1      17.049  35.156  21.913  1.00  0.00     0.027 C 
ENDROOT
BRANCH   1   2
HETATM    2  C   LIG     1      16.620  34.468  23.244  1.00  0.00     0.005 C 
HETATM    3  C   LIG     1      17.285  35.075  24.483  1.00  0.00     0.006 C 
ENDBRANCH   1   2
BRANCH   1   4
HETATM    4  C   LIG     1      17.037  36.728  22.027  1.00  0.00     0.027 C 
BRANCH   4   5
HETATM    5  C   LIG     1      15.597  37.338  21.961  1.00  0.00     0.005 C 
HETATM    6  C   LIG     1      15.253  38.185  23.186  1.00  0.00     0.006 C 
ENDBRANCH   4   5
BRANCH   4   7
HETATM    7  C   LIG     1      18.018  37.471  21.105  1.00  0.00    -0.053 A 
HETATM    8  C   LIG     1      18.246  38.843  21.335  1.00  0.00     0.010 A 
HETATM    9  C   LIG     1      19.141  39.568  20.542  1.00  0.00     0.037 A 
HETATM   10  C   LIG     1      19.846  38.931  19.516  1.00  0.00     0.065 A 
HETATM   11  C   LIG     1      19.659  37.567  19.295  1.00  0.00     0.037 A 
HETATM   12  C   LIG     1      18.766  36.837  20.085  1.00  0.00     0.010 A 
BRANCH  10  13
HETATM   13  O   LIG     1      20.739  39.643  18.719  1.00  0.00    -0.361 OA
HETATM   14  H   LIG     1      20.479  40.522  18.287  1.00  0.00     0.217 HD
ENDBRANCH  10  13
ENDBRANCH   4   7
ENDBRANCH   1   4
BRANCH   1  15
HETATM   15  C   LIG     1      16.277  34.541  20.733  1.00  0.00    -0.053 A 
HETATM   16  C   LIG     1      15.939  35.247  19.555  1.00  0.00     0.010 A 
HETATM   17  C   LIG     1      15.257  34.615  18.512  1.00  0.00     0.037 A 
HETATM   18  C   LIG     1      14.912  33.263  18.609  1.00  0.00     0.065 A 
HETATM   19  C   LIG     1      15.265  32.543  19.750  1.00  0.00     0.037 A 
HETATM   20  C   LIG     1      15.949  33.170  20.795  1.00  0.00     0.010 A 
BRANCH  18  21
HETATM   21  O   LIG     1      14.231  32.626  17.575  1.00  0.00    -0.361 OA
HETATM   22  H   LIG     1      14.696  32.371  16.711  1.00  0.00     0.217 HD
ENDBRANCH  18  21
ENDBRANCH   1  15
TORSDOF 7
ENDMDL
MODEL 7
REMARK VINA RESULT:      -7.9      6.612     10.174
REMARK  7 active torsions:
REMARK  status: ('A' for Active; 'I' for Inactive)
REMARK    1  A    between atoms: C_2  and  C_3 
REMARK    2  A    between atoms: C_3  and  C_11 
REMARK    3  A    between atoms: C_3  and  C_4 
REMARK    4  A    between atoms: C_7  and  O_10 
REMARK    5  A    between atoms: C_11  and  C_19 
REMARK    6  A    between atoms: C_11  and  C_12 
REMARK    7  A    between atoms: C_15  and  O_16 
ROOT
HETATM    1  C   LIG     1      15.493  32.145  16.310  1.00  0.00     0.027 C 
ENDROOT
BRANCH   1   2
HETATM    2  C   LIG     1      16.181  33.145  15.332  1.00  0.00     0.005 C 
HETATM    3  C   LIG     1      17.655  32.822  15.072  1.00  0.00     0.006 C 
ENDBRANCH   1   2
BRANCH   1   4
HETATM    4  C   LIG     1      14.137  31.588  15.732  1.00  0.00     0.027 C 
BRANCH   4   5
HETATM    5  C   LIG     1      12.994  31.523  16.800  1.00  0.00     0.005 C 
HETATM    6  C   LIG     1      11.994  32.672  16.672  1.00  0.00     0.006 C 
ENDBRANCH   4   5
BRANCH   4   7
HETATM    7  C   LIG     1      14.243  30.284  14.924  1.00  0.00    -0.053 A 
HETATM    8  C   LIG     1      13.063  29.552  14.674  1.00  0.00     0.010 A 
HETATM    9  C   LIG     1      13.093  28.369  13.930  1.00  0.00     0.037 A 
HETATM   10  C   LIG     1      14.299  27.904  13.398  1.00  0.00     0.065 A 
HETATM   11  C   LIG     1      15.471  28.631  13.605  1.00  0.00     0.037 A 
HETATM   12  C   LIG     1      15.446  29.815  14.349  1.00  0.00     0.010 A 
BRANCH  10  13
HETATM   13  O   LIG     1      14.341  26.726  12.655  1.00  0.00    -0.361 OA
HETATM   14  H   LIG     1      14.245  26.732  11.646  1.00  0.00     0.217 HD
ENDBRANCH  10  13
ENDBRANCH   4   7
ENDBRANCH   1   4
BRANCH   1  15
HETATM   15  C   LIG     1      15.448  32.745  17.727  1.00  0.00    -0.053 A 
HETATM   16  C   LIG     1      15.468  31.973  18.912  1.00  0.00     0.010 A 
HETATM   17  C   LIG     1      15.449  32.589  20.166  1.00  0.00     0.037 A 
HETATM   18  C   LIG     1      15.428  33.983  20.270  1.00  0.00     0.065 A 
HETATM   19  C   LIG     1      15.440  34.760  19.112  1.00  0.00     0.037 A 
HETATM   20  C   LIG     1      15.461  34.150  17.855  1.00  0.00     0.010 A 
BRANCH  18  21
HETATM   21  O   LIG     1      15.408  34.605  21.516  1.00  0.00    -0.361 OA
HETATM   22  H   LIG     1      16.198  35.143  21.853  1.00  0.00     0.217 HD
ENDBRANCH  18  21
ENDBRANCH   1  15
TORSDOF 7
ENDMDL
MODEL 8
REMARK VINA RESULT:      -7.9      2.444      6.033
REMARK  7 active torsions:
REMARK  status: ('A' for Active; 'I' for Inactive)
REMARK    1  A    between atoms: C_2  and  C_3 
REMARK    2  A    between atoms: C_3  and  C_11 
REMARK    3  A    between atoms: C_3  and  C_4 
REMARK    4  A    between atoms: C_7  and  O_10 
REMARK    5  A    between atoms: C_11  and  C_19 
REMARK    6  A    between atoms: C_11  and  C_12 
REMARK    7  A    between atoms: C_15  and  O_16 
ROOT
HETATM    1  C   LIG     1      16.803  36.835  21.979  1.00  0.00     0.027 C 
ENDROOT
BRANCH   1   2
HETATM    2  C   LIG     1      15.246  36.767  21.932  1.00  0.00     0.005 C 
HETATM    3  C   LIG     1      14.569  37.592  23.030  1.00  0.00     0.006 C 
ENDBRANCH   1   2
BRANCH   1   4
HETATM    4  C   LIG     1      17.470  35.914  20.888  1.00  0.00     0.027 C 
BRANCH   4   5
HETATM    5  C   LIG     1      18.330  36.714  19.852  1.00  0.00     0.005 C 
HETATM    6  C   LIG     1      18.714  38.108  20.349  1.00  0.00     0.006 C 
ENDBRANCH   4   5
BRANCH   4   7
HETATM    7  C   LIG     1      16.533  34.907  20.201  1.00  0.00    -0.053 A 
HETATM    8  C   LIG     1      16.141  35.157  18.869  1.00  0.00     0.010 A 
HETATM    9  C   LIG     1      15.306  34.268  18.185  1.00  0.00     0.037 A 
HETATM   10  C   LIG     1      14.864  33.098  18.809  1.00  0.00     0.065 A 
HETATM   11  C   LIG     1      15.268  32.816  20.114  1.00  0.00     0.037 A 
HETATM   12  C   LIG     1      16.103  33.702  20.803  1.00  0.00     0.010 A 
BRANCH  10  13
HETATM   13  O   LIG     1      14.031  32.206  18.139  1.00  0.00    -0.361 OA
HETATM   14  H   LIG     1      13.092  32.009  18.466  1.00  0.00     0.217 HD
ENDBRANCH  10  13
ENDBRANCH   4   7
ENDBRANCH   1   4
BRANCH   1  15
HETATM   15  C   LIG     1      17.292  36.660  23.428  1.00  0.00    -0.053 A 
HETATM   16  C   LIG     1      17.768  37.720  24.234  1.00  0.00     0.010 A 
HETATM   17  C   LIG     1      18.174  37.489  25.551  1.00  0.00     0.037 A 
HETATM   18  C   LIG     1      18.098  36.206  26.101  1.00  0.00     0.065 A 
HETATM   19  C   LIG     1      17.601  35.155  25.330  1.00  0.00     0.037 A 
HETATM   20  C   LIG     1      17.192  35.380  24.013  1.00  0.00     0.010 A 
BRANCH  18  21
HETATM   21  O   LIG     1      18.502  35.967  27.413  1.00  0.00    -0.361 OA
HETATM   22  H   LIG     1      18.138  36.512  28.186  1.00  0.00     0.217 HD
ENDBRANCH  18  21
ENDBRANCH   1  15
TORSDOF 7
ENDMDL
MODEL 9
REMARK VINA RESULT:      -7.7      5.762      8.339
REMARK  7 active torsions:
REMARK  status: ('A' for Active; 'I' for Inactive)
REMARK    1  A    between atoms: C_2  and  C_3 
REMARK    2  A    between atoms: C_3  and  C_11 
REMARK    3  A    between atoms: C_3  and  C_4 
REMARK    4  A    between atoms: C_7  and  O_10 
REMARK    5  A    between atoms: C_11  and  C_19 
REMARK    6  A    between atoms: C_11  and  C_12 
REMARK    7  A    between atoms: C_15  and  O_16 
ROOT
HETATM    1  C   LIG     1      15.248  30.522  15.321  1.00  0.00     0.027 C 
ENDROOT
BRANCH   1   2
HETATM    2  C   LIG     1      14.563  29.762  14.145  1.00  0.00     0.005 C 
HETATM    3  C   LIG     1      15.267  28.453  13.776  1.00  0.00     0.006 C 
ENDBRANCH   1   2
BRANCH   1   4
HETATM    4  C   LIG     1      14.213  30.964  16.424  1.00  0.00     0.027 C 
BRANCH   4   5
HETATM    5  C   LIG     1      12.767  31.174  15.860  1.00  0.00     0.005 C 
HETATM    6  C   LIG     1      11.901  32.058  16.758  1.00  0.00     0.006 C 
ENDBRANCH   4   5
BRANCH   4   7
HETATM    7  C   LIG     1      14.653  32.132  17.322  1.00  0.00    -0.053 A 
HETATM    8  C   LIG     1      15.009  31.853  18.658  1.00  0.00     0.010 A 
HETATM    9  C   LIG     1      15.436  32.869  19.518  1.00  0.00     0.037 A 
HETATM   10  C   LIG     1      15.539  34.184  19.054  1.00  0.00     0.065 A 
HETATM   11  C   LIG     1      15.223  34.475  17.727  1.00  0.00     0.037 A 
HETATM   12  C   LIG     1      14.796  33.461  16.863  1.00  0.00     0.010 A 
BRANCH  10  13
HETATM   13  O   LIG     1      15.961  35.206  19.901  1.00  0.00    -0.361 OA
HETATM   14  H   LIG     1      16.593  35.027  20.673  1.00  0.00     0.217 HD
ENDBRANCH  10  13
ENDBRANCH   4   7
ENDBRANCH   1   4
BRANCH   1  15
HETATM   15  C   LIG     1      16.181  31.613  14.769  1.00  0.00    -0.053 A 
HETATM   16  C   LIG     1      17.311  32.110  15.460  1.00  0.00     0.010 A 
HETATM   17  C   LIG     1      18.129  33.086  14.884  1.00  0.00     0.037 A 
HETATM   18  C   LIG     1      17.853  33.575  13.603  1.00  0.00     0.065 A 
HETATM   19  C   LIG     1      16.762  33.072  12.895  1.00  0.00     0.037 A 
HETATM   20  C   LIG     1      15.942  32.095  13.465  1.00  0.00     0.010 A 
BRANCH  18  21
HETATM   21  O   LIG     1      18.662  34.549  13.023  1.00  0.00    -0.361 OA
HETATM   22  H   LIG     1      19.652  34.608  13.231  1.00  0.00     0.217 HD
ENDBRANCH  18  21
ENDBRANCH   1  15
TORSDOF 7
ENDMDL
MODEL 10
REMARK VINA RESULT:      -7.6      2.466      4.387
REMARK  7 active torsions:
REMARK  status: ('A' for Active; 'I' for Inactive)
REMARK    1  A    between atoms: C_2  and  C_3 
REMARK    2  A    between atoms: C_3  and  C_11 
REMARK    3  A    between atoms: C_3  and  C_4 
REMARK    4  A    between atoms: C_7  and  O_10 
REMARK    5  A    between atoms: C_11  and  C_19 
REMARK    6  A    between atoms: C_11  and  C_12 
REMARK    7  A    between atoms: C_15  and  O_16 
ROOT
HETATM    1  C   LIG     1      15.566  35.179  21.556  1.00  0.00     0.027 C 
ENDROOT
BRANCH   1   2
HETATM    2  C   LIG     1      14.306  36.092  21.653  1.00  0.00     0.005 C 
HETATM    3  C   LIG     1      14.552  37.385  22.435  1.00  0.00     0.006 C 
ENDBRANCH   1   2
BRANCH   1   4
HETATM    4  C   LIG     1      16.897  35.974  21.840  1.00  0.00     0.027 C 
BRANCH   4   5
HETATM    5  C   LIG     1      18.071  35.565  20.887  1.00  0.00     0.005 C 
HETATM    6  C   LIG     1      18.559  36.722  20.016  1.00  0.00     0.006 C 
ENDBRANCH   4   5
BRANCH   4   7
HETATM    7  C   LIG     1      17.343  36.025  23.310  1.00  0.00    -0.053 A 
HETATM    8  C   LIG     1      17.771  37.261  23.839  1.00  0.00     0.010 A 
HETATM    9  C   LIG     1      18.170  37.375  25.174  1.00  0.00     0.037 A 
HETATM   10  C   LIG     1      18.127  36.261  26.017  1.00  0.00     0.065 A 
HETATM   11  C   LIG     1      17.674  35.038  25.523  1.00  0.00     0.037 A 
HETATM   12  C   LIG     1      17.274  34.919  24.188  1.00  0.00     0.010 A 
BRANCH  10  13
HETATM   13  O   LIG     1      18.523  36.361  27.349  1.00  0.00    -0.361 OA
HETATM   14  H   LIG     1      19.379  35.932  27.681  1.00  0.00     0.217 HD
ENDBRANCH  10  13
ENDBRANCH   4   7
ENDBRANCH   1   4
BRANCH   1  15
HETATM   15  C   LIG     1      15.516  34.351  20.261  1.00  0.00    -0.053 A 
HETATM   16  C   LIG     1      15.490  32.937  20.227  1.00  0.00     0.010 A 
HETATM   17  C   LIG     1      15.420  32.252  19.011  1.00  0.00     0.037 A 
HETATM   18  C   LIG     1      15.355  32.956  17.805  1.00  0.00     0.065 A 
HETATM   19  C   LIG     1      15.347  34.350  17.821  1.00  0.00     0.037 A 
HETATM   20  C   LIG     1      15.415  35.041  19.034  1.00  0.00     0.010 A 
BRANCH  18  21
HETATM   21  O   LIG     1      15.286  32.280  16.589  1.00  0.00    -0.361 OA
HETATM   22  H   LIG     1      15.655  32.685  15.736  1.00  0.00     0.217 HD
ENDBRANCH  18  21
ENDBRANCH   1  15
TORSDOF 7
ENDMDL
MODEL 11
REMARK VINA RESULT:      -7.6      6.688     10.223
REMARK  7 active torsions:
REMARK  status: ('A' for Active; 'I' for Inactive)
REMARK    1  A    between atoms: C_2  and  C_3 
REMARK    2  A    between atoms: C_3  and  C_11 
REMARK    3  A    between atoms: C_3  and  C_4 
REMARK    4  A    between atoms: C_7  and  O_10 
REMARK    5  A    between atoms: C_11  and  C_19 
REMARK    6  A    between atoms: C_11  and  C_12 
REMARK    7  A    between atoms: C_15  and  O_16 
ROOT
HETATM    1  C   LIG     1      14.328  32.303  16.386  1.00  0.00     0.027 C 
ENDROOT
BRANCH   1   2
HETATM    2  C   LIG     1      13.041  31.483  16.703  1.00  0.00     0.005 C 
HETATM    3  C   LIG     1      11.782  32.348  16.810  1.00  0.00     0.006 C 
ENDBRANCH   1   2
BRANCH   1   4
HETATM    4  C   LIG     1      15.349  31.487  15.504  1.00  0.00     0.027 C 
BRANCH   4   5
HETATM    5  C   LIG     1      16.175  32.390  14.528  1.00  0.00     0.005 C 
HETATM    6  C   LIG     1      17.558  32.746  15.074  1.00  0.00     0.006 C 
ENDBRANCH   4   5
BRANCH   4   7
HETATM    7  C   LIG     1      14.777  30.249  14.795  1.00  0.00    -0.053 A 
HETATM    8  C   LIG     1      15.678  29.300  14.269  1.00  0.00     0.010 A 
HETATM    9  C   LIG     1      15.219  28.145  13.631  1.00  0.00     0.037 A 
HETATM   10  C   LIG     1      13.846  27.900  13.524  1.00  0.00     0.065 A 
HETATM   11  C   LIG     1      12.939  28.810  14.067  1.00  0.00     0.037 A 
HETATM   12  C   LIG     1      13.394  29.967  14.707  1.00  0.00     0.010 A 
BRANCH  10  13
HETATM   13  O   LIG     1      13.376  26.754  12.888  1.00  0.00    -0.361 OA
HETATM   14  H   LIG     1      13.983  25.964  12.702  1.00  0.00     0.217 HD
ENDBRANCH  10  13
ENDBRANCH   4   7
ENDBRANCH   1   4
BRANCH   1  15
HETATM   15  C   LIG     1      14.878  32.936  17.676  1.00  0.00    -0.053 A 
HETATM   16  C   LIG     1      15.192  34.309  17.810  1.00  0.00     0.010 A 
HETATM   17  C   LIG     1      15.665  34.819  19.022  1.00  0.00     0.037 A 
HETATM   18  C   LIG     1      15.820  33.980  20.131  1.00  0.00     0.065 A 
HETATM   19  C   LIG     1      15.486  32.630  20.024  1.00  0.00     0.037 A 
HETATM   20  C   LIG     1      15.010  32.115  18.816  1.00  0.00     0.010 A 
BRANCH  18  21
HETATM   21  O   LIG     1      16.293  34.480  21.341  1.00  0.00    -0.361 OA
HETATM   22  H   LIG     1      16.457  35.471  21.478  1.00  0.00     0.217 HD
ENDBRANCH  18  21
ENDBRANCH   1  15
TORSDOF 7
ENDMDL
MODEL 12
REMARK VINA RESULT:      -7.3      6.778      9.687
REMARK  7 active torsions:
REMARK  status: ('A' for Active; 'I' for Inactive)
REMARK    1  A    between atoms: C_2  and  C_3 
REMARK    2  A    between atoms: C_3  and  C_11 
REMARK    3  A    between atoms: C_3  and  C_4 
REMARK    4  A    between atoms: C_7  and  O_10 
REMARK    5  A    between atoms: C_11  and  C_19 
REMARK    6  A    between atoms: C_11  and  C_12 
REMARK    7  A    between atoms: C_15  and  O_16 
ROOT
HETATM    1  C   LIG     1      14.798  31.330  15.536  1.00  0.00     0.027 C 
ENDROOT
BRANCH   1   2
HETATM    2  C   LIG     1      16.308  31.713  15.475  1.00  0.00     0.005 C 
HETATM    3  C   LIG     1      16.644  32.677  14.334  1.00  0.00     0.006 C 
ENDBRANCH   1   2
BRANCH   1   4
HETATM    4  C   LIG     1      14.241  31.345  17.010  1.00  0.00     0.027 C 
BRANCH   4   5
HETATM    5  C   LIG     1      12.682  31.214  17.079  1.00  0.00     0.005 C 
HETATM    6  C   LIG     1      11.958  32.478  16.615  1.00  0.00     0.006 C 
ENDBRANCH   4   5
BRANCH   4   7
HETATM    7  C   LIG     1      14.762  32.478  17.908  1.00  0.00    -0.053 A 
HETATM    8  C   LIG     1      15.069  32.182  19.253  1.00  0.00     0.010 A 
HETATM    9  C   LIG     1      15.565  33.166  20.113  1.00  0.00     0.037 A 
HETATM   10  C   LIG     1      15.787  34.464  19.642  1.00  0.00     0.065 A 
HETATM   11  C   LIG     1      15.521  34.768  18.307  1.00  0.00     0.037 A 
HETATM   12  C   LIG     1      15.026  33.788  17.443  1.00  0.00     0.010 A 
BRANCH  10  13
HETATM   13  O   LIG     1      16.278  35.453  20.490  1.00  0.00    -0.361 OA
HETATM   14  H   LIG     1      15.912  35.578  21.427  1.00  0.00     0.217 HD
ENDBRANCH  10  13
ENDBRANCH   4   7
ENDBRANCH   1   4
BRANCH   1  15
HETATM   15  C   LIG     1      14.546  30.055  14.712  1.00  0.00    -0.053 A 
HETATM   16  C   LIG     1      15.574  29.228  14.202  1.00  0.00     0.010 A 
HETATM   17  C   LIG     1      15.269  28.070  13.481  1.00  0.00     0.037 A 
HETATM   18  C   LIG     1      13.938  27.699  13.269  1.00  0.00     0.065 A 
HETATM   19  C   LIG     1      12.912  28.486  13.792  1.00  0.00     0.037 A 
HETATM   20  C   LIG     1      13.211  29.644  14.515  1.00  0.00     0.010 A 
BRANCH  18  21
HETATM   21  O   LIG     1      13.626  26.547  12.551  1.00  0.00    -0.361 OA
HETATM   22  H   LIG     1      13.631  26.538  11.537  1.00  0.00     0.217 HD
ENDBRANCH  18  21
ENDBRANCH   1  15
TORSDOF 7
ENDMDL
MODEL 13
REMARK VINA RESULT:      -7.2      6.065      9.947
REMARK  7 active torsions:
REMARK  status: ('A' for Active; 'I' for Inactive)
REMARK    1  A    between atoms: C_2  and  C_3 
REMARK    2  A    between atoms: C_3  and  C_11 
REMARK    3  A    between atoms: C_3  and  C_4 
REMARK    4  A    between atoms: C_7  and  O_10 
REMARK    5  A    between atoms: C_11  and  C_19 
REMARK    6  A    between atoms: C_11  and  C_12 
REMARK    7  A    between atoms: C_15  and  O_16 
ROOT
HETATM    1  C   LIG     1      13.978  31.532  15.496  1.00  0.00     0.027 C 
ENDROOT
BRANCH   1   2
HETATM    2  C   LIG     1      12.925  30.440  15.851  1.00  0.00     0.005 C 
HETATM    3  C   LIG     1      12.297  29.778  14.621  1.00  0.00     0.006 C 
ENDBRANCH   1   2
BRANCH   1   4
HETATM    4  C   LIG     1      15.073  30.997  14.496  1.00  0.00     0.027 C 
BRANCH   4   5
HETATM    5  C   LIG     1      15.578  29.558  14.850  1.00  0.00     0.005 C 
HETATM    6  C   LIG     1      15.421  28.572  13.693  1.00  0.00     0.006 C 
ENDBRANCH   4   5
BRANCH   4   7
HETATM    7  C   LIG     1      16.237  31.958  14.205  1.00  0.00    -0.053 A 
HETATM    8  C   LIG     1      16.260  32.629  12.965  1.00  0.00     0.010 A 
HETATM    9  C   LIG     1      17.282  33.530  12.651  1.00  0.00     0.037 A 
HETATM   10  C   LIG     1      18.292  33.797  13.579  1.00  0.00     0.065 A 
HETATM   11  C   LIG     1      18.269  33.169  14.824  1.00  0.00     0.037 A 
HETATM   12  C   LIG     1      17.249  32.268  15.143  1.00  0.00     0.010 A 
BRANCH  10  13
HETATM   13  O   LIG     1      19.317  34.691  13.277  1.00  0.00    -0.361 OA
HETATM   14  H   LIG     1      19.851  34.614  12.419  1.00  0.00     0.217 HD
ENDBRANCH  10  13
ENDBRANCH   4   7
ENDBRANCH   1   4
BRANCH   1  15
HETATM   15  C   LIG     1      14.485  32.210  16.781  1.00  0.00    -0.053 A 
HETATM   16  C   LIG     1      14.851  33.574  16.862  1.00  0.00     0.010 A 
HETATM   17  C   LIG     1      15.281  34.128  18.071  1.00  0.00     0.037 A 
HETATM   18  C   LIG     1      15.337  33.344  19.228  1.00  0.00     0.065 A 
HETATM   19  C   LIG     1      14.948  32.006  19.173  1.00  0.00     0.037 A 
HETATM   20  C   LIG     1      14.517  31.447  17.967  1.00  0.00     0.010 A 
BRANCH  18  21
HETATM   21  O   LIG     1      15.765  33.888  20.437  1.00  0.00    -0.361 OA
HETATM   22  H   LIG     1      15.667  34.877  20.637  1.00  0.00     0.217 HD
ENDBRANCH  18  21
ENDBRANCH   1  15
TORSDOF 7
ENDMDL
MODEL 14
REMARK VINA RESULT:      -6.6      6.645      9.543
REMARK  7 active torsions:
REMARK  status: ('A' for Active; 'I' for Inactive)
REMARK    1  A    between atoms: C_2  and  C_3 
REMARK    2  A    between atoms: C_3  and  C_11 
REMARK    3  A    between atoms: C_3  and  C_4 
REMARK    4  A    between atoms: C_7  and  O_10 
REMARK    5  A    between atoms: C_11  and  C_19 
REMARK    6  A    between atoms: C_11  and  C_12 
REMARK    7  A    between atoms: C_15  and  O_16 
ROOT
HETATM    1  C   LIG     1      13.963  30.938  16.303  1.00  0.00     0.027 C 
ENDROOT
BRANCH   1   2
HETATM    2  C   LIG     1      12.456  31.330  16.362  1.00  0.00     0.005 C 
HETATM    3  C   LIG     1      12.225  32.831  16.558  1.00  0.00     0.006 C 
ENDBRANCH   1   2
BRANCH   1   4
HETATM    4  C   LIG     1      14.905  32.202  16.314  1.00  0.00     0.027 C 
BRANCH   4   5
HETATM    5  C   LIG     1      16.227  31.990  15.500  1.00  0.00     0.005 C 
HETATM    6  C   LIG     1      16.641  33.228  14.706  1.00  0.00     0.006 C 
ENDBRANCH   4   5
BRANCH   4   7
HETATM    7  C   LIG     1      15.174  32.821  17.694  1.00  0.00    -0.053 A 
HETATM    8  C   LIG     1      15.345  34.219  17.781  1.00  0.00     0.010 A 
HETATM    9  C   LIG     1      15.573  34.842  19.011  1.00  0.00     0.037 A 
HETATM   10  C   LIG     1      15.612  34.085  20.186  1.00  0.00     0.065 A 
HETATM   11  C   LIG     1      15.412  32.706  20.125  1.00  0.00     0.037 A 
HETATM   12  C   LIG     1      15.184  32.078  18.897  1.00  0.00     0.010 A 
BRANCH  10  13
HETATM   13  O   LIG     1      15.840  34.695  21.418  1.00  0.00    -0.361 OA
HETATM   14  H   LIG     1      15.987  35.695  21.495  1.00  0.00     0.217 HD
ENDBRANCH  10  13
ENDBRANCH   4   7
ENDBRANCH   1   4
BRANCH   1  15
HETATM   15  C   LIG     1      14.195  29.911  15.181  1.00  0.00    -0.053 A 
HETATM   16  C   LIG     1      15.459  29.636  14.610  1.00  0.00     0.010 A 
HETATM   17  C   LIG     1      15.597  28.671  13.609  1.00  0.00     0.037 A 
HETATM   18  C   LIG     1      14.486  27.944  13.169  1.00  0.00     0.065 A 
HETATM   19  C   LIG     1      13.238  28.180  13.744  1.00  0.00     0.037 A 
HETATM   20  C   LIG     1      13.094  29.143  14.746  1.00  0.00     0.010 A 
BRANCH  18  21
HETATM   21  O   LIG     1      14.615  26.981  12.171  1.00  0.00    -0.361 OA
HETATM   22  H   LIG     1      15.387  26.323  12.166  1.00  0.00     0.217 HD
ENDBRANCH  18  21
ENDBRANCH   1  15
TORSDOF 7
ENDMDL
MODEL 15
REMARK VINA RESULT:      -6.5     14.824     17.018
REMARK  7 active torsions:
REMARK  status: ('A' for Active; 'I' for Inactive)
REMARK    1  A    between atoms: C_2  and  C_3 
REMARK    2  A    between atoms: C_3  and  C_11 
REMARK    3  A    between atoms: C_3  and  C_4 
REMARK    4  A    between atoms: C_7  and  O_10 
REMARK    5  A    between atoms: C_11  and  C_19 
REMARK    6  A    between atoms: C_11  and  C_12 
REMARK    7  A    between atoms: C_15  and  O_16 
ROOT
HETATM    1  C   LIG     1      24.288  22.591  22.623  1.00  0.00     0.027 C 
ENDROOT
BRANCH   1   2
HETATM    2  C   LIG     1      22.970  21.922  22.128  1.00  0.00     0.005 C 
HETATM    3  C   LIG     1      22.201  22.773  21.113  1.00  0.00     0.006 C 
ENDBRANCH   1   2
BRANCH   1   4
HETATM    4  C   LIG     1      25.504  22.282  21.670  1.00  0.00     0.027 C 
BRANCH   4   5
HETATM    5  C   LIG     1      26.570  21.338  22.323  1.00  0.00     0.005 C 
HETATM    6  C   LIG     1      26.443  19.887  21.860  1.00  0.00     0.006 C 
ENDBRANCH   4   5
BRANCH   4   7
HETATM    7  C   LIG     1      26.153  23.502  20.998  1.00  0.00    -0.053 A 
HETATM    8  C   LIG     1      25.548  24.029  19.837  1.00  0.00     0.010 A 
HETATM    9  C   LIG     1      26.080  25.149  19.193  1.00  0.00     0.037 A 
HETATM   10  C   LIG     1      27.216  25.782  19.706  1.00  0.00     0.065 A 
HETATM   11  C   LIG     1      27.809  25.297  20.872  1.00  0.00     0.037 A 
HETATM   12  C   LIG     1      27.280  24.177  21.521  1.00  0.00     0.010 A 
BRANCH  10  13
HETATM   13  O   LIG     1      27.757  26.898  19.072  1.00  0.00    -0.361 OA
HETATM   14  H   LIG     1      28.717  26.909  18.747  1.00  0.00     0.217 HD
ENDBRANCH  10  13
ENDBRANCH   4   7
ENDBRANCH   1   4
BRANCH   1  15
HETATM   15  C   LIG     1      24.490  22.307  24.121  1.00  0.00    -0.053 A 
HETATM   16  C   LIG     1      25.070  23.224  25.028  1.00  0.00     0.010 A 
HETATM   17  C   LIG     1      25.201  22.905  26.383  1.00  0.00     0.037 A 
HETATM   18  C   LIG     1      24.740  21.677  26.868  1.00  0.00     0.065 A 
HETATM   19  C   LIG     1      24.137  20.774  25.993  1.00  0.00     0.037 A 
HETATM   20  C   LIG     1      24.003  21.088  24.639  1.00  0.00     0.010 A 
BRANCH  18  21
HETATM   21  O   LIG     1      24.868  21.351  28.216  1.00  0.00    -0.361 OA
HETATM   22  H   LIG     1      24.102  21.482  28.867  1.00  0.00     0.217 HD
ENDBRANCH  18  21
ENDBRANCH   1  15
TORSDOF 7
ENDMDL
MODEL 16
REMARK VINA RESULT:      -6.1     15.071     17.094
REMARK  7 active torsions:
REMARK  status: ('A' for Active; 'I' for Inactive)
REMARK    1  A    between atoms: C_2  and  C_3 
REMARK    2  A    between atoms: C_3  and  C_11 
REMARK    3  A    between atoms: C_3  and  C_4 
REMARK    4  A    between atoms: C_7  and  O_10 
REMARK    5  A    between atoms: C_11  and  C_19 
REMARK    6  A    between atoms: C_11  and  C_12 
REMARK    7  A    between atoms: C_15  and  O_16 
ROOT
HETATM    1  C   LIG     1      24.589  23.078  21.388  1.00  0.00     0.027 C 
ENDROOT
BRANCH   1   2
HETATM    2  C   LIG     1      23.281  22.387  21.878  1.00  0.00     0.005 C 
HETATM    3  C   LIG     1      22.012  22.980  21.259  1.00  0.00     0.006 C 
ENDBRANCH   1   2
BRANCH   1   4
HETATM    4  C   LIG     1      24.836  22.855  19.848  1.00  0.00     0.027 C 
BRANCH   4   5
HETATM    5  C   LIG     1      25.006  21.346  19.465  1.00  0.00     0.005 C 
HETATM    6  C   LIG     1      23.956  20.865  18.463  1.00  0.00     0.006 C 
ENDBRANCH   4   5
BRANCH   4   7
HETATM    7  C   LIG     1      25.926  23.733  19.212  1.00  0.00    -0.053 A 
HETATM    8  C   LIG     1      26.025  25.080  19.620  1.00  0.00     0.010 A 
HETATM    9  C   LIG     1      27.008  25.923  19.093  1.00  0.00     0.037 A 
HETATM   10  C   LIG     1      27.930  25.431  18.163  1.00  0.00     0.065 A 
HETATM   11  C   LIG     1      27.870  24.094  17.773  1.00  0.00     0.037 A 
HETATM   12  C   LIG     1      26.889  23.247  18.298  1.00  0.00     0.010 A 
BRANCH  10  13
HETATM   13  O   LIG     1      28.912  26.261  17.629  1.00  0.00    -0.361 OA
HETATM   14  H   LIG     1      28.994  26.411  16.630  1.00  0.00     0.217 HD
ENDBRANCH  10  13
ENDBRANCH   4   7
ENDBRANCH   1   4
BRANCH   1  15
HETATM   15  C   LIG     1      25.752  22.732  22.334  1.00  0.00    -0.053 A 
HETATM   16  C   LIG     1      27.080  22.506  21.904  1.00  0.00     0.010 A 
HETATM   17  C   LIG     1      28.091  22.218  22.825  1.00  0.00     0.037 A 
HETATM   18  C   LIG     1      27.808  22.168  24.194  1.00  0.00     0.065 A 
HETATM   19  C   LIG     1      26.510  22.419  24.638  1.00  0.00     0.037 A 
HETATM   20  C   LIG     1      25.496  22.709  23.721  1.00  0.00     0.010 A 
BRANCH  18  21
HETATM   21  O   LIG     1      28.809  21.881  25.118  1.00  0.00    -0.361 OA
HETATM   22  H   LIG     1      29.296  22.617  25.617  1.00  0.00     0.217 HD
ENDBRANCH  18  21
ENDBRANCH   1  15
TORSDOF 7
ENDMDL
