REMARK  7 active torsions:
REMARK  status: ('A' for Active; 'I' for Inactive)
REMARK    1  A    between atoms: C_2  and  C_3 
REMARK    2  A    between atoms: C_3  and  C_11 
REMARK    3  A    between atoms: C_3  and  C_4 
REMARK    4  A    between atoms: C_7  and  O_10 
REMARK    5  A    between atoms: C_11  and  C_19 
REMARK    6  A    between atoms: C_11  and  C_12 
REMARK    7  A    between atoms: C_15  and  O_16 
ROOT
HETATM    1  C   LIG     1      -0.752  -0.614  -0.897  1.00  0.00     0.027 C 
ENDROOT
BRANCH   1   2
HETATM    2  C   LIG     1      -1.539  -1.912  -1.251  1.00  0.00     0.005 C 
HETATM    3  C   LIG     1      -0.941  -2.682  -2.432  1.00  0.00     0.006 C 
ENDBRANCH   1   2
BRANCH   1   4
HETATM    4  C   LIG     1       0.669  -0.928  -0.293  1.00  0.00     0.027 C 
BRANCH   4   5
HETATM    5  C   LIG     1       0.603  -1.760   1.032  1.00  0.00     0.005 C 
HETATM    6  C   LIG     1       1.157  -3.176   0.873  1.00  0.00     0.006 C 
ENDBRANCH   4   5
BRANCH   4   7
HETATM    7  C   LIG     1       1.622   0.272  -0.170  1.00  0.00    -0.053 A 
HETATM    8  C   LIG     1       2.948   0.036   0.249  1.00  0.00     0.010 A 
HETATM    9  C   LIG     1       3.866   1.084   0.361  1.00  0.00     0.037 A 
HETATM   10  C   LIG     1       3.486   2.389   0.034  1.00  0.00     0.065 A 
HETATM   11  C   LIG     1       2.189   2.638  -0.415  1.00  0.00     0.037 A 
HETATM   12  C   LIG     1       1.267   1.593  -0.529  1.00  0.00     0.010 A 
BRANCH  10  13
HETATM   13  O   LIG     1       4.391   3.442   0.143  1.00  0.00    -0.361 OA
HETATM   14  H   LIG     1       5.341   3.293   0.464  1.00  0.00     0.217 HD
ENDBRANCH  10  13
ENDBRANCH   4   7
ENDBRANCH   1   4
BRANCH   1  15
HETATM   15  C   LIG     1      -1.651   0.342  -0.094  1.00  0.00    -0.053 A 
HETATM   16  C   LIG     1      -1.368   0.773   1.223  1.00  0.00     0.010 A 
HETATM   17  C   LIG     1      -2.220   1.663   1.883  1.00  0.00     0.037 A 
HETATM   18  C   LIG     1      -3.360   2.158   1.242  1.00  0.00     0.065 A 
HETATM   19  C   LIG     1      -3.637   1.768  -0.068  1.00  0.00     0.037 A 
HETATM   20  C   LIG     1      -2.788   0.880  -0.733  1.00  0.00     0.010 A 
BRANCH  18  21
HETATM   21  O   LIG     1      -4.215   3.044   1.893  1.00  0.00    -0.361 OA
HETATM   22  H   LIG     1      -4.039   3.348   2.844  1.00  0.00     0.217 HD
ENDBRANCH  18  21
ENDBRANCH   1  15
TORSDOF 7
