MODEL 1
REMARK VINA RESULT:      -5.3      0.000      0.000
REMARK  7 active torsions:
REMARK  status: ('A' for Active; 'I' for Inactive)
REMARK    1  A    between atoms: C_2  and  C_3 
REMARK       I    between atoms: C_2  and  N_32 
REMARK    2  A    between atoms: C_6  and  O_7 
REMARK    3  A    between atoms: C_8  and  N_9 
REMARK    4  A    between atoms: C_13  and  O_14 
REMARK    5  A    between atoms: C_22  and  O_23 
REMARK    6  A    between atoms: C_24  and  O_25 
REMARK    7  A    between atoms: C_27  and  O_28 
ROOT
HETATM    1  C   LIG     1      24.971  22.724  20.279  1.00  0.00     0.112 C 
HETATM    2  C   LIG     1      26.225  22.790  21.085  1.00  0.00     0.208 C 
HETATM    3  O   LIG     1      27.313  23.035  20.495  1.00  0.00    -0.288 OA
HETATM    4  C   LIG     1      23.786  22.411  20.863  1.00  0.00     0.096 C 
HETATM    5  C   LIG     1      23.702  22.023  22.330  1.00  0.00     0.289 C 
HETATM    6  C   LIG     1      24.817  22.746  23.128  1.00  0.00     0.104 C 
HETATM    7  C   LIG     1      24.760  22.516  24.650  1.00  0.00     0.137 C 
HETATM    8  C   LIG     1      25.729  23.516  25.335  1.00  0.00     0.063 C 
HETATM    9  C   LIG     1      26.046  23.219  26.828  1.00  0.00     0.027 C 
HETATM   10  C   LIG     1      26.875  21.938  27.066  1.00  0.00     0.016 C 
HETATM   11  C   LIG     1      26.808  24.390  27.424  1.00  0.00    -0.037 A 
HETATM   12  C   LIG     1      27.818  25.058  26.678  1.00  0.00     0.054 A 
HETATM   13  C   LIG     1      27.909  24.800  25.207  1.00  0.00     0.194 C 
HETATM   14  C   LIG     1      27.017  23.791  24.575  1.00  0.00     0.033 C 
HETATM   15  C   LIG     1      27.278  23.252  23.350  1.00  0.00     0.097 C 
HETATM   16  C   LIG     1      26.232  22.447  22.573  1.00  0.00     0.180 C 
HETATM   17  O   LIG     1      28.604  25.549  24.471  1.00  0.00    -0.287 OA
HETATM   18  C   LIG     1      28.631  26.018  27.344  1.00  0.00     0.080 A 
HETATM   19  C   LIG     1      28.339  26.382  28.663  1.00  0.00     0.037 A 
HETATM   20  C   LIG     1      27.305  25.764  29.361  1.00  0.00     0.003 A 
HETATM   21  C   LIG     1      26.560  24.758  28.755  1.00  0.00     0.009 A 
ENDROOT
BRANCH   1  22
HETATM   22  C   LIG     1      25.060  22.994  18.828  1.00  0.00     0.255 C 
HETATM   23  O   LIG     1      24.429  22.263  18.017  1.00  0.00    -0.268 OA
HETATM   24  N   LIG     1      25.809  24.105  18.337  1.00  0.00    -0.366 N 
HETATM   25  H   LIG     1      25.873  24.286  17.310  1.00  0.00     0.159 HD
HETATM   26  H   LIG     1      26.274  24.770  18.996  1.00  0.00     0.159 HD
ENDBRANCH   1  22
BRANCH   4  27
HETATM   27  O   LIG     1      22.583  22.433  20.150  1.00  0.00    -0.362 OA
HETATM   28  H   LIG     1      22.161  21.612  19.733  1.00  0.00     0.217 HD
ENDBRANCH   4  27
BRANCH   5  29
HETATM   29  N   LIG     1      23.712  20.547  22.584  1.00  0.00     0.091 N 
HETATM   30  C   LIG     1      22.461  20.101  23.221  1.00  0.00     0.310 C 
HETATM   31  C   LIG     1      24.001  19.692  21.416  1.00  0.00     0.310 C 
ENDBRANCH   5  29
BRANCH  16  32
HETATM   32  O   LIG     1      26.524  21.079  22.721  1.00  0.00    -0.374 OA
HETATM   33  H   LIG     1      27.336  20.876  22.185  1.00  0.00     0.211 HD
ENDBRANCH  16  32
BRANCH  15  34
HETATM   34  O   LIG     1      28.560  23.336  22.794  1.00  0.00    -0.361 OA
HETATM   35  H   LIG     1      28.862  24.089  22.188  1.00  0.00     0.217 HD
ENDBRANCH  15  34
BRANCH   7  36
HETATM   36  O   LIG     1      25.089  21.183  24.949  1.00  0.00    -0.394 OA
HETATM   37  H   LIG     1      24.418  20.847  25.599  1.00  0.00     0.210 HD
ENDBRANCH   7  36
BRANCH  18  38
HETATM   38  O   LIG     1      29.750  26.613  26.756  1.00  0.00    -0.360 OA
HETATM   39  H   LIG     1      29.980  27.592  26.850  1.00  0.00     0.217 HD
ENDBRANCH  18  38
TORSDOF 7
ENDMDL
MODEL 2
REMARK VINA RESULT:      -5.1      2.961      4.387
REMARK  7 active torsions:
REMARK  status: ('A' for Active; 'I' for Inactive)
REMARK    1  A    between atoms: C_2  and  C_3 
REMARK       I    between atoms: C_2  and  N_32 
REMARK    2  A    between atoms: C_6  and  O_7 
REMARK    3  A    between atoms: C_8  and  N_9 
REMARK    4  A    between atoms: C_13  and  O_14 
REMARK    5  A    between atoms: C_22  and  O_23 
REMARK    6  A    between atoms: C_24  and  O_25 
REMARK    7  A    between atoms: C_27  and  O_28 
ROOT
HETATM    1  C   LIG     1      26.809  24.446  19.251  1.00  0.00     0.112 C 
HETATM    2  C   LIG     1      27.227  23.956  20.597  1.00  0.00     0.208 C 
HETATM    3  O   LIG     1      28.167  24.548  21.194  1.00  0.00    -0.288 OA
HETATM    4  C   LIG     1      25.840  23.806  18.548  1.00  0.00     0.096 C 
HETATM    5  C   LIG     1      25.211  22.519  19.055  1.00  0.00     0.289 C 
HETATM    6  C   LIG     1      25.209  22.511  20.605  1.00  0.00     0.104 C 
HETATM    7  C   LIG     1      24.491  21.302  21.233  1.00  0.00     0.137 C 
HETATM    8  C   LIG     1      24.308  21.572  22.751  1.00  0.00     0.063 C 
HETATM    9  C   LIG     1      23.899  20.338  23.602  1.00  0.00     0.027 C 
HETATM   10  C   LIG     1      24.989  19.249  23.720  1.00  0.00     0.016 C 
HETATM   11  C   LIG     1      23.534  20.792  25.005  1.00  0.00    -0.037 A 
HETATM   12  C   LIG     1      24.290  21.799  25.665  1.00  0.00     0.054 A 
HETATM   13  C   LIG     1      25.248  22.618  24.858  1.00  0.00     0.194 C 
HETATM   14  C   LIG     1      25.460  22.306  23.419  1.00  0.00     0.033 C 
HETATM   15  C   LIG     1      26.547  22.754  22.729  1.00  0.00     0.097 C 
HETATM   16  C   LIG     1      26.628  22.688  21.200  1.00  0.00     0.180 C 
HETATM   17  O   LIG     1      25.739  23.675  25.334  1.00  0.00    -0.287 OA
HETATM   18  C   LIG     1      24.029  22.052  27.041  1.00  0.00     0.080 A 
HETATM   19  C   LIG     1      22.959  21.412  27.676  1.00  0.00     0.037 A 
HETATM   20  C   LIG     1      22.186  20.474  26.997  1.00  0.00     0.003 A 
HETATM   21  C   LIG     1      22.485  20.147  25.679  1.00  0.00     0.009 A 
ENDROOT
BRANCH   1  22
HETATM   22  C   LIG     1      27.493  25.637  18.700  1.00  0.00     0.255 C 
HETATM   23  O   LIG     1      28.188  25.530  17.655  1.00  0.00    -0.268 OA
HETATM   24  N   LIG     1      27.330  26.918  19.309  1.00  0.00    -0.366 N 
HETATM   25  H   LIG     1      27.820  27.753  18.919  1.00  0.00     0.159 HD
HETATM   26  H   LIG     1      26.694  27.043  20.128  1.00  0.00     0.159 HD
ENDBRANCH   1  22
BRANCH   4  27
HETATM   27  O   LIG     1      25.366  24.298  17.328  1.00  0.00    -0.362 OA
HETATM   28  H   LIG     1      24.494  24.802  17.225  1.00  0.00     0.217 HD
ENDBRANCH   4  27
BRANCH   5  29
HETATM   29  N   LIG     1      25.821  21.269  18.499  1.00  0.00     0.091 N 
HETATM   30  C   LIG     1      24.846  20.501  17.707  1.00  0.00     0.310 C 
HETATM   31  C   LIG     1      27.061  21.447  17.718  1.00  0.00     0.310 C 
ENDBRANCH   5  29
BRANCH  16  32
HETATM   32  O   LIG     1      27.435  21.591  20.844  1.00  0.00    -0.374 OA
HETATM   33  H   LIG     1      28.128  21.476  21.547  1.00  0.00     0.211 HD
ENDBRANCH  16  32
BRANCH  15  34
HETATM   34  O   LIG     1      27.684  23.208  23.408  1.00  0.00    -0.361 OA
HETATM   35  H   LIG     1      28.394  22.594  23.788  1.00  0.00     0.217 HD
ENDBRANCH  15  34
BRANCH   7  36
HETATM   36  O   LIG     1      25.228  20.129  20.998  1.00  0.00    -0.394 OA
HETATM   37  H   LIG     1      24.986  19.799  20.093  1.00  0.00     0.210 HD
ENDBRANCH   7  36
BRANCH  18  38
HETATM   38  O   LIG     1      24.815  22.900  27.826  1.00  0.00    -0.360 OA
HETATM   39  H   LIG     1      25.111  22.680  28.766  1.00  0.00     0.217 HD
ENDBRANCH  18  38
TORSDOF 7
ENDMDL
MODEL 3
REMARK VINA RESULT:      -5.1      1.468      2.007
REMARK  7 active torsions:
REMARK  status: ('A' for Active; 'I' for Inactive)
REMARK    1  A    between atoms: C_2  and  C_3 
REMARK       I    between atoms: C_2  and  N_32 
REMARK    2  A    between atoms: C_6  and  O_7 
REMARK    3  A    between atoms: C_8  and  N_9 
REMARK    4  A    between atoms: C_13  and  O_14 
REMARK    5  A    between atoms: C_22  and  O_23 
REMARK    6  A    between atoms: C_24  and  O_25 
REMARK    7  A    between atoms: C_27  and  O_28 
ROOT
HETATM    1  C   LIG     1      25.840  22.663  22.017  1.00  0.00     0.112 C 
HETATM    2  C   LIG     1      27.062  22.889  22.843  1.00  0.00     0.208 C 
HETATM    3  O   LIG     1      28.175  23.004  22.261  1.00  0.00    -0.288 OA
HETATM    4  C   LIG     1      24.630  22.480  22.604  1.00  0.00     0.096 C 
HETATM    5  C   LIG     1      24.483  22.403  24.115  1.00  0.00     0.289 C 
HETATM    6  C   LIG     1      25.574  23.271  24.792  1.00  0.00     0.104 C 
HETATM    7  C   LIG     1      25.454  23.359  26.325  1.00  0.00     0.137 C 
HETATM    8  C   LIG     1      26.407  24.476  26.829  1.00  0.00     0.063 C 
HETATM    9  C   LIG     1      26.661  24.492  28.363  1.00  0.00     0.027 C 
HETATM   10  C   LIG     1      27.466  23.284  28.893  1.00  0.00     0.016 C 
HETATM   11  C   LIG     1      27.413  25.757  28.736  1.00  0.00    -0.037 A 
HETATM   12  C   LIG     1      28.459  26.254  27.911  1.00  0.00     0.054 A 
HETATM   13  C   LIG     1      28.605  25.699  26.529  1.00  0.00     0.194 C 
HETATM   14  C   LIG     1      27.727  24.585  26.082  1.00  0.00     0.033 C 
HETATM   15  C   LIG     1      28.030  23.805  25.006  1.00  0.00     0.097 C 
HETATM   16  C   LIG     1      27.006  22.860  24.368  1.00  0.00     0.180 C 
HETATM   17  O   LIG     1      29.337  26.279  25.684  1.00  0.00    -0.287 OA
HETATM   18  C   LIG     1      29.256  27.329  28.398  1.00  0.00     0.080 A 
HETATM   19  C   LIG     1      28.917  27.957  29.601  1.00  0.00     0.037 A 
HETATM   20  C   LIG     1      27.848  27.500  30.368  1.00  0.00     0.003 A 
HETATM   21  C   LIG     1      27.116  26.393  29.952  1.00  0.00     0.009 A 
ENDROOT
BRANCH   1  22
HETATM   22  C   LIG     1      25.989  22.627  20.546  1.00  0.00     0.255 C 
HETATM   23  O   LIG     1      25.639  21.599  19.908  1.00  0.00    -0.268 OA
HETATM   24  N   LIG     1      26.476  23.766  19.835  1.00  0.00    -0.366 N 
HETATM   25  H   LIG     1      26.585  23.732  18.797  1.00  0.00     0.159 HD
HETATM   26  H   LIG     1      26.697  24.655  20.337  1.00  0.00     0.159 HD
ENDBRANCH   1  22
BRANCH   4  27
HETATM   27  O   LIG     1      23.456  22.358  21.853  1.00  0.00    -0.362 OA
HETATM   28  H   LIG     1      23.442  22.181  20.856  1.00  0.00     0.217 HD
ENDBRANCH   4  27
BRANCH   5  29
HETATM   29  N   LIG     1      24.466  21.010  24.666  1.00  0.00     0.091 N 
HETATM   30  C   LIG     1      23.193  20.716  25.345  1.00  0.00     0.310 C 
HETATM   31  C   LIG     1      24.774  19.931  23.708  1.00  0.00     0.310 C 
ENDBRANCH   5  29
BRANCH  16  32
HETATM   32  O   LIG     1      27.276  21.550  24.806  1.00  0.00    -0.374 OA
HETATM   33  H   LIG     1      28.230  21.507  25.083  1.00  0.00     0.211 HD
ENDBRANCH  16  32
BRANCH  15  34
HETATM   34  O   LIG     1      29.334  23.768  24.498  1.00  0.00    -0.361 OA
HETATM   35  H   LIG     1      29.889  24.594  24.316  1.00  0.00     0.217 HD
ENDBRANCH  15  34
BRANCH   7  36
HETATM   36  O   LIG     1      25.756  22.115  26.905  1.00  0.00    -0.394 OA
HETATM   37  H   LIG     1      24.909  21.600  26.968  1.00  0.00     0.210 HD
ENDBRANCH   7  36
BRANCH  18  38
HETATM   38  O   LIG     1      30.404  27.787  27.746  1.00  0.00    -0.360 OA
HETATM   39  H   LIG     1      31.293  27.309  27.775  1.00  0.00     0.217 HD
ENDBRANCH  18  38
TORSDOF 7
ENDMDL
MODEL 4
REMARK VINA RESULT:      -5.1      4.221      6.759
REMARK  7 active torsions:
REMARK  status: ('A' for Active; 'I' for Inactive)
REMARK    1  A    between atoms: C_2  and  C_3 
REMARK       I    between atoms: C_2  and  N_32 
REMARK    2  A    between atoms: C_6  and  O_7 
REMARK    3  A    between atoms: C_8  and  N_9 
REMARK    4  A    between atoms: C_13  and  O_14 
REMARK    5  A    between atoms: C_22  and  O_23 
REMARK    6  A    between atoms: C_24  and  O_25 
REMARK    7  A    between atoms: C_27  and  O_28 
ROOT
HETATM    1  C   LIG     1      28.251  25.224  25.663  1.00  0.00     0.112 C 
HETATM    2  C   LIG     1      29.164  25.768  26.710  1.00  0.00     0.208 C 
HETATM    3  O   LIG     1      30.235  26.328  26.350  1.00  0.00    -0.288 OA
HETATM    4  C   LIG     1      27.114  24.566  26.007  1.00  0.00     0.096 C 
HETATM    5  C   LIG     1      26.774  24.274  27.459  1.00  0.00     0.289 C 
HETATM    6  C   LIG     1      27.357  25.387  28.368  1.00  0.00     0.104 C 
HETATM    7  C   LIG     1      26.977  25.255  29.855  1.00  0.00     0.137 C 
HETATM    8  C   LIG     1      27.370  26.571  30.580  1.00  0.00     0.063 C 
HETATM    9  C   LIG     1      27.361  26.503  32.133  1.00  0.00     0.027 C 
HETATM   10  C   LIG     1      28.456  25.600  32.743  1.00  0.00     0.016 C 
HETATM   11  C   LIG     1      27.535  27.901  32.700  1.00  0.00    -0.037 A 
HETATM   12  C   LIG     1      28.443  28.820  32.107  1.00  0.00     0.054 A 
HETATM   13  C   LIG     1      28.993  28.509  30.751  1.00  0.00     0.194 C 
HETATM   14  C   LIG     1      28.659  27.215  30.095  1.00  0.00     0.033 C 
HETATM   15  C   LIG     1      29.387  26.715  29.057  1.00  0.00     0.097 C 
HETATM   16  C   LIG     1      28.887  25.551  28.196  1.00  0.00     0.180 C 
HETATM   17  O   LIG     1      29.585  29.398  30.084  1.00  0.00    -0.287 OA
HETATM   18  C   LIG     1      28.710  30.043  32.785  1.00  0.00     0.080 A 
HETATM   19  C   LIG     1      27.985  30.375  33.934  1.00  0.00     0.037 A 
HETATM   20  C   LIG     1      27.051  29.491  34.467  1.00  0.00     0.003 A 
HETATM   21  C   LIG     1      26.843  28.253  33.870  1.00  0.00     0.009 A 
ENDROOT
BRANCH   1  22
HETATM   22  C   LIG     1      28.628  25.407  24.245  1.00  0.00     0.255 C 
HETATM   23  O   LIG     1      28.707  24.405  23.485  1.00  0.00    -0.268 OA
HETATM   24  N   LIG     1      28.852  26.713  23.713  1.00  0.00    -0.366 N 
HETATM   25  H   LIG     1      29.124  26.835  22.712  1.00  0.00     0.159 HD
HETATM   26  H   LIG     1      28.713  27.562  24.306  1.00  0.00     0.159 HD
ENDBRANCH   1  22
BRANCH   4  27
HETATM   27  O   LIG     1      26.196  24.128  25.048  1.00  0.00    -0.362 OA
HETATM   28  H   LIG     1      25.245  23.855  25.263  1.00  0.00     0.217 HD
ENDBRANCH   4  27
BRANCH   5  29
HETATM   29  N   LIG     1      27.178  22.911  27.930  1.00  0.00     0.091 N 
HETATM   30  C   LIG     1      26.010  22.118  28.349  1.00  0.00     0.310 C 
HETATM   31  C   LIG     1      27.999  22.120  26.992  1.00  0.00     0.310 C 
ENDBRANCH   5  29
BRANCH  16  32
HETATM   32  O   LIG     1      29.543  24.377  28.612  1.00  0.00    -0.374 OA
HETATM   33  H   LIG     1      30.491  24.431  28.317  1.00  0.00     0.211 HD
ENDBRANCH  16  32
BRANCH  15  34
HETATM   34  O   LIG     1      30.677  27.192  28.797  1.00  0.00    -0.361 OA
HETATM   35  H   LIG     1      31.335  26.728  28.183  1.00  0.00     0.217 HD
ENDBRANCH  15  34
BRANCH   7  36
HETATM   36  O   LIG     1      27.617  24.139  30.419  1.00  0.00    -0.394 OA
HETATM   37  H   LIG     1      28.562  24.391  30.592  1.00  0.00     0.210 HD
ENDBRANCH   7  36
BRANCH  18  38
HETATM   38  O   LIG     1      29.700  30.942  32.379  1.00  0.00    -0.360 OA
HETATM   39  H   LIG     1      29.533  31.715  31.751  1.00  0.00     0.217 HD
ENDBRANCH  18  38
TORSDOF 7
ENDMDL
MODEL 5
REMARK VINA RESULT:      -4.7      4.756      9.726
REMARK  7 active torsions:
REMARK  status: ('A' for Active; 'I' for Inactive)
REMARK    1  A    between atoms: C_2  and  C_3 
REMARK       I    between atoms: C_2  and  N_32 
REMARK    2  A    between atoms: C_6  and  O_7 
REMARK    3  A    between atoms: C_8  and  N_9 
REMARK    4  A    between atoms: C_13  and  O_14 
REMARK    5  A    between atoms: C_22  and  O_23 
REMARK    6  A    between atoms: C_24  and  O_25 
REMARK    7  A    between atoms: C_27  and  O_28 
ROOT
HETATM    1  C   LIG     1      27.738  25.855  32.788  1.00  0.00     0.112 C 
HETATM    2  C   LIG     1      27.959  24.590  32.027  1.00  0.00     0.208 C 
HETATM    3  O   LIG     1      28.161  23.523  32.669  1.00  0.00    -0.288 OA
HETATM    4  C   LIG     1      27.571  27.035  32.139  1.00  0.00     0.096 C 
HETATM    5  C   LIG     1      27.696  27.135  30.627  1.00  0.00     0.289 C 
HETATM    6  C   LIG     1      27.258  25.798  29.976  1.00  0.00     0.104 C 
HETATM    7  C   LIG     1      27.237  25.820  28.436  1.00  0.00     0.137 C 
HETATM    8  C   LIG     1      26.508  24.543  27.937  1.00  0.00     0.063 C 
HETATM    9  C   LIG     1      26.673  24.232  26.422  1.00  0.00     0.027 C 
HETATM   10  C   LIG     1      28.103  23.828  26.001  1.00  0.00     0.016 C 
HETATM   11  C   LIG     1      25.732  23.104  26.035  1.00  0.00    -0.037 A 
HETATM   12  C   LIG     1      25.535  21.990  26.896  1.00  0.00     0.054 A 
HETATM   13  C   LIG     1      26.018  22.085  28.310  1.00  0.00     0.194 C 
HETATM   14  C   LIG     1      26.770  23.289  28.757  1.00  0.00     0.033 C 
HETATM   15  C   LIG     1      27.535  23.293  29.885  1.00  0.00     0.097 C 
HETATM   16  C   LIG     1      28.068  24.588  30.505  1.00  0.00     0.180 C 
HETATM   17  O   LIG     1      25.642  21.245  29.169  1.00  0.00    -0.287 OA
HETATM   18  C   LIG     1      24.798  20.876  26.407  1.00  0.00     0.080 A 
HETATM   19  C   LIG     1      24.174  20.948  25.157  1.00  0.00     0.037 A 
HETATM   20  C   LIG     1      24.323  22.073  24.350  1.00  0.00     0.003 A 
HETATM   21  C   LIG     1      25.116  23.134  24.774  1.00  0.00     0.009 A 
ENDROOT
BRANCH   1  22
HETATM   22  C   LIG     1      27.723  25.787  34.265  1.00  0.00     0.255 C 
HETATM   23  O   LIG     1      26.674  26.089  34.894  1.00  0.00    -0.268 OA
HETATM   24  N   LIG     1      28.869  25.330  34.986  1.00  0.00    -0.366 N 
HETATM   25  H   LIG     1      28.854  25.290  36.029  1.00  0.00     0.159 HD
HETATM   26  H   LIG     1      29.721  24.998  34.480  1.00  0.00     0.159 HD
ENDBRANCH   1  22
BRANCH   4  27
HETATM   27  O   LIG     1      27.271  28.218  32.823  1.00  0.00    -0.362 OA
HETATM   28  H   LIG     1      26.373  28.683  32.774  1.00  0.00     0.217 HD
ENDBRANCH   4  27
BRANCH   5  29
HETATM   29  N   LIG     1      29.046  27.568  30.143  1.00  0.00     0.091 N 
HETATM   30  C   LIG     1      28.974  28.849  29.422  1.00  0.00     0.310 C 
HETATM   31  C   LIG     1      30.108  27.637  31.166  1.00  0.00     0.310 C 
ENDBRANCH   5  29
BRANCH  16  32
HETATM   32  O   LIG     1      29.422  24.727  30.147  1.00  0.00    -0.374 OA
HETATM   33  H   LIG     1      29.529  24.410  29.211  1.00  0.00     0.211 HD
ENDBRANCH  16  32
BRANCH  15  34
HETATM   34  O   LIG     1      27.944  22.090  30.472  1.00  0.00    -0.361 OA
HETATM   35  H   LIG     1      27.395  21.239  30.452  1.00  0.00     0.217 HD
ENDBRANCH  15  34
BRANCH   7  36
HETATM   36  O   LIG     1      28.547  25.901  27.936  1.00  0.00    -0.394 OA
HETATM   37  H   LIG     1      28.502  25.760  26.954  1.00  0.00     0.210 HD
ENDBRANCH   7  36
BRANCH  18  38
HETATM   38  O   LIG     1      24.681  19.670  27.104  1.00  0.00    -0.360 OA
HETATM   39  H   LIG     1      24.108  18.897  26.796  1.00  0.00     0.217 HD
ENDBRANCH  18  38
TORSDOF 7
ENDMDL
MODEL 6
REMARK VINA RESULT:      -4.7      3.421      8.347
REMARK  7 active torsions:
REMARK  status: ('A' for Active; 'I' for Inactive)
REMARK    1  A    between atoms: C_2  and  C_3 
REMARK       I    between atoms: C_2  and  N_32 
REMARK    2  A    between atoms: C_6  and  O_7 
REMARK    3  A    between atoms: C_8  and  N_9 
REMARK    4  A    between atoms: C_13  and  O_14 
REMARK    5  A    between atoms: C_22  and  O_23 
REMARK    6  A    between atoms: C_24  and  O_25 
REMARK    7  A    between atoms: C_27  and  O_28 
ROOT
HETATM    1  C   LIG     1      27.751  25.283  29.940  1.00  0.00     0.112 C 
HETATM    2  C   LIG     1      27.516  23.928  29.359  1.00  0.00     0.208 C 
HETATM    3  O   LIG     1      27.310  22.960  30.141  1.00  0.00    -0.288 OA
HETATM    4  C   LIG     1      28.031  26.342  29.139  1.00  0.00     0.096 C 
HETATM    5  C   LIG     1      28.212  26.178  27.639  1.00  0.00     0.289 C 
HETATM    6  C   LIG     1      27.336  25.005  27.131  1.00  0.00     0.104 C 
HETATM    7  C   LIG     1      27.352  24.816  25.602  1.00  0.00     0.137 C 
HETATM    8  C   LIG     1      26.223  23.822  25.217  1.00  0.00     0.063 C 
HETATM    9  C   LIG     1      26.293  23.264  23.768  1.00  0.00     0.027 C 
HETATM   10  C   LIG     1      27.490  22.326  23.498  1.00  0.00     0.016 C 
HETATM   11  C   LIG     1      25.018  22.499  23.461  1.00  0.00    -0.037 A 
HETATM   12  C   LIG     1      24.417  21.660  24.439  1.00  0.00     0.054 A 
HETATM   13  C   LIG     1      24.875  21.775  25.859  1.00  0.00     0.194 C 
HETATM   14  C   LIG     1      26.001  22.685  26.203  1.00  0.00     0.033 C 
HETATM   15  C   LIG     1      26.694  22.577  27.371  1.00  0.00     0.097 C 
HETATM   16  C   LIG     1      27.647  23.674  27.859  1.00  0.00     0.180 C 
HETATM   17  O   LIG     1      24.206  21.251  26.788  1.00  0.00    -0.287 OA
HETATM   18  C   LIG     1      23.338  20.821  24.043  1.00  0.00     0.080 A 
HETATM   19  C   LIG     1      22.805  20.933  22.755  1.00  0.00     0.037 A 
HETATM   20  C   LIG     1      23.364  21.807  21.826  1.00  0.00     0.003 A 
HETATM   21  C   LIG     1      24.477  22.567  22.167  1.00  0.00     0.009 A 
ENDROOT
BRANCH   1  22
HETATM   22  C   LIG     1      27.684  25.432  31.410  1.00  0.00     0.255 C 
HETATM   23  O   LIG     1      26.844  26.220  31.920  1.00  0.00    -0.268 OA
HETATM   24  N   LIG     1      28.527  24.654  32.261  1.00  0.00    -0.366 N 
HETATM   25  H   LIG     1      28.480  24.769  33.297  1.00  0.00     0.159 HD
HETATM   26  H   LIG     1      29.174  23.937  31.861  1.00  0.00     0.159 HD
ENDBRANCH   1  22
BRANCH   4  27
HETATM   27  O   LIG     1      28.163  27.638  29.648  1.00  0.00    -0.362 OA
HETATM   28  H   LIG     1      29.004  27.985  30.092  1.00  0.00     0.217 HD
ENDBRANCH   4  27
BRANCH   5  29
HETATM   29  N   LIG     1      29.636  26.033  27.198  1.00  0.00     0.091 N 
HETATM   30  C   LIG     1      30.044  27.143  26.321  1.00  0.00     0.310 C 
HETATM   31  C   LIG     1      30.632  25.863  28.274  1.00  0.00     0.310 C 
ENDBRANCH   5  29
BRANCH  16  32
HETATM   32  O   LIG     1      28.966  23.274  27.580  1.00  0.00    -0.374 OA
HETATM   33  H   LIG     1      29.570  24.040  27.775  1.00  0.00     0.211 HD
ENDBRANCH  16  32
BRANCH  15  34
HETATM   34  O   LIG     1      26.633  21.403  28.130  1.00  0.00    -0.361 OA
HETATM   35  H   LIG     1      27.430  20.803  28.303  1.00  0.00     0.217 HD
ENDBRANCH  15  34
BRANCH   7  36
HETATM   36  O   LIG     1      28.613  24.358  25.186  1.00  0.00    -0.394 OA
HETATM   37  H   LIG     1      28.493  23.444  24.818  1.00  0.00     0.210 HD
ENDBRANCH   7  36
BRANCH  18  38
HETATM   38  O   LIG     1      22.782  19.845  24.875  1.00  0.00    -0.360 OA
HETATM   39  H   LIG     1      22.007  19.255  24.609  1.00  0.00     0.217 HD
ENDBRANCH  18  38
TORSDOF 7
ENDMDL
MODEL 7
REMARK VINA RESULT:      -4.5      2.512      3.465
REMARK  7 active torsions:
REMARK  status: ('A' for Active; 'I' for Inactive)
REMARK    1  A    between atoms: C_2  and  C_3 
REMARK       I    between atoms: C_2  and  N_32 
REMARK    2  A    between atoms: C_6  and  O_7 
REMARK    3  A    between atoms: C_8  and  N_9 
REMARK    4  A    between atoms: C_13  and  O_14 
REMARK    5  A    between atoms: C_22  and  O_23 
REMARK    6  A    between atoms: C_24  and  O_25 
REMARK    7  A    between atoms: C_27  and  O_28 
ROOT
HETATM    1  C   LIG     1      28.314  25.666  19.509  1.00  0.00     0.112 C 
HETATM    2  C   LIG     1      29.205  25.553  20.700  1.00  0.00     0.208 C 
HETATM    3  O   LIG     1      30.299  26.182  20.701  1.00  0.00    -0.288 OA
HETATM    4  C   LIG     1      27.154  24.964  19.440  1.00  0.00     0.096 C 
HETATM    5  C   LIG     1      26.763  23.969  20.521  1.00  0.00     0.289 C 
HETATM    6  C   LIG     1      27.341  24.424  21.886  1.00  0.00     0.104 C 
HETATM    7  C   LIG     1      26.913  23.548  23.079  1.00  0.00     0.137 C 
HETATM    8  C   LIG     1      27.310  24.278  24.390  1.00  0.00     0.063 C 
HETATM    9  C   LIG     1      27.252  23.409  25.679  1.00  0.00     0.027 C 
HETATM   10  C   LIG     1      28.310  22.285  25.743  1.00  0.00     0.016 C 
HETATM   11  C   LIG     1      27.437  24.299  26.895  1.00  0.00    -0.037 A 
HETATM   12  C   LIG     1      28.382  25.362  26.884  1.00  0.00     0.054 A 
HETATM   13  C   LIG     1      28.967  25.786  25.574  1.00  0.00     0.194 C 
HETATM   14  C   LIG     1      28.627  25.037  24.334  1.00  0.00     0.033 C 
HETATM   15  C   LIG     1      29.376  25.128  23.199  1.00  0.00     0.097 C 
HETATM   16  C   LIG     1      28.879  24.602  21.848  1.00  0.00     0.180 C 
HETATM   17  O   LIG     1      29.598  26.872  25.479  1.00  0.00    -0.287 OA
HETATM   18  C   LIG     1      28.654  26.042  28.105  1.00  0.00     0.080 A 
HETATM   19  C   LIG     1      27.900  25.750  29.247  1.00  0.00     0.037 A 
HETATM   20  C   LIG     1      26.932  24.749  29.225  1.00  0.00     0.003 A 
HETATM   21  C   LIG     1      26.718  24.012  28.065  1.00  0.00     0.009 A 
ENDROOT
BRANCH   1  22
HETATM   22  C   LIG     1      28.738  26.550  18.401  1.00  0.00     0.255 C 
HETATM   23  O   LIG     1      28.195  27.678  18.260  1.00  0.00    -0.268 OA
HETATM   24  N   LIG     1      29.794  26.161  17.522  1.00  0.00    -0.366 N 
HETATM   25  H   LIG     1      30.084  26.787  16.738  1.00  0.00     0.159 HD
HETATM   26  H   LIG     1      30.311  25.265  17.671  1.00  0.00     0.159 HD
ENDBRANCH   1  22
BRANCH   4  27
HETATM   27  O   LIG     1      26.256  25.122  18.379  1.00  0.00    -0.362 OA
HETATM   28  H   LIG     1      26.171  24.467  17.612  1.00  0.00     0.217 HD
ENDBRANCH   4  27
BRANCH   5  29
HETATM   29  N   LIG     1      27.124  22.548  20.215  1.00  0.00     0.091 N 
HETATM   30  C   LIG     1      25.927  21.698  20.113  1.00  0.00     0.310 C 
HETATM   31  C   LIG     1      27.980  22.338  19.031  1.00  0.00     0.310 C 
ENDBRANCH   5  29
BRANCH  16  32
HETATM   32  O   LIG     1      29.497  23.362  21.600  1.00  0.00    -0.374 OA
HETATM   33  H   LIG     1      29.758  22.966  22.473  1.00  0.00     0.211 HD
ENDBRANCH  16  32
BRANCH  15  34
HETATM   34  O   LIG     1      30.683  25.627  23.246  1.00  0.00    -0.361 OA
HETATM   35  H   LIG     1      31.467  25.114  23.629  1.00  0.00     0.217 HD
ENDBRANCH  15  34
BRANCH   7  36
HETATM   36  O   LIG     1      27.512  22.281  22.986  1.00  0.00    -0.394 OA
HETATM   37  H   LIG     1      27.041  21.779  22.269  1.00  0.00     0.210 HD
ENDBRANCH   7  36
BRANCH  18  38
HETATM   38  O   LIG     1      29.674  26.986  28.244  1.00  0.00    -0.360 OA
HETATM   39  H   LIG     1      29.712  27.852  27.725  1.00  0.00     0.217 HD
ENDBRANCH  18  38
TORSDOF 7
ENDMDL
MODEL 8
REMARK VINA RESULT:      -4.4      6.700     12.025
REMARK  7 active torsions:
REMARK  status: ('A' for Active; 'I' for Inactive)
REMARK    1  A    between atoms: C_2  and  C_3 
REMARK       I    between atoms: C_2  and  N_32 
REMARK    2  A    between atoms: C_6  and  O_7 
REMARK    3  A    between atoms: C_8  and  N_9 
REMARK    4  A    between atoms: C_13  and  O_14 
REMARK    5  A    between atoms: C_22  and  O_23 
REMARK    6  A    between atoms: C_24  and  O_25 
REMARK    7  A    between atoms: C_27  and  O_28 
ROOT
HETATM    1  C   LIG     1      28.265  26.468  36.095  1.00  0.00     0.112 C 
HETATM    2  C   LIG     1      28.952  25.732  34.993  1.00  0.00     0.208 C 
HETATM    3  O   LIG     1      29.688  24.750  35.285  1.00  0.00    -0.288 OA
HETATM    4  C   LIG     1      27.508  27.563  35.832  1.00  0.00     0.096 C 
HETATM    5  C   LIG     1      27.405  28.138  34.429  1.00  0.00     0.289 C 
HETATM    6  C   LIG     1      27.554  27.004  33.384  1.00  0.00     0.104 C 
HETATM    7  C   LIG     1      27.354  27.454  31.925  1.00  0.00     0.137 C 
HETATM    8  C   LIG     1      27.237  26.189  31.032  1.00  0.00     0.063 C 
HETATM    9  C   LIG     1      27.355  26.441  29.502  1.00  0.00     0.027 C 
HETATM   10  C   LIG     1      28.756  26.893  29.032  1.00  0.00     0.016 C 
HETATM   11  C   LIG     1      26.996  25.170  28.753  1.00  0.00    -0.037 A 
HETATM   12  C   LIG     1      27.425  23.899  29.225  1.00  0.00     0.054 A 
HETATM   13  C   LIG     1      27.965  23.798  30.616  1.00  0.00     0.194 C 
HETATM   14  C   LIG     1      28.131  25.028  31.438  1.00  0.00     0.033 C 
HETATM   15  C   LIG     1      28.930  25.064  32.542  1.00  0.00     0.097 C 
HETATM   16  C   LIG     1      28.880  26.219  33.548  1.00  0.00     0.180 C 
HETATM   17  O   LIG     1      28.113  22.673  31.162  1.00  0.00    -0.287 OA
HETATM   18  C   LIG     1      27.227  22.763  28.390  1.00  0.00     0.080 A 
HETATM   19  C   LIG     1      26.505  22.891  27.200  1.00  0.00     0.037 A 
HETATM   20  C   LIG     1      26.034  24.133  26.782  1.00  0.00     0.003 A 
HETATM   21  C   LIG     1      26.297  25.268  27.540  1.00  0.00     0.009 A 
ENDROOT
BRANCH   1  22
HETATM   22  C   LIG     1      28.448  25.979  37.479  1.00  0.00     0.255 C 
HETATM   23  O   LIG     1      27.454  25.559  38.129  1.00  0.00    -0.268 OA
HETATM   24  N   LIG     1      29.747  25.929  38.069  1.00  0.00    -0.366 N 
HETATM   25  H   LIG     1      29.869  25.589  39.049  1.00  0.00     0.159 HD
HETATM   26  H   LIG     1      30.595  26.198  37.519  1.00  0.00     0.159 HD
ENDBRANCH   1  22
BRANCH   4  27
HETATM   27  O   LIG     1      26.780  28.214  36.832  1.00  0.00    -0.362 OA
HETATM   28  H   LIG     1      26.394  27.746  37.643  1.00  0.00     0.217 HD
ENDBRANCH   4  27
BRANCH   5  29
HETATM   29  N   LIG     1      28.345  29.270  34.152  1.00  0.00     0.091 N 
HETATM   30  C   LIG     1      27.620  30.535  33.943  1.00  0.00     0.310 C 
HETATM   31  C   LIG     1      29.419  29.476  35.143  1.00  0.00     0.310 C 
ENDBRANCH   5  29
BRANCH  16  32
HETATM   32  O   LIG     1      29.972  27.071  33.301  1.00  0.00    -0.374 OA
HETATM   33  H   LIG     1      30.028  27.227  32.321  1.00  0.00     0.211 HD
ENDBRANCH  16  32
BRANCH  15  34
HETATM   34  O   LIG     1      29.905  24.082  32.748  1.00  0.00    -0.361 OA
HETATM   35  H   LIG     1      30.784  24.252  33.221  1.00  0.00     0.217 HD
ENDBRANCH  15  34
BRANCH   7  36
HETATM   36  O   LIG     1      28.418  28.278  31.524  1.00  0.00    -0.394 OA
HETATM   37  H   LIG     1      28.194  28.642  30.627  1.00  0.00     0.210 HD
ENDBRANCH   7  36
BRANCH  18  38
HETATM   38  O   LIG     1      27.751  21.500  28.681  1.00  0.00    -0.360 OA
HETATM   39  H   LIG     1      28.293  20.953  28.027  1.00  0.00     0.217 HD
ENDBRANCH  18  38
TORSDOF 7
ENDMDL
MODEL 9
REMARK VINA RESULT:      -4.3      2.321      4.449
REMARK  7 active torsions:
REMARK  status: ('A' for Active; 'I' for Inactive)
REMARK    1  A    between atoms: C_2  and  C_3 
REMARK       I    between atoms: C_2  and  N_32 
REMARK    2  A    between atoms: C_6  and  O_7 
REMARK    3  A    between atoms: C_8  and  N_9 
REMARK    4  A    between atoms: C_13  and  O_14 
REMARK    5  A    between atoms: C_22  and  O_23 
REMARK    6  A    between atoms: C_24  and  O_25 
REMARK    7  A    between atoms: C_27  and  O_28 
ROOT
HETATM    1  C   LIG     1      25.936  21.026  18.694  1.00  0.00     0.112 C 
HETATM    2  C   LIG     1      25.231  21.866  19.707  1.00  0.00     0.208 C 
HETATM    3  O   LIG     1      23.970  21.895  19.698  1.00  0.00    -0.288 OA
HETATM    4  C   LIG     1      27.292  21.007  18.631  1.00  0.00     0.096 C 
HETATM    5  C   LIG     1      28.141  21.904  19.518  1.00  0.00     0.289 C 
HETATM    6  C   LIG     1      27.409  22.159  20.860  1.00  0.00     0.104 C 
HETATM    7  C   LIG     1      28.226  22.966  21.885  1.00  0.00     0.137 C 
HETATM    8  C   LIG     1      27.506  22.890  23.258  1.00  0.00     0.063 C 
HETATM    9  C   LIG     1      28.004  23.901  24.329  1.00  0.00     0.027 C 
HETATM   10  C   LIG     1      27.684  25.379  24.014  1.00  0.00     0.016 C 
HETATM   11  C   LIG     1      27.381  23.561  25.671  1.00  0.00    -0.037 A 
HETATM   12  C   LIG     1      26.022  23.154  25.763  1.00  0.00     0.054 A 
HETATM   13  C   LIG     1      25.305  22.770  24.507  1.00  0.00     0.194 C 
HETATM   14  C   LIG     1      25.987  22.909  23.192  1.00  0.00     0.033 C 
HETATM   15  C   LIG     1      25.302  22.927  22.014  1.00  0.00     0.097 C 
HETATM   16  C   LIG     1      26.002  22.776  20.659  1.00  0.00     0.180 C 
HETATM   17  O   LIG     1      24.202  22.165  24.563  1.00  0.00    -0.287 OA
HETATM   18  C   LIG     1      25.434  23.033  27.054  1.00  0.00     0.080 A 
HETATM   19  C   LIG     1      26.228  23.180  28.196  1.00  0.00     0.037 A 
HETATM   20  C   LIG     1      27.575  23.516  28.090  1.00  0.00     0.003 A 
HETATM   21  C   LIG     1      28.143  23.729  26.838  1.00  0.00     0.009 A 
ENDROOT
BRANCH   1  22
HETATM   22  C   LIG     1      25.117  20.232  17.754  1.00  0.00     0.255 C 
HETATM   23  O   LIG     1      25.435  20.182  16.536  1.00  0.00    -0.268 OA
HETATM   24  N   LIG     1      23.998  19.477  18.220  1.00  0.00    -0.366 N 
HETATM   25  H   LIG     1      23.420  18.923  17.550  1.00  0.00     0.159 HD
HETATM   26  H   LIG     1      23.765  19.440  19.238  1.00  0.00     0.159 HD
ENDBRANCH   1  22
BRANCH   4  27
HETATM   27  O   LIG     1      27.979  20.160  17.755  1.00  0.00    -0.362 OA
HETATM   28  H   LIG     1      27.537  19.660  16.994  1.00  0.00     0.217 HD
ENDBRANCH   4  27
BRANCH   5  29
HETATM   29  N   LIG     1      28.571  23.186  18.873  1.00  0.00     0.091 N 
HETATM   30  C   LIG     1      30.037  23.270  18.767  1.00  0.00     0.310 C 
HETATM   31  C   LIG     1      27.965  23.485  17.561  1.00  0.00     0.310 C 
ENDBRANCH   5  29
BRANCH  16  32
HETATM   32  O   LIG     1      26.118  24.050  20.074  1.00  0.00    -0.374 OA
HETATM   33  H   LIG     1      25.483  24.661  20.534  1.00  0.00     0.211 HD
ENDBRANCH  16  32
BRANCH  15  34
HETATM   34  O   LIG     1      23.925  23.183  21.994  1.00  0.00    -0.361 OA
HETATM   35  H   LIG     1      23.224  22.473  21.822  1.00  0.00     0.217 HD
ENDBRANCH  15  34
BRANCH   7  36
HETATM   36  O   LIG     1      28.374  24.293  21.448  1.00  0.00    -0.394 OA
HETATM   37  H   LIG     1      28.504  24.861  22.252  1.00  0.00     0.210 HD
ENDBRANCH   7  36
BRANCH  18  38
HETATM   38  O   LIG     1      24.072  22.798  27.255  1.00  0.00    -0.360 OA
HETATM   39  H   LIG     1      23.535  22.123  26.730  1.00  0.00     0.217 HD
ENDBRANCH  18  38
TORSDOF 7
ENDMDL
MODEL 10
REMARK VINA RESULT:      -4.2      2.295      4.412
REMARK  7 active torsions:
REMARK  status: ('A' for Active; 'I' for Inactive)
REMARK    1  A    between atoms: C_2  and  C_3 
REMARK       I    between atoms: C_2  and  N_32 
REMARK    2  A    between atoms: C_6  and  O_7 
REMARK    3  A    between atoms: C_8  and  N_9 
REMARK    4  A    between atoms: C_13  and  O_14 
REMARK    5  A    between atoms: C_22  and  O_23 
REMARK    6  A    between atoms: C_24  and  O_25 
REMARK    7  A    between atoms: C_27  and  O_28 
ROOT
HETATM    1  C   LIG     1      24.203  19.503  19.967  1.00  0.00     0.112 C 
HETATM    2  C   LIG     1      23.979  20.796  20.676  1.00  0.00     0.208 C 
HETATM    3  O   LIG     1      22.811  21.084  21.058  1.00  0.00    -0.288 OA
HETATM    4  C   LIG     1      25.432  19.177  19.491  1.00  0.00     0.096 C 
HETATM    5  C   LIG     1      26.599  20.147  19.573  1.00  0.00     0.289 C 
HETATM    6  C   LIG     1      26.443  21.049  20.823  1.00  0.00     0.104 C 
HETATM    7  C   LIG     1      27.629  22.000  21.072  1.00  0.00     0.137 C 
HETATM    8  C   LIG     1      27.478  22.614  22.489  1.00  0.00     0.063 C 
HETATM    9  C   LIG     1      28.397  23.833  22.788  1.00  0.00     0.027 C 
HETATM   10  C   LIG     1      28.060  25.104  21.978  1.00  0.00     0.016 C 
HETATM   11  C   LIG     1      28.310  24.178  24.264  1.00  0.00    -0.037 A 
HETATM   12  C   LIG     1      27.067  24.134  24.952  1.00  0.00     0.054 A 
HETATM   13  C   LIG     1      25.909  23.453  24.293  1.00  0.00     0.194 C 
HETATM   14  C   LIG     1      26.050  22.925  22.909  1.00  0.00     0.033 C 
HETATM   15  C   LIG     1      24.972  22.628  22.129  1.00  0.00     0.097 C 
HETATM   16  C   LIG     1      25.100  21.821  20.833  1.00  0.00     0.180 C 
HETATM   17  O   LIG     1      24.878  23.163  24.957  1.00  0.00    -0.287 OA
HETATM   18  C   LIG     1      27.005  24.649  26.278  1.00  0.00     0.080 A 
HETATM   19  C   LIG     1      28.178  25.058  26.921  1.00  0.00     0.037 A 
HETATM   20  C   LIG     1      29.401  25.035  26.255  1.00  0.00     0.003 A 
HETATM   21  C   LIG     1      29.464  24.622  24.929  1.00  0.00     0.009 A 
ENDROOT
BRANCH   1  22
HETATM   22  C   LIG     1      23.048  18.597  19.785  1.00  0.00     0.255 C 
HETATM   23  O   LIG     1      22.628  18.347  18.624  1.00  0.00    -0.268 OA
HETATM   24  N   LIG     1      22.437  17.961  20.908  1.00  0.00    -0.366 N 
HETATM   25  H   LIG     1      21.617  17.328  20.774  1.00  0.00     0.159 HD
HETATM   26  H   LIG     1      22.820  18.092  21.871  1.00  0.00     0.159 HD
ENDBRANCH   1  22
BRANCH   4  27
HETATM   27  O   LIG     1      25.690  17.933  18.906  1.00  0.00    -0.362 OA
HETATM   28  H   LIG     1      25.159  17.095  19.107  1.00  0.00     0.217 HD
ENDBRANCH   4  27
BRANCH   5  29
HETATM   29  N   LIG     1      26.821  20.957  18.333  1.00  0.00     0.091 N 
HETATM   30  C   LIG     1      28.147  20.695  17.748  1.00  0.00     0.310 C 
HETATM   31  C   LIG     1      25.788  20.833  17.286  1.00  0.00     0.310 C 
ENDBRANCH   5  29
BRANCH  16  32
HETATM   32  O   LIG     1      25.054  22.714  19.747  1.00  0.00    -0.374 OA
HETATM   33  H   LIG     1      25.799  23.364  19.849  1.00  0.00     0.211 HD
ENDBRANCH  16  32
BRANCH  15  34
HETATM   34  O   LIG     1      23.706  23.139  22.439  1.00  0.00    -0.361 OA
HETATM   35  H   LIG     1      22.951  22.580  22.817  1.00  0.00     0.217 HD
ENDBRANCH  15  34
BRANCH   7  36
HETATM   36  O   LIG     1      27.670  22.991  20.076  1.00  0.00    -0.394 OA
HETATM   37  H   LIG     1      26.991  23.677  20.308  1.00  0.00     0.210 HD
ENDBRANCH   7  36
BRANCH  18  38
HETATM   38  O   LIG     1      25.809  24.802  26.984  1.00  0.00    -0.360 OA
HETATM   39  H   LIG     1      25.759  24.898  27.988  1.00  0.00     0.217 HD
ENDBRANCH  18  38
TORSDOF 7
ENDMDL
MODEL 11
REMARK VINA RESULT:      -4.2      7.429     12.615
REMARK  7 active torsions:
REMARK  status: ('A' for Active; 'I' for Inactive)
REMARK    1  A    between atoms: C_2  and  C_3 
REMARK       I    between atoms: C_2  and  N_32 
REMARK    2  A    between atoms: C_6  and  O_7 
REMARK    3  A    between atoms: C_8  and  N_9 
REMARK    4  A    between atoms: C_13  and  O_14 
REMARK    5  A    between atoms: C_22  and  O_23 
REMARK    6  A    between atoms: C_24  and  O_25 
REMARK    7  A    between atoms: C_27  and  O_28 
ROOT
HETATM    1  C   LIG     1      27.736  29.127  35.879  1.00  0.00     0.112 C 
HETATM    2  C   LIG     1      26.959  28.387  34.842  1.00  0.00     0.208 C 
HETATM    3  O   LIG     1      25.924  28.924  34.361  1.00  0.00    -0.288 OA
HETATM    4  C   LIG     1      28.825  28.566  36.463  1.00  0.00     0.096 C 
HETATM    5  C   LIG     1      29.239  27.135  36.160  1.00  0.00     0.289 C 
HETATM    6  C   LIG     1      28.835  26.768  34.709  1.00  0.00     0.104 C 
HETATM    7  C   LIG     1      29.306  25.375  34.252  1.00  0.00     0.137 C 
HETATM    8  C   LIG     1      29.098  25.265  32.717  1.00  0.00     0.063 C 
HETATM    9  C   LIG     1      29.212  23.829  32.131  1.00  0.00     0.027 C 
HETATM   10  C   LIG     1      28.081  22.869  32.560  1.00  0.00     0.016 C 
HETATM   11  C   LIG     1      29.217  23.904  30.614  1.00  0.00    -0.037 A 
HETATM   12  C   LIG     1      28.362  24.807  29.926  1.00  0.00     0.054 A 
HETATM   13  C   LIG     1      27.688  25.890  30.707  1.00  0.00     0.194 C 
HETATM   14  C   LIG     1      27.846  25.946  32.186  1.00  0.00     0.033 C 
HETATM   15  C   LIG     1      26.999  26.657  32.983  1.00  0.00     0.097 C 
HETATM   16  C   LIG     1      27.319  26.956  34.451  1.00  0.00     0.180 C 
HETATM   17  O   LIG     1      27.139  26.856  30.114  1.00  0.00    -0.287 OA
HETATM   18  C   LIG     1      28.265  24.704  28.509  1.00  0.00     0.080 A 
HETATM   19  C   LIG     1      29.101  23.822  27.817  1.00  0.00     0.037 A 
HETATM   20  C   LIG     1      29.981  22.988  28.501  1.00  0.00     0.003 A 
HETATM   21  C   LIG     1      30.022  23.010  29.891  1.00  0.00     0.009 A 
ENDROOT
BRANCH   1  22
HETATM   22  C   LIG     1      27.277  30.480  36.261  1.00  0.00     0.255 C 
HETATM   23  O   LIG     1      28.069  31.457  36.173  1.00  0.00    -0.268 OA
HETATM   24  N   LIG     1      25.929  30.702  36.678  1.00  0.00    -0.366 N 
HETATM   25  H   LIG     1      25.613  31.659  36.952  1.00  0.00     0.159 HD
HETATM   26  H   LIG     1      25.235  29.921  36.681  1.00  0.00     0.159 HD
ENDBRANCH   1  22
BRANCH   4  27
HETATM   27  O   LIG     1      29.625  29.272  37.368  1.00  0.00    -0.362 OA
HETATM   28  H   LIG     1      30.632  29.341  37.293  1.00  0.00     0.217 HD
ENDBRANCH   4  27
BRANCH   5  29
HETATM   29  N   LIG     1      28.739  26.122  37.144  1.00  0.00     0.091 N 
HETATM   30  C   LIG     1      29.850  25.466  37.853  1.00  0.00     0.310 C 
HETATM   31  C   LIG     1      27.747  26.607  38.123  1.00  0.00     0.310 C 
ENDBRANCH   5  29
BRANCH  16  32
HETATM   32  O   LIG     1      26.584  26.067  35.257  1.00  0.00    -0.374 OA
HETATM   33  H   LIG     1      25.744  25.837  34.777  1.00  0.00     0.211 HD
ENDBRANCH  16  32
BRANCH  15  34
HETATM   34  O   LIG     1      25.747  27.063  32.508  1.00  0.00    -0.361 OA
HETATM   35  H   LIG     1      25.212  27.822  32.912  1.00  0.00     0.217 HD
ENDBRANCH  15  34
BRANCH   7  36
HETATM   36  O   LIG     1      28.604  24.376  34.946  1.00  0.00    -0.394 OA
HETATM   37  H   LIG     1      28.949  23.498  34.637  1.00  0.00     0.210 HD
ENDBRANCH   7  36
BRANCH  18  38
HETATM   38  O   LIG     1      27.341  25.428  27.751  1.00  0.00    -0.360 OA
HETATM   39  H   LIG     1      27.580  25.937  26.912  1.00  0.00     0.217 HD
ENDBRANCH  18  38
TORSDOF 7
ENDMDL
MODEL 12
REMARK VINA RESULT:      -4.2      3.187      6.738
REMARK  7 active torsions:
REMARK  status: ('A' for Active; 'I' for Inactive)
REMARK    1  A    between atoms: C_2  and  C_3 
REMARK       I    between atoms: C_2  and  N_32 
REMARK    2  A    between atoms: C_6  and  O_7 
REMARK    3  A    between atoms: C_8  and  N_9 
REMARK    4  A    between atoms: C_13  and  O_14 
REMARK    5  A    between atoms: C_22  and  O_23 
REMARK    6  A    between atoms: C_24  and  O_25 
REMARK    7  A    between atoms: C_27  and  O_28 
ROOT
HETATM    1  C   LIG     1      26.725  20.643  27.611  1.00  0.00     0.112 C 
HETATM    2  C   LIG     1      26.549  21.951  26.914  1.00  0.00     0.208 C 
HETATM    3  O   LIG     1      27.089  22.979  27.407  1.00  0.00    -0.288 OA
HETATM    4  C   LIG     1      26.118  19.522  27.146  1.00  0.00     0.096 C 
HETATM    5  C   LIG     1      25.165  19.567  25.963  1.00  0.00     0.289 C 
HETATM    6  C   LIG     1      25.581  20.706  24.998  1.00  0.00     0.104 C 
HETATM    7  C   LIG     1      24.751  20.775  23.703  1.00  0.00     0.137 C 
HETATM    8  C   LIG     1      25.455  21.748  22.719  1.00  0.00     0.063 C 
HETATM    9  C   LIG     1      24.602  22.191  21.496  1.00  0.00     0.027 C 
HETATM   10  C   LIG     1      23.398  23.092  21.846  1.00  0.00     0.016 C 
HETATM   11  C   LIG     1      25.483  22.944  20.515  1.00  0.00    -0.037 A 
HETATM   12  C   LIG     1      26.466  23.863  20.973  1.00  0.00     0.054 A 
HETATM   13  C   LIG     1      26.833  23.853  22.423  1.00  0.00     0.194 C 
HETATM   14  C   LIG     1      26.106  22.961  23.366  1.00  0.00     0.033 C 
HETATM   15  C   LIG     1      26.129  23.152  24.715  1.00  0.00     0.097 C 
HETATM   16  C   LIG     1      25.635  22.086  25.699  1.00  0.00     0.180 C 
HETATM   17  O   LIG     1      27.864  24.455  22.824  1.00  0.00    -0.287 OA
HETATM   18  C   LIG     1      27.130  24.680  20.015  1.00  0.00     0.080 A 
HETATM   19  C   LIG     1      26.907  24.474  18.650  1.00  0.00     0.037 A 
HETATM   20  C   LIG     1      25.987  23.524  18.213  1.00  0.00     0.003 A 
HETATM   21  C   LIG     1      25.262  22.781  19.138  1.00  0.00     0.009 A 
ENDROOT
BRANCH   1  22
HETATM   22  C   LIG     1      27.565  20.609  28.828  1.00  0.00     0.255 C 
HETATM   23  O   LIG     1      28.614  19.912  28.844  1.00  0.00    -0.268 OA
HETATM   24  N   LIG     1      27.228  21.399  29.969  1.00  0.00    -0.366 N 
HETATM   25  H   LIG     1      27.821  21.366  30.827  1.00  0.00     0.159 HD
HETATM   26  H   LIG     1      26.406  22.045  29.948  1.00  0.00     0.159 HD
ENDBRANCH   1  22
BRANCH   4  27
HETATM   27  O   LIG     1      26.341  18.268  27.725  1.00  0.00    -0.362 OA
HETATM   28  H   LIG     1      25.677  17.803  28.332  1.00  0.00     0.217 HD
ENDBRANCH   4  27
BRANCH   5  29
HETATM   29  N   LIG     1      23.717  19.661  26.336  1.00  0.00     0.091 N 
HETATM   30  C   LIG     1      22.965  18.482  25.878  1.00  0.00     0.310 C 
HETATM   31  C   LIG     1      23.432  19.905  27.764  1.00  0.00     0.310 C 
ENDBRANCH   5  29
BRANCH  16  32
HETATM   32  O   LIG     1      24.348  22.449  26.138  1.00  0.00    -0.374 OA
HETATM   33  H   LIG     1      23.787  21.629  26.163  1.00  0.00     0.211 HD
ENDBRANCH  16  32
BRANCH  15  34
HETATM   34  O   LIG     1      26.522  24.383  25.254  1.00  0.00    -0.361 OA
HETATM   35  H   LIG     1      27.293  24.932  24.896  1.00  0.00     0.217 HD
ENDBRANCH  15  34
BRANCH   7  36
HETATM   36  O   LIG     1      23.438  21.186  23.992  1.00  0.00    -0.394 OA
HETATM   37  H   LIG     1      22.822  20.598  23.481  1.00  0.00     0.210 HD
ENDBRANCH   7  36
BRANCH  18  38
HETATM   38  O   LIG     1      27.991  25.724  20.366  1.00  0.00    -0.360 OA
HETATM   39  H   LIG     1      27.684  26.668  20.548  1.00  0.00     0.217 HD
ENDBRANCH  18  38
TORSDOF 7
ENDMDL
MODEL 13
REMARK VINA RESULT:      -4.1      2.887      5.143
REMARK  7 active torsions:
REMARK  status: ('A' for Active; 'I' for Inactive)
REMARK    1  A    between atoms: C_2  and  C_3 
REMARK       I    between atoms: C_2  and  N_32 
REMARK    2  A    between atoms: C_6  and  O_7 
REMARK    3  A    between atoms: C_8  and  N_9 
REMARK    4  A    between atoms: C_13  and  O_14 
REMARK    5  A    between atoms: C_22  and  O_23 
REMARK    6  A    between atoms: C_24  and  O_25 
REMARK    7  A    between atoms: C_27  and  O_28 
ROOT
HETATM    1  C   LIG     1      25.482  20.801  18.934  1.00  0.00     0.112 C 
HETATM    2  C   LIG     1      24.422  21.167  19.919  1.00  0.00     0.208 C 
HETATM    3  O   LIG     1      23.213  20.992  19.603  1.00  0.00    -0.288 OA
HETATM    4  C   LIG     1      26.792  21.022  19.210  1.00  0.00     0.096 C 
HETATM    5  C   LIG     1      27.227  21.734  20.481  1.00  0.00     0.289 C 
HETATM    6  C   LIG     1      26.211  21.447  21.616  1.00  0.00     0.104 C 
HETATM    7  C   LIG     1      26.610  22.026  22.986  1.00  0.00     0.137 C 
HETATM    8  C   LIG     1      25.675  21.420  24.067  1.00  0.00     0.063 C 
HETATM    9  C   LIG     1      25.713  22.126  25.452  1.00  0.00     0.027 C 
HETATM   10  C   LIG     1      25.132  23.558  25.460  1.00  0.00     0.016 C 
HETATM   11  C   LIG     1      24.937  21.298  26.461  1.00  0.00    -0.037 A 
HETATM   12  C   LIG     1      23.715  20.668  26.101  1.00  0.00     0.054 A 
HETATM   13  C   LIG     1      23.360  20.571  24.650  1.00  0.00     0.194 C 
HETATM   14  C   LIG     1      24.233  21.212  23.630  1.00  0.00     0.033 C 
HETATM   15  C   LIG     1      23.802  21.474  22.364  1.00  0.00     0.097 C 
HETATM   16  C   LIG     1      24.767  21.857  21.236  1.00  0.00     0.180 C 
HETATM   17  O   LIG     1      22.434  19.807  24.271  1.00  0.00    -0.287 OA
HETATM   18  C   LIG     1      22.933  20.066  27.127  1.00  0.00     0.080 A 
HETATM   19  C   LIG     1      23.436  19.988  28.430  1.00  0.00     0.037 A 
HETATM   20  C   LIG     1      24.666  20.554  28.754  1.00  0.00     0.003 A 
HETATM   21  C   LIG     1      25.401  21.226  27.784  1.00  0.00     0.009 A 
ENDROOT
BRANCH   1  22
HETATM   22  C   LIG     1      25.062  20.207  17.647  1.00  0.00     0.255 C 
HETATM   23  O   LIG     1      25.645  20.545  16.583  1.00  0.00    -0.268 OA
HETATM   24  N   LIG     1      24.037  19.213  17.602  1.00  0.00    -0.366 N 
HETATM   25  H   LIG     1      23.740  18.803  16.689  1.00  0.00     0.159 HD
HETATM   26  H   LIG     1      23.596  18.860  18.481  1.00  0.00     0.159 HD
ENDBRANCH   1  22
BRANCH   4  27
HETATM   27  O   LIG     1      27.809  20.605  18.346  1.00  0.00    -0.362 OA
HETATM   28  H   LIG     1      28.462  21.236  17.899  1.00  0.00     0.217 HD
ENDBRANCH   4  27
BRANCH   5  29
HETATM   29  N   LIG     1      27.470  23.202  20.318  1.00  0.00     0.091 N 
HETATM   30  C   LIG     1      28.875  23.549  20.591  1.00  0.00     0.310 C 
HETATM   31  C   LIG     1      27.061  23.786  19.025  1.00  0.00     0.310 C 
ENDBRANCH   5  29
BRANCH  16  32
HETATM   32  O   LIG     1      24.701  23.250  21.049  1.00  0.00    -0.374 OA
HETATM   33  H   LIG     1      23.822  23.567  21.391  1.00  0.00     0.211 HD
ENDBRANCH  16  32
BRANCH  15  34
HETATM   34  O   LIG     1      22.435  21.497  22.067  1.00  0.00    -0.361 OA
HETATM   35  H   LIG     1      22.051  21.882  21.213  1.00  0.00     0.217 HD
ENDBRANCH  15  34
BRANCH   7  36
HETATM   36  O   LIG     1      26.533  23.429  22.957  1.00  0.00    -0.394 OA
HETATM   37  H   LIG     1      27.202  23.779  23.603  1.00  0.00     0.210 HD
ENDBRANCH   7  36
BRANCH  18  38
HETATM   38  O   LIG     1      21.647  19.563  26.914  1.00  0.00    -0.360 OA
HETATM   39  H   LIG     1      20.908  19.599  27.602  1.00  0.00     0.217 HD
ENDBRANCH  18  38
TORSDOF 7
ENDMDL
MODEL 14
REMARK VINA RESULT:      -4.0      2.031      2.743
REMARK  7 active torsions:
REMARK  status: ('A' for Active; 'I' for Inactive)
REMARK    1  A    between atoms: C_2  and  C_3 
REMARK       I    between atoms: C_2  and  N_32 
REMARK    2  A    between atoms: C_6  and  O_7 
REMARK    3  A    between atoms: C_8  and  N_9 
REMARK    4  A    between atoms: C_13  and  O_14 
REMARK    5  A    between atoms: C_22  and  O_23 
REMARK    6  A    between atoms: C_24  and  O_25 
REMARK    7  A    between atoms: C_27  and  O_28 
ROOT
HETATM    1  C   LIG     1      27.644  24.177  20.443  1.00  0.00     0.112 C 
HETATM    2  C   LIG     1      28.744  24.461  21.410  1.00  0.00     0.208 C 
HETATM    3  O   LIG     1      29.819  24.960  20.977  1.00  0.00    -0.288 OA
HETATM    4  C   LIG     1      26.491  23.591  20.855  1.00  0.00     0.096 C 
HETATM    5  C   LIG     1      26.311  23.115  22.287  1.00  0.00     0.289 C 
HETATM    6  C   LIG     1      27.136  24.012  23.245  1.00  0.00     0.104 C 
HETATM    7  C   LIG     1      26.941  23.692  24.739  1.00  0.00     0.137 C 
HETATM    8  C   LIG     1      27.579  24.835  25.574  1.00  0.00     0.063 C 
HETATM    9  C   LIG     1      27.764  24.531  27.087  1.00  0.00     0.027 C 
HETATM   10  C   LIG     1      28.814  23.441  27.399  1.00  0.00     0.016 C 
HETATM   11  C   LIG     1      28.177  25.801  27.810  1.00  0.00    -0.037 A 
HETATM   12  C   LIG     1      29.104  26.706  27.223  1.00  0.00     0.054 A 
HETATM   13  C   LIG     1      29.431  26.553  25.771  1.00  0.00     0.194 C 
HETATM   14  C   LIG     1      28.862  25.415  24.999  1.00  0.00     0.033 C 
HETATM   15  C   LIG     1      29.383  25.010  23.806  1.00  0.00     0.097 C 
HETATM   16  C   LIG     1      28.640  24.047  22.875  1.00  0.00     0.180 C 
HETATM   17  O   LIG     1      30.034  27.470  25.153  1.00  0.00    -0.287 OA
HETATM   18  C   LIG     1      29.602  27.778  28.016  1.00  0.00     0.080 A 
HETATM   19  C   LIG     1      29.077  28.000  29.293  1.00  0.00     0.037 A 
HETATM   20  C   LIG     1      28.121  27.142  29.831  1.00  0.00     0.003 A 
HETATM   21  C   LIG     1      27.691  26.037  29.105  1.00  0.00     0.009 A 
ENDROOT
BRANCH   1  22
HETATM   22  C   LIG     1      27.852  24.538  19.023  1.00  0.00     0.255 C 
HETATM   23  O   LIG     1      27.104  25.393  18.480  1.00  0.00    -0.268 OA
HETATM   24  N   LIG     1      28.926  23.966  18.276  1.00  0.00    -0.366 N 
HETATM   25  H   LIG     1      29.065  24.219  17.273  1.00  0.00     0.159 HD
HETATM   26  H   LIG     1      29.607  23.315  18.731  1.00  0.00     0.159 HD
ENDBRANCH   1  22
BRANCH   4  27
HETATM   27  O   LIG     1      25.409  23.398  19.989  1.00  0.00    -0.362 OA
HETATM   28  H   LIG     1      25.180  22.508  19.565  1.00  0.00     0.217 HD
ENDBRANCH   4  27
BRANCH   5  29
HETATM   29  N   LIG     1      26.606  21.663  22.501  1.00  0.00     0.091 N 
HETATM   30  C   LIG     1      25.411  20.931  22.954  1.00  0.00     0.310 C 
HETATM   31  C   LIG     1      27.216  20.952  21.359  1.00  0.00     0.310 C 
ENDBRANCH   5  29
BRANCH  16  32
HETATM   32  O   LIG     1      29.198  22.764  23.025  1.00  0.00    -0.374 OA
HETATM   33  H   LIG     1      28.454  22.112  23.124  1.00  0.00     0.211 HD
ENDBRANCH  16  32
BRANCH  15  34
HETATM   34  O   LIG     1      30.676  25.391  23.428  1.00  0.00    -0.361 OA
HETATM   35  H   LIG     1      31.002  25.398  22.470  1.00  0.00     0.217 HD
ENDBRANCH  15  34
BRANCH   7  36
HETATM   36  O   LIG     1      27.510  22.444  25.044  1.00  0.00    -0.394 OA
HETATM   37  H   LIG     1      27.248  21.812  24.325  1.00  0.00     0.210 HD
ENDBRANCH   7  36
BRANCH  18  38
HETATM   38  O   LIG     1      30.631  28.625  27.598  1.00  0.00    -0.360 OA
HETATM   39  H   LIG     1      30.558  29.249  26.806  1.00  0.00     0.217 HD
ENDBRANCH  18  38
TORSDOF 7
ENDMDL
MODEL 15
REMARK VINA RESULT:      -3.9      2.944      7.654
REMARK  7 active torsions:
REMARK  status: ('A' for Active; 'I' for Inactive)
REMARK    1  A    between atoms: C_2  and  C_3 
REMARK       I    between atoms: C_2  and  N_32 
REMARK    2  A    between atoms: C_6  and  O_7 
REMARK    3  A    between atoms: C_8  and  N_9 
REMARK    4  A    between atoms: C_13  and  O_14 
REMARK    5  A    between atoms: C_22  and  O_23 
REMARK    6  A    between atoms: C_24  and  O_25 
REMARK    7  A    between atoms: C_27  and  O_28 
ROOT
HETATM    1  C   LIG     1      27.873  22.230  25.525  1.00  0.00     0.112 C 
HETATM    2  C   LIG     1      26.586  22.587  24.858  1.00  0.00     0.208 C 
HETATM    3  O   LIG     1      26.293  23.805  24.718  1.00  0.00    -0.288 OA
HETATM    4  C   LIG     1      28.204  20.933  25.746  1.00  0.00     0.096 C 
HETATM    5  C   LIG     1      27.245  19.801  25.415  1.00  0.00     0.289 C 
HETATM    6  C   LIG     1      26.357  20.202  24.210  1.00  0.00     0.104 C 
HETATM    7  C   LIG     1      25.420  19.086  23.712  1.00  0.00     0.137 C 
HETATM    8  C   LIG     1      24.822  19.519  22.346  1.00  0.00     0.063 C 
HETATM    9  C   LIG     1      23.616  18.672  21.850  1.00  0.00     0.027 C 
HETATM   10  C   LIG     1      22.331  18.829  22.693  1.00  0.00     0.016 C 
HETATM   11  C   LIG     1      23.287  19.055  20.417  1.00  0.00    -0.037 A 
HETATM   12  C   LIG     1      23.329  20.413  19.998  1.00  0.00     0.054 A 
HETATM   13  C   LIG     1      23.992  21.417  20.888  1.00  0.00     0.194 C 
HETATM   14  C   LIG     1      24.504  21.001  22.222  1.00  0.00     0.033 C 
HETATM   15  C   LIG     1      24.782  21.899  23.208  1.00  0.00     0.097 C 
HETATM   16  C   LIG     1      25.574  21.515  24.462  1.00  0.00     0.180 C 
HETATM   17  O   LIG     1      24.281  22.562  20.452  1.00  0.00    -0.287 OA
HETATM   18  C   LIG     1      22.831  20.740  18.705  1.00  0.00     0.080 A 
HETATM   19  C   LIG     1      22.440  19.720  17.831  1.00  0.00     0.037 A 
HETATM   20  C   LIG     1      22.465  18.387  18.234  1.00  0.00     0.003 A 
HETATM   21  C   LIG     1      22.863  18.058  19.526  1.00  0.00     0.009 A 
ENDROOT
BRANCH   1  22
HETATM   22  C   LIG     1      28.766  23.330  25.950  1.00  0.00     0.255 C 
HETATM   23  O   LIG     1      29.917  23.430  25.447  1.00  0.00    -0.268 OA
HETATM   24  N   LIG     1      28.319  24.311  26.887  1.00  0.00    -0.366 N 
HETATM   25  H   LIG     1      28.957  25.081  27.188  1.00  0.00     0.159 HD
HETATM   26  H   LIG     1      27.342  24.292  27.255  1.00  0.00     0.159 HD
ENDBRANCH   1  22
BRANCH   4  27
HETATM   27  O   LIG     1      29.443  20.568  26.284  1.00  0.00    -0.362 OA
HETATM   28  H   LIG     1      29.550  19.973  27.095  1.00  0.00     0.217 HD
ENDBRANCH   4  27
BRANCH   5  29
HETATM   29  N   LIG     1      26.422  19.326  26.572  1.00  0.00     0.091 N 
HETATM   30  C   LIG     1      26.747  17.936  26.931  1.00  0.00     0.310 C 
HETATM   31  C   LIG     1      26.462  20.170  27.783  1.00  0.00     0.310 C 
ENDBRANCH   5  29
BRANCH  16  32
HETATM   32  O   LIG     1      24.667  21.333  25.523  1.00  0.00    -0.374 OA
HETATM   33  H   LIG     1      24.076  20.567  25.297  1.00  0.00     0.211 HD
ENDBRANCH  16  32
BRANCH  15  34
HETATM   34  O   LIG     1      24.264  23.198  23.155  1.00  0.00    -0.361 OA
HETATM   35  H   LIG     1      23.668  23.596  23.871  1.00  0.00     0.217 HD
ENDBRANCH  15  34
BRANCH   7  36
HETATM   36  O   LIG     1      24.417  18.837  24.664  1.00  0.00    -0.394 OA
HETATM   37  H   LIG     1      24.786  19.074  25.556  1.00  0.00     0.210 HD
ENDBRANCH   7  36
BRANCH  18  38
HETATM   38  O   LIG     1      22.676  22.054  18.255  1.00  0.00    -0.360 OA
HETATM   39  H   LIG     1      22.550  22.303  17.284  1.00  0.00     0.217 HD
ENDBRANCH  18  38
TORSDOF 7
ENDMDL
MODEL 16
REMARK VINA RESULT:      -3.7      2.388      4.418
REMARK  7 active torsions:
REMARK  status: ('A' for Active; 'I' for Inactive)
REMARK    1  A    between atoms: C_2  and  C_3 
REMARK       I    between atoms: C_2  and  N_32 
REMARK    2  A    between atoms: C_6  and  O_7 
REMARK    3  A    between atoms: C_8  and  N_9 
REMARK    4  A    between atoms: C_13  and  O_14 
REMARK    5  A    between atoms: C_22  and  O_23 
REMARK    6  A    between atoms: C_24  and  O_25 
REMARK    7  A    between atoms: C_27  and  O_28 
ROOT
HETATM    1  C   LIG     1      24.907  19.796  24.271  1.00  0.00     0.112 C 
HETATM    2  C   LIG     1      24.690  21.190  24.757  1.00  0.00     0.208 C 
HETATM    3  O   LIG     1      23.620  21.461  25.367  1.00  0.00    -0.288 OA
HETATM    4  C   LIG     1      26.018  19.472  23.563  1.00  0.00     0.096 C 
HETATM    5  C   LIG     1      27.035  20.526  23.155  1.00  0.00     0.289 C 
HETATM    6  C   LIG     1      27.065  21.661  24.210  1.00  0.00     0.104 C 
HETATM    7  C   LIG     1      28.142  22.732  23.959  1.00  0.00     0.137 C 
HETATM    8  C   LIG     1      28.253  23.623  25.226  1.00  0.00     0.063 C 
HETATM    9  C   LIG     1      29.051  24.946  25.042  1.00  0.00     0.027 C 
HETATM   10  C   LIG     1      28.369  25.983  24.122  1.00  0.00     0.016 C 
HETATM   11  C   LIG     1      29.273  25.593  26.397  1.00  0.00    -0.037 A 
HETATM   12  C   LIG     1      28.245  25.600  27.379  1.00  0.00     0.054 A 
HETATM   13  C   LIG     1      27.062  24.705  27.183  1.00  0.00     0.194 C 
HETATM   14  C   LIG     1      26.938  23.904  25.935  1.00  0.00     0.033 C 
HETATM   15  C   LIG     1      25.754  23.363  25.531  1.00  0.00     0.097 C 
HETATM   16  C   LIG     1      25.674  22.308  24.423  1.00  0.00     0.180 C 
HETATM   17  O   LIG     1      26.265  24.484  28.133  1.00  0.00    -0.287 OA
HETATM   18  C   LIG     1      28.433  26.381  28.554  1.00  0.00     0.080 A 
HETATM   19  C   LIG     1      29.662  27.009  28.783  1.00  0.00     0.037 A 
HETATM   20  C   LIG     1      30.684  26.940  27.840  1.00  0.00     0.003 A 
HETATM   21  C   LIG     1      30.484  26.257  26.645  1.00  0.00     0.009 A 
ENDROOT
BRANCH   1  22
HETATM   22  C   LIG     1      23.869  18.785  24.568  1.00  0.00     0.255 C 
HETATM   23  O   LIG     1      23.325  18.151  23.624  1.00  0.00    -0.268 OA
HETATM   24  N   LIG     1      23.513  18.480  25.917  1.00  0.00    -0.366 N 
HETATM   25  H   LIG     1      22.776  17.769  26.120  1.00  0.00     0.159 HD
HETATM   26  H   LIG     1      24.009  18.936  26.717  1.00  0.00     0.159 HD
ENDBRANCH   1  22
BRANCH   4  27
HETATM   27  O   LIG     1      26.290  18.155  23.176  1.00  0.00    -0.362 OA
HETATM   28  H   LIG     1      26.640  17.445  23.806  1.00  0.00     0.217 HD
ENDBRANCH   4  27
BRANCH   5  29
HETATM   29  N   LIG     1      26.849  21.065  21.771  1.00  0.00     0.091 N 
HETATM   30  C   LIG     1      28.018  20.782  20.921  1.00  0.00     0.310 C 
HETATM   31  C   LIG     1      25.619  20.644  21.072  1.00  0.00     0.310 C 
ENDBRANCH   5  29
BRANCH  16  32
HETATM   32  O   LIG     1      25.256  22.940  23.237  1.00  0.00    -0.374 OA
HETATM   33  H   LIG     1      24.616  23.662  23.480  1.00  0.00     0.211 HD
ENDBRANCH  16  32
BRANCH  15  34
HETATM   34  O   LIG     1      24.542  23.828  26.057  1.00  0.00    -0.361 OA
HETATM   35  H   LIG     1      24.261  23.699  27.021  1.00  0.00     0.217 HD
ENDBRANCH  15  34
BRANCH   7  36
HETATM   36  O   LIG     1      27.817  23.486  22.819  1.00  0.00    -0.394 OA
HETATM   37  H   LIG     1      28.548  24.143  22.676  1.00  0.00     0.210 HD
ENDBRANCH   7  36
BRANCH  18  38
HETATM   38  O   LIG     1      27.430  26.589  29.504  1.00  0.00    -0.360 OA
HETATM   39  H   LIG     1      27.440  26.184  30.430  1.00  0.00     0.217 HD
ENDBRANCH  18  38
TORSDOF 7
ENDMDL
MODEL 17
REMARK VINA RESULT:      -3.7      3.112      7.108
REMARK  7 active torsions:
REMARK  status: ('A' for Active; 'I' for Inactive)
REMARK    1  A    between atoms: C_2  and  C_3 
REMARK       I    between atoms: C_2  and  N_32 
REMARK    2  A    between atoms: C_6  and  O_7 
REMARK    3  A    between atoms: C_8  and  N_9 
REMARK    4  A    between atoms: C_13  and  O_14 
REMARK    5  A    between atoms: C_22  and  O_23 
REMARK    6  A    between atoms: C_24  and  O_25 
REMARK    7  A    between atoms: C_27  and  O_28 
ROOT
HETATM    1  C   LIG     1      28.786  23.420  27.236  1.00  0.00     0.112 C 
HETATM    2  C   LIG     1      28.497  24.482  26.229  1.00  0.00     0.208 C 
HETATM    3  O   LIG     1      28.911  25.654  26.447  1.00  0.00    -0.288 OA
HETATM    4  C   LIG     1      28.314  22.158  27.069  1.00  0.00     0.096 C 
HETATM    5  C   LIG     1      27.400  21.799  25.909  1.00  0.00     0.289 C 
HETATM    6  C   LIG     1      27.726  22.696  24.688  1.00  0.00     0.104 C 
HETATM    7  C   LIG     1      26.936  22.345  23.413  1.00  0.00     0.137 C 
HETATM    8  C   LIG     1      27.567  23.109  22.218  1.00  0.00     0.063 C 
HETATM    9  C   LIG     1      26.713  23.134  20.919  1.00  0.00     0.027 C 
HETATM   10  C   LIG     1      25.410  23.958  21.022  1.00  0.00     0.016 C 
HETATM   11  C   LIG     1      27.542  23.706  19.782  1.00  0.00    -0.037 A 
HETATM   12  C   LIG     1      28.409  24.812  19.996  1.00  0.00     0.054 A 
HETATM   13  C   LIG     1      28.728  25.209  21.403  1.00  0.00     0.194 C 
HETATM   14  C   LIG     1      28.067  24.509  22.538  1.00  0.00     0.033 C 
HETATM   15  C   LIG     1      28.026  25.036  23.795  1.00  0.00     0.097 C 
HETATM   16  C   LIG     1      27.614  24.206  25.015  1.00  0.00     0.180 C 
HETATM   17  O   LIG     1      29.677  26.001  21.642  1.00  0.00    -0.287 OA
HETATM   18  C   LIG     1      29.015  25.429  18.866  1.00  0.00     0.080 A 
HETATM   19  C   LIG     1      28.859  24.862  17.597  1.00  0.00     0.037 A 
HETATM   20  C   LIG     1      28.058  23.738  17.411  1.00  0.00     0.003 A 
HETATM   21  C   LIG     1      27.384  23.178  18.491  1.00  0.00     0.009 A 
ENDROOT
BRANCH   1  22
HETATM   22  C   LIG     1      29.584  23.785  28.426  1.00  0.00     0.255 C 
HETATM   23  O   LIG     1      30.679  23.201  28.648  1.00  0.00    -0.268 OA
HETATM   24  N   LIG     1      29.155  24.831  29.299  1.00  0.00    -0.366 N 
HETATM   25  H   LIG     1      29.720  25.080  30.141  1.00  0.00     0.159 HD
HETATM   26  H   LIG     1      28.292  25.381  29.090  1.00  0.00     0.159 HD
ENDBRANCH   1  22
BRANCH   4  27
HETATM   27  O   LIG     1      28.646  21.123  27.949  1.00  0.00    -0.362 OA
HETATM   28  H   LIG     1      29.534  20.636  27.935  1.00  0.00     0.217 HD
ENDBRANCH   4  27
BRANCH   5  29
HETATM   29  N   LIG     1      25.939  21.827  26.238  1.00  0.00     0.091 N 
HETATM   30  C   LIG     1      25.336  20.488  26.126  1.00  0.00     0.310 C 
HETATM   31  C   LIG     1      25.581  22.421  27.541  1.00  0.00     0.310 C 
ENDBRANCH   5  29
BRANCH  16  32
HETATM   32  O   LIG     1      26.283  24.526  25.341  1.00  0.00    -0.374 OA
HETATM   33  H   LIG     1      26.271  25.440  25.731  1.00  0.00     0.211 HD
ENDBRANCH  16  32
BRANCH  15  34
HETATM   34  O   LIG     1      28.272  26.398  24.004  1.00  0.00    -0.361 OA
HETATM   35  H   LIG     1      28.149  27.107  23.292  1.00  0.00     0.217 HD
ENDBRANCH  15  34
BRANCH   7  36
HETATM   36  O   LIG     1      25.579  22.670  23.582  1.00  0.00    -0.394 OA
HETATM   37  H   LIG     1      25.055  22.092  22.969  1.00  0.00     0.210 HD
ENDBRANCH   7  36
BRANCH  18  38
HETATM   38  O   LIG     1      29.751  26.614  18.944  1.00  0.00    -0.360 OA
HETATM   39  H   LIG     1      29.370  27.491  19.267  1.00  0.00     0.217 HD
ENDBRANCH  18  38
TORSDOF 7
ENDMDL
MODEL 18
REMARK VINA RESULT:      -3.7      3.515      7.843
REMARK  7 active torsions:
REMARK  status: ('A' for Active; 'I' for Inactive)
REMARK    1  A    between atoms: C_2  and  C_3 
REMARK       I    between atoms: C_2  and  N_32 
REMARK    2  A    between atoms: C_6  and  O_7 
REMARK    3  A    between atoms: C_8  and  N_9 
REMARK    4  A    between atoms: C_13  and  O_14 
REMARK    5  A    between atoms: C_22  and  O_23 
REMARK    6  A    between atoms: C_24  and  O_25 
REMARK    7  A    between atoms: C_27  and  O_28 
ROOT
HETATM    1  C   LIG     1      27.440  22.215  28.589  1.00  0.00     0.112 C 
HETATM    2  C   LIG     1      26.303  22.699  27.753  1.00  0.00     0.208 C 
HETATM    3  O   LIG     1      26.113  23.941  27.649  1.00  0.00    -0.288 OA
HETATM    4  C   LIG     1      27.649  20.886  28.774  1.00  0.00     0.096 C 
HETATM    5  C   LIG     1      26.689  19.847  28.221  1.00  0.00     0.289 C 
HETATM    6  C   LIG     1      26.035  20.377  26.920  1.00  0.00     0.104 C 
HETATM    7  C   LIG     1      25.124  19.360  26.207  1.00  0.00     0.137 C 
HETATM    8  C   LIG     1      24.783  19.909  24.795  1.00  0.00     0.063 C 
HETATM    9  C   LIG     1      23.624  19.181  24.059  1.00  0.00     0.027 C 
HETATM   10  C   LIG     1      22.231  19.382  24.697  1.00  0.00     0.016 C 
HETATM   11  C   LIG     1      23.557  19.665  22.621  1.00  0.00    -0.037 A 
HETATM   12  C   LIG     1      23.751  21.037  22.304  1.00  0.00     0.054 A 
HETATM   13  C   LIG     1      24.321  21.940  23.353  1.00  0.00     0.194 C 
HETATM   14  C   LIG     1      24.583  21.415  24.720  1.00  0.00     0.033 C 
HETATM   15  C   LIG     1      24.751  22.235  25.796  1.00  0.00     0.097 C 
HETATM   16  C   LIG     1      25.304  21.726  27.131  1.00  0.00     0.180 C 
HETATM   17  O   LIG     1      24.748  23.084  23.045  1.00  0.00    -0.287 OA
HETATM   18  C   LIG     1      23.490  21.470  20.973  1.00  0.00     0.080 A 
HETATM   19  C   LIG     1      23.185  20.531  19.983  1.00  0.00     0.037 A 
HETATM   20  C   LIG     1      23.061  19.180  20.296  1.00  0.00     0.003 A 
HETATM   21  C   LIG     1      23.222  18.752  21.610  1.00  0.00     0.009 A 
ENDROOT
BRANCH   1  22
HETATM   22  C   LIG     1      28.318  23.222  29.223  1.00  0.00     0.255 C 
HETATM   23  O   LIG     1      29.546  23.244  28.943  1.00  0.00    -0.268 OA
HETATM   24  N   LIG     1      27.780  24.204  30.109  1.00  0.00    -0.366 N 
HETATM   25  H   LIG     1      28.407  24.909  30.558  1.00  0.00     0.159 HD
HETATM   26  H   LIG     1      26.753  24.253  30.292  1.00  0.00     0.159 HD
ENDBRANCH   1  22
BRANCH   4  27
HETATM   27  O   LIG     1      28.759  20.404  29.476  1.00  0.00    -0.362 OA
HETATM   28  H   LIG     1      29.709  20.709  29.304  1.00  0.00     0.217 HD
ENDBRANCH   4  27
BRANCH   5  29
HETATM   29  N   LIG     1      25.660  19.369  29.199  1.00  0.00     0.091 N 
HETATM   30  C   LIG     1      25.814  17.933  29.485  1.00  0.00     0.310 C 
HETATM   31  C   LIG     1      25.579  20.118  30.469  1.00  0.00     0.310 C 
ENDBRANCH   5  29
BRANCH  16  32
HETATM   32  O   LIG     1      24.228  21.552  28.021  1.00  0.00    -0.374 OA
HETATM   33  H   LIG     1      24.147  20.582  28.222  1.00  0.00     0.211 HD
ENDBRANCH  16  32
BRANCH  15  34
HETATM   34  O   LIG     1      24.330  23.569  25.747  1.00  0.00    -0.361 OA
HETATM   35  H   LIG     1      23.596  23.905  25.137  1.00  0.00     0.217 HD
ENDBRANCH  15  34
BRANCH   7  36
HETATM   36  O   LIG     1      23.966  19.131  26.970  1.00  0.00    -0.394 OA
HETATM   37  H   LIG     1      24.255  18.929  27.898  1.00  0.00     0.210 HD
ENDBRANCH   7  36
BRANCH  18  38
HETATM   38  O   LIG     1      23.492  22.815  20.592  1.00  0.00    -0.360 OA
HETATM   39  H   LIG     1      23.307  23.131  19.651  1.00  0.00     0.217 HD
ENDBRANCH  18  38
TORSDOF 7
ENDMDL
MODEL 19
REMARK VINA RESULT:      -3.6      2.457      4.611
REMARK  7 active torsions:
REMARK  status: ('A' for Active; 'I' for Inactive)
REMARK    1  A    between atoms: C_2  and  C_3 
REMARK       I    between atoms: C_2  and  N_32 
REMARK    2  A    between atoms: C_6  and  O_7 
REMARK    3  A    between atoms: C_8  and  N_9 
REMARK    4  A    between atoms: C_13  and  O_14 
REMARK    5  A    between atoms: C_22  and  O_23 
REMARK    6  A    between atoms: C_24  and  O_25 
REMARK    7  A    between atoms: C_27  and  O_28 
ROOT
HETATM    1  C   LIG     1      24.242  20.160  21.463  1.00  0.00     0.112 C 
HETATM    2  C   LIG     1      23.670  20.530  22.791  1.00  0.00     0.208 C 
HETATM    3  O   LIG     1      22.519  20.113  23.094  1.00  0.00    -0.288 OA
HETATM    4  C   LIG     1      25.453  20.631  21.073  1.00  0.00     0.096 C 
HETATM    5  C   LIG     1      26.230  21.624  21.923  1.00  0.00     0.289 C 
HETATM    6  C   LIG     1      25.909  21.395  23.422  1.00  0.00     0.104 C 
HETATM    7  C   LIG     1      26.727  22.273  24.387  1.00  0.00     0.137 C 
HETATM    8  C   LIG     1      26.524  21.737  25.830  1.00  0.00     0.063 C 
HETATM    9  C   LIG     1      27.007  22.684  26.965  1.00  0.00     0.027 C 
HETATM   10  C   LIG     1      26.184  23.983  27.113  1.00  0.00     0.016 C 
HETATM   11  C   LIG     1      26.960  21.944  28.291  1.00  0.00    -0.037 A 
HETATM   12  C   LIG     1      25.880  21.074  28.603  1.00  0.00     0.054 A 
HETATM   13  C   LIG     1      24.956  20.658  27.502  1.00  0.00     0.194 C 
HETATM   14  C   LIG     1      25.124  21.228  26.138  1.00  0.00     0.033 C 
HETATM   15  C   LIG     1      24.135  21.182  25.202  1.00  0.00     0.097 C 
HETATM   16  C   LIG     1      24.393  21.497  23.725  1.00  0.00     0.180 C 
HETATM   17  O   LIG     1      24.155  19.701  27.671  1.00  0.00    -0.287 OA
HETATM   18  C   LIG     1      25.785  20.558  29.926  1.00  0.00     0.080 A 
HETATM   19  C   LIG     1      26.812  20.800  30.844  1.00  0.00     0.037 A 
HETATM   20  C   LIG     1      27.897  21.603  30.503  1.00  0.00     0.003 A 
HETATM   21  C   LIG     1      27.961  22.191  29.245  1.00  0.00     0.009 A 
ENDROOT
BRANCH   1  22
HETATM   22  C   LIG     1      23.444  19.280  20.582  1.00  0.00     0.255 C 
HETATM   23  O   LIG     1      23.172  19.653  19.409  1.00  0.00    -0.268 OA
HETATM   24  N   LIG     1      23.024  17.990  21.026  1.00  0.00    -0.366 N 
HETATM   25  H   LIG     1      22.456  17.376  20.400  1.00  0.00     0.159 HD
HETATM   26  H   LIG     1      23.308  17.629  21.965  1.00  0.00     0.159 HD
ENDBRANCH   1  22
BRANCH   4  27
HETATM   27  O   LIG     1      26.053  20.226  19.876  1.00  0.00    -0.362 OA
HETATM   28  H   LIG     1      25.607  20.302  18.970  1.00  0.00     0.217 HD
ENDBRANCH   4  27
BRANCH   5  29
HETATM   29  N   LIG     1      26.041  23.057  21.531  1.00  0.00     0.091 N 
HETATM   30  C   LIG     1      27.313  23.675  21.119  1.00  0.00     0.310 C 
HETATM   31  C   LIG     1      25.012  23.317  20.506  1.00  0.00     0.310 C 
ENDBRANCH   5  29
BRANCH  16  32
HETATM   32  O   LIG     1      23.941  22.804  23.463  1.00  0.00    -0.374 OA
HETATM   33  H   LIG     1      23.738  22.873  22.493  1.00  0.00     0.211 HD
ENDBRANCH  16  32
BRANCH  15  34
HETATM   34  O   LIG     1      22.810  20.935  25.578  1.00  0.00    -0.361 OA
HETATM   35  H   LIG     1      22.497  20.890  26.540  1.00  0.00     0.217 HD
ENDBRANCH  15  34
BRANCH   7  36
HETATM   36  O   LIG     1      26.333  23.616  24.270  1.00  0.00    -0.394 OA
HETATM   37  H   LIG     1      25.361  23.627  24.067  1.00  0.00     0.210 HD
ENDBRANCH   7  36
BRANCH  18  38
HETATM   38  O   LIG     1      24.684  19.828  30.385  1.00  0.00    -0.360 OA
HETATM   39  H   LIG     1      23.884  19.600  29.813  1.00  0.00     0.217 HD
ENDBRANCH  18  38
TORSDOF 7
ENDMDL
MODEL 20
REMARK VINA RESULT:      -3.5      2.787      7.404
REMARK  7 active torsions:
REMARK  status: ('A' for Active; 'I' for Inactive)
REMARK    1  A    between atoms: C_2  and  C_3 
REMARK       I    between atoms: C_2  and  N_32 
REMARK    2  A    between atoms: C_6  and  O_7 
REMARK    3  A    between atoms: C_8  and  N_9 
REMARK    4  A    between atoms: C_13  and  O_14 
REMARK    5  A    between atoms: C_22  and  O_23 
REMARK    6  A    between atoms: C_24  and  O_25 
REMARK    7  A    between atoms: C_27  and  O_28 
ROOT
HETATM    1  C   LIG     1      27.001  21.979  26.059  1.00  0.00     0.112 C 
HETATM    2  C   LIG     1      26.894  22.699  24.757  1.00  0.00     0.208 C 
HETATM    3  O   LIG     1      27.650  23.686  24.546  1.00  0.00    -0.288 OA
HETATM    4  C   LIG     1      26.171  20.946  26.352  1.00  0.00     0.096 C 
HETATM    5  C   LIG     1      25.043  20.545  25.415  1.00  0.00     0.289 C 
HETATM    6  C   LIG     1      25.442  20.856  23.951  1.00  0.00     0.104 C 
HETATM    7  C   LIG     1      24.418  20.386  22.900  1.00  0.00     0.137 C 
HETATM    8  C   LIG     1      25.071  20.491  21.496  1.00  0.00     0.063 C 
HETATM    9  C   LIG     1      24.091  20.369  20.295  1.00  0.00     0.027 C 
HETATM   10  C   LIG     1      23.105  21.549  20.149  1.00  0.00     0.016 C 
HETATM   11  C   LIG     1      24.886  20.258  19.006  1.00  0.00    -0.037 A 
HETATM   12  C   LIG     1      26.053  21.042  18.798  1.00  0.00     0.054 A 
HETATM   13  C   LIG     1      26.661  21.744  19.972  1.00  0.00     0.194 C 
HETATM   14  C   LIG     1      25.989  21.687  21.299  1.00  0.00     0.033 C 
HETATM   15  C   LIG     1      26.273  22.570  22.297  1.00  0.00     0.097 C 
HETATM   16  C   LIG     1      25.811  22.346  23.741  1.00  0.00     0.180 C 
HETATM   17  O   LIG     1      27.820  22.229  19.894  1.00  0.00    -0.287 OA
HETATM   18  C   LIG     1      26.650  21.044  17.506  1.00  0.00     0.080 A 
HETATM   19  C   LIG     1      26.167  20.183  16.515  1.00  0.00     0.037 A 
HETATM   20  C   LIG     1      25.060  19.371  16.754  1.00  0.00     0.003 A 
HETATM   21  C   LIG     1      24.409  19.425  17.981  1.00  0.00     0.009 A 
ENDROOT
BRANCH   1  22
HETATM   22  C   LIG     1      28.026  22.432  27.025  1.00  0.00     0.255 C 
HETATM   23  O   LIG     1      27.816  23.462  27.720  1.00  0.00    -0.268 OA
HETATM   24  N   LIG     1      29.228  21.685  27.218  1.00  0.00    -0.366 N 
HETATM   25  H   LIG     1      29.950  22.014  27.896  1.00  0.00     0.159 HD
HETATM   26  H   LIG     1      29.385  20.786  26.710  1.00  0.00     0.159 HD
ENDBRANCH   1  22
BRANCH   4  27
HETATM   27  O   LIG     1      26.310  20.195  27.524  1.00  0.00    -0.362 OA
HETATM   28  H   LIG     1      25.538  19.951  28.130  1.00  0.00     0.217 HD
ENDBRANCH   4  27
BRANCH   5  29
HETATM   29  N   LIG     1      23.710  21.134  25.761  1.00  0.00     0.091 N 
HETATM   30  C   LIG     1      22.704  20.087  26.004  1.00  0.00     0.310 C 
HETATM   31  C   LIG     1      23.699  22.097  26.880  1.00  0.00     0.310 C 
ENDBRANCH   5  29
BRANCH  16  32
HETATM   32  O   LIG     1      24.685  23.154  23.979  1.00  0.00    -0.374 OA
HETATM   33  H   LIG     1      23.871  22.599  23.845  1.00  0.00     0.211 HD
ENDBRANCH  16  32
BRANCH  15  34
HETATM   34  O   LIG     1      26.923  23.778  22.017  1.00  0.00    -0.361 OA
HETATM   35  H   LIG     1      27.180  24.074  21.084  1.00  0.00     0.217 HD
ENDBRANCH  15  34
BRANCH   7  36
HETATM   36  O   LIG     1      23.247  21.158  22.989  1.00  0.00    -0.394 OA
HETATM   37  H   LIG     1      22.907  21.293  22.066  1.00  0.00     0.210 HD
ENDBRANCH   7  36
BRANCH  18  38
HETATM   38  O   LIG     1      27.697  21.896  17.148  1.00  0.00    -0.360 OA
HETATM   39  H   LIG     1      28.453  21.630  16.533  1.00  0.00     0.217 HD
ENDBRANCH  18  38
TORSDOF 7
ENDMDL
