REMARK  7 active torsions:
REMARK  status: ('A' for Active; 'I' for Inactive)
REMARK    1  A    between atoms: C_2  and  C_3 
REMARK       I    between atoms: C_2  and  N_32 
REMARK    2  A    between atoms: C_6  and  O_7 
REMARK    3  A    between atoms: C_8  and  N_9 
REMARK    4  A    between atoms: C_13  and  O_14 
REMARK    5  A    between atoms: C_22  and  O_23 
REMARK    6  A    between atoms: C_24  and  O_25 
REMARK    7  A    between atoms: C_27  and  O_28 
ROOT
HETATM    1  C   LIG     1      -3.194  -1.711  -0.898  1.00  0.00     0.112 C 
HETATM    2  C   LIG     1      -1.919  -2.124  -0.242  1.00  0.00     0.208 C 
HETATM    3  O   LIG     1      -1.724  -3.349  -0.012  1.00  0.00    -0.288 OA
HETATM    4  C   LIG     1      -3.470  -0.400  -1.115  1.00  0.00     0.096 C 
HETATM    5  C   LIG     1      -2.545   0.699  -0.618  1.00  0.00     0.289 C 
HETATM    6  C   LIG     1      -1.083   0.185  -0.599  1.00  0.00     0.104 C 
HETATM    7  C   LIG     1      -0.040   1.252  -0.218  1.00  0.00     0.137 C 
HETATM    8  C   LIG     1       1.374   0.689  -0.525  1.00  0.00     0.063 C 
HETATM    9  C   LIG     1       2.557   1.489   0.090  1.00  0.00     0.027 C 
HETATM   10  C   LIG     1       2.643   1.425   1.631  1.00  0.00     0.016 C 
HETATM   11  C   LIG     1       3.866   0.967  -0.476  1.00  0.00    -0.037 A 
HETATM   12  C   LIG     1       4.072  -0.426  -0.672  1.00  0.00     0.054 A 
HETATM   13  C   LIG     1       2.889  -1.340  -0.607  1.00  0.00     0.194 C 
HETATM   14  C   LIG     1       1.551  -0.796  -0.249  1.00  0.00     0.033 C 
HETATM   15  C   LIG     1       0.530  -1.593   0.175  1.00  0.00     0.097 C 
HETATM   16  C   LIG     1      -0.915  -1.091   0.263  1.00  0.00     0.180 C 
HETATM   17  O   LIG     1       2.976  -2.525  -1.024  1.00  0.00    -0.287 OA
HETATM   18  C   LIG     1       5.376  -0.877  -1.022  1.00  0.00     0.080 A 
HETATM   19  C   LIG     1       6.384   0.053  -1.296  1.00  0.00     0.037 A 
HETATM   20  C   LIG     1       6.149   1.419  -1.162  1.00  0.00     0.003 A 
HETATM   21  C   LIG     1       4.907   1.873  -0.732  1.00  0.00     0.009 A 
ENDROOT
BRANCH   1  22
HETATM   22  C   LIG     1      -4.152  -2.768  -1.288  1.00  0.00     0.255 C 
HETATM   23  O   LIG     1      -3.758  -3.743  -1.982  1.00  0.00    -0.268 OA
HETATM   24  N   LIG     1      -5.508  -2.724  -0.842  1.00  0.00    -0.366 N 
HETATM   25  H   LIG     1      -6.181  -3.470  -1.126  1.00  0.00     0.159 HD
HETATM   26  H   LIG     1      -5.835  -1.967  -0.200  1.00  0.00     0.159 HD
ENDBRANCH   1  22
BRANCH   4  27
HETATM   27  O   LIG     1      -4.613   0.009  -1.810  1.00  0.00    -0.362 OA
HETATM   28  H   LIG     1      -5.235  -0.627  -2.293  1.00  0.00     0.217 HD
ENDBRANCH   4  27
BRANCH   5  29
HETATM   29  N   LIG     1      -2.938   1.292   0.700  1.00  0.00     0.091 N 
HETATM   30  C   LIG     1      -3.280   2.718   0.569  1.00  0.00     0.310 C 
HETATM   31  C   LIG     1      -4.014   0.592   1.429  1.00  0.00     0.310 C 
ENDBRANCH   5  29
BRANCH  16  32
HETATM   32  O   LIG     1      -1.203  -0.799   1.609  1.00  0.00    -0.374 OA
HETATM   33  H   LIG     1      -1.125  -1.641   2.132  1.00  0.00     0.211 HD
ENDBRANCH  16  32
BRANCH  15  34
HETATM   34  O   LIG     1       0.784  -2.888   0.642  1.00  0.00    -0.361 OA
HETATM   35  H   LIG     1       1.708  -3.231   0.873  1.00  0.00     0.217 HD
ENDBRANCH  15  34
BRANCH   7  36
HETATM   36  O   LIG     1      -0.179   1.601   1.136  1.00  0.00    -0.394 OA
HETATM   37  H   LIG     1      -0.220   2.592   1.187  1.00  0.00     0.210 HD
ENDBRANCH   7  36
BRANCH  18  38
HETATM   38  O   LIG     1       5.728  -2.228  -1.081  1.00  0.00    -0.360 OA
HETATM   39  H   LIG     1       5.208  -2.964  -0.625  1.00  0.00     0.217 HD
ENDBRANCH  18  38
TORSDOF 7
