REMARK  3 active torsions:
REMARK  status: ('A' for Active; 'I' for Inactive)
REMARK    1  A    between atoms: C_2  and  C_4 
REMARK    2  A    between atoms: C_4  and  C_6 
REMARK    3  A    between atoms: C_4  and  O_5 
ROOT
HETATM    1  C   LIG     1       0.184  -0.589   0.756  1.00  0.00     0.121 C 
ENDROOT
BRANCH   1   2
HETATM    2  C   LIG     1      -0.832  -0.056  -0.301  1.00  0.00     0.006 C 
HETATM    3  C   LIG     1      -2.092  -0.934  -0.326  1.00  0.00     0.012 C 
HETATM    4  C   LIG     1      -1.234   1.403  -0.030  1.00  0.00     0.012 C 
ENDBRANCH   1   2
BRANCH   1   5
HETATM    5  C   LIG     1       1.482   0.244   0.894  1.00  0.00     0.027 C 
HETATM    6  C   LIG     1       2.282   0.388  -0.403  1.00  0.00     0.007 C 
ENDBRANCH   1   5
BRANCH   1   7
HETATM    7  O   LIG     1       0.502  -1.941   0.526  1.00  0.00    -0.395 OA
HETATM    8  H   LIG     1       0.786  -2.031  -0.420  1.00  0.00     0.210 HD
ENDBRANCH   1   7
TORSDOF 3
