MODEL 1
REMARK VINA RESULT:      -4.8      0.000      0.000
REMARK  3 active torsions:
REMARK  status: ('A' for Active; 'I' for Inactive)
REMARK    1  A    between atoms: C_2  and  C_4 
REMARK    2  A    between atoms: C_4  and  C_6 
REMARK    3  A    between atoms: C_4  and  O_5 
ROOT
HETATM    1  C   LIG     1      17.120  37.467  25.045  1.00  0.00     0.121 C 
ENDROOT
BRANCH   1   2
HETATM    2  C   LIG     1      18.012  36.246  25.430  1.00  0.00     0.006 C 
HETATM    3  C   LIG     1      18.432  36.331  26.905  1.00  0.00     0.012 C 
HETATM    4  C   LIG     1      17.296  34.908  25.182  1.00  0.00     0.012 C 
ENDBRANCH   1   2
BRANCH   1   5
HETATM    5  C   LIG     1      17.146  37.848  23.544  1.00  0.00     0.027 C 
HETATM    6  C   LIG     1      15.777  37.817  22.861  1.00  0.00     0.007 C 
ENDBRANCH   1   5
BRANCH   1   7
HETATM    7  O   LIG     1      17.425  38.593  25.832  1.00  0.00    -0.395 OA
HETATM    8  H   LIG     1      18.366  38.509  26.135  1.00  0.00     0.210 HD
ENDBRANCH   1   7
TORSDOF 3
ENDMDL
MODEL 2
REMARK VINA RESULT:      -4.8      0.938      3.257
REMARK  3 active torsions:
REMARK  status: ('A' for Active; 'I' for Inactive)
REMARK    1  A    between atoms: C_2  and  C_4 
REMARK    2  A    between atoms: C_4  and  C_6 
REMARK    3  A    between atoms: C_4  and  O_5 
ROOT
HETATM    1  C   LIG     1      17.730  37.810  24.763  1.00  0.00     0.121 C 
ENDROOT
BRANCH   1   2
HETATM    2  C   LIG     1      17.070  37.948  23.356  1.00  0.00     0.006 C 
HETATM    3  C   LIG     1      17.941  38.816  22.436  1.00  0.00     0.012 C 
HETATM    4  C   LIG     1      16.834  36.581  22.694  1.00  0.00     0.012 C 
ENDBRANCH   1   2
BRANCH   1   5
HETATM    5  C   LIG     1      17.626  36.402  25.399  1.00  0.00     0.027 C 
HETATM    6  C   LIG     1      18.386  36.247  26.719  1.00  0.00     0.007 C 
ENDBRANCH   1   5
BRANCH   1   7
HETATM    7  O   LIG     1      17.239  38.780  25.658  1.00  0.00    -0.395 OA
HETATM    8  H   LIG     1      16.974  39.576  25.130  1.00  0.00     0.210 HD
ENDBRANCH   1   7
TORSDOF 3
ENDMDL
MODEL 3
REMARK VINA RESULT:      -4.6      0.867      1.650
REMARK  3 active torsions:
REMARK  status: ('A' for Active; 'I' for Inactive)
REMARK    1  A    between atoms: C_2  and  C_4 
REMARK    2  A    between atoms: C_4  and  C_6 
REMARK    3  A    between atoms: C_4  and  O_5 
ROOT
HETATM    1  C   LIG     1      17.353  37.527  25.020  1.00  0.00     0.121 C 
ENDROOT
BRANCH   1   2
HETATM    2  C   LIG     1      17.381  36.193  25.827  1.00  0.00     0.006 C 
HETATM    3  C   LIG     1      17.419  34.989  24.874  1.00  0.00     0.012 C 
HETATM    4  C   LIG     1      18.583  36.122  26.783  1.00  0.00     0.012 C 
ENDBRANCH   1   2
BRANCH   1   5
HETATM    5  C   LIG     1      16.745  37.420  23.600  1.00  0.00     0.027 C 
HETATM    6  C   LIG     1      17.392  38.342  22.563  1.00  0.00     0.007 C 
ENDBRANCH   1   5
BRANCH   1   7
HETATM    7  O   LIG     1      18.632  38.113  24.952  1.00  0.00    -0.395 OA
HETATM    8  H   LIG     1      19.121  37.693  24.199  1.00  0.00     0.210 HD
ENDBRANCH   1   7
TORSDOF 3
ENDMDL
MODEL 4
REMARK VINA RESULT:      -4.6      1.745      2.461
REMARK  3 active torsions:
REMARK  status: ('A' for Active; 'I' for Inactive)
REMARK    1  A    between atoms: C_2  and  C_4 
REMARK    2  A    between atoms: C_4  and  C_6 
REMARK    3  A    between atoms: C_4  and  O_5 
ROOT
HETATM    1  C   LIG     1      16.397  37.669  23.369  1.00  0.00     0.121 C 
ENDROOT
BRANCH   1   2
HETATM    2  C   LIG     1      16.984  37.095  24.696  1.00  0.00     0.006 C 
HETATM    3  C   LIG     1      17.258  35.590  24.556  1.00  0.00     0.012 C 
HETATM    4  C   LIG     1      18.280  37.812  25.110  1.00  0.00     0.012 C 
ENDBRANCH   1   2
BRANCH   1   5
HETATM    5  C   LIG     1      17.228  38.805  22.723  1.00  0.00     0.027 C 
HETATM    6  C   LIG     1      17.967  38.400  21.445  1.00  0.00     0.007 C 
ENDBRANCH   1   5
BRANCH   1   7
HETATM    7  O   LIG     1      15.062  38.084  23.536  1.00  0.00    -0.395 OA
HETATM    8  H   LIG     1      14.901  38.211  24.506  1.00  0.00     0.210 HD
ENDBRANCH   1   7
TORSDOF 3
ENDMDL
MODEL 5
REMARK VINA RESULT:      -4.5      2.177      3.520
REMARK  3 active torsions:
REMARK  status: ('A' for Active; 'I' for Inactive)
REMARK    1  A    between atoms: C_2  and  C_4 
REMARK    2  A    between atoms: C_4  and  C_6 
REMARK    3  A    between atoms: C_4  and  O_5 
ROOT
HETATM    1  C   LIG     1      16.543  37.623  23.065  1.00  0.00     0.121 C 
ENDROOT
BRANCH   1   2
HETATM    2  C   LIG     1      16.641  36.635  21.862  1.00  0.00     0.006 C 
HETATM    3  C   LIG     1      17.800  37.030  20.934  1.00  0.00     0.012 C 
HETATM    4  C   LIG     1      16.832  35.181  22.323  1.00  0.00     0.012 C 
ENDBRANCH   1   2
BRANCH   1   5
HETATM    5  C   LIG     1      17.046  37.060  24.417  1.00  0.00     0.027 C 
HETATM    6  C   LIG     1      17.382  38.127  25.461  1.00  0.00     0.007 C 
ENDBRANCH   1   5
BRANCH   1   7
HETATM    7  O   LIG     1      15.237  38.127  23.210  1.00  0.00    -0.395 OA
HETATM    8  H   LIG     1      14.734  37.915  22.382  1.00  0.00     0.210 HD
ENDBRANCH   1   7
TORSDOF 3
ENDMDL
MODEL 6
REMARK VINA RESULT:      -4.4      3.328      4.568
REMARK  3 active torsions:
REMARK  status: ('A' for Active; 'I' for Inactive)
REMARK    1  A    between atoms: C_2  and  C_4 
REMARK    2  A    between atoms: C_4  and  C_6 
REMARK    3  A    between atoms: C_4  and  O_5 
ROOT
HETATM    1  C   LIG     1      18.406  39.004  21.248  1.00  0.00     0.121 C 
ENDROOT
BRANCH   1   2
HETATM    2  C   LIG     1      17.295  38.251  22.043  1.00  0.00     0.006 C 
HETATM    3  C   LIG     1      17.187  36.795  21.566  1.00  0.00     0.012 C 
HETATM    4  C   LIG     1      17.556  38.272  23.558  1.00  0.00     0.012 C 
ENDBRANCH   1   2
BRANCH   1   5
HETATM    5  C   LIG     1      18.955  38.247  20.014  1.00  0.00     0.027 C 
HETATM    6  C   LIG     1      20.307  38.758  19.508  1.00  0.00     0.007 C 
ENDBRANCH   1   5
BRANCH   1   7
HETATM    7  O   LIG     1      19.468  39.389  22.089  1.00  0.00    -0.395 OA
HETATM    8  H   LIG     1      19.181  39.245  23.027  1.00  0.00     0.210 HD
ENDBRANCH   1   7
TORSDOF 3
ENDMDL
MODEL 7
REMARK VINA RESULT:      -4.3      5.043      6.037
REMARK  3 active torsions:
REMARK  status: ('A' for Active; 'I' for Inactive)
REMARK    1  A    between atoms: C_2  and  C_4 
REMARK    2  A    between atoms: C_4  and  C_6 
REMARK    3  A    between atoms: C_4  and  O_5 
ROOT
HETATM    1  C   LIG     1      15.213  33.706  21.139  1.00  0.00     0.121 C 
ENDROOT
BRANCH   1   2
HETATM    2  C   LIG     1      15.882  35.115  21.106  1.00  0.00     0.006 C 
HETATM    3  C   LIG     1      14.869  36.200  21.501  1.00  0.00     0.012 C 
HETATM    4  C   LIG     1      17.103  35.196  22.037  1.00  0.00     0.012 C 
ENDBRANCH   1   2
BRANCH   1   5
HETATM    5  C   LIG     1      15.295  32.912  19.812  1.00  0.00     0.027 C 
HETATM    6  C   LIG     1      14.886  31.442  19.928  1.00  0.00     0.007 C 
ENDBRANCH   1   5
BRANCH   1   7
HETATM    7  O   LIG     1      13.876  33.783  21.572  1.00  0.00    -0.395 OA
HETATM    8  H   LIG     1      13.408  32.965  21.263  1.00  0.00     0.210 HD
ENDBRANCH   1   7
TORSDOF 3
ENDMDL
MODEL 8
REMARK VINA RESULT:      -4.2      4.809      5.749
REMARK  3 active torsions:
REMARK  status: ('A' for Active; 'I' for Inactive)
REMARK    1  A    between atoms: C_2  and  C_4 
REMARK    2  A    between atoms: C_4  and  C_6 
REMARK    3  A    between atoms: C_4  and  O_5 
ROOT
HETATM    1  C   LIG     1      18.482  37.091  19.776  1.00  0.00     0.121 C 
ENDROOT
BRANCH   1   2
HETATM    2  C   LIG     1      18.870  38.594  19.933  1.00  0.00     0.006 C 
HETATM    3  C   LIG     1      18.677  39.049  21.387  1.00  0.00     0.012 C 
HETATM    4  C   LIG     1      20.321  38.862  19.504  1.00  0.00     0.012 C 
ENDBRANCH   1   2
BRANCH   1   5
HETATM    5  C   LIG     1      17.721  36.482  20.979  1.00  0.00     0.027 C 
HETATM    6  C   LIG     1      16.572  35.547  20.593  1.00  0.00     0.007 C 
ENDBRANCH   1   5
BRANCH   1   7
HETATM    7  O   LIG     1      19.605  36.300  19.467  1.00  0.00    -0.395 OA
HETATM    8  H   LIG     1      19.304  35.557  18.883  1.00  0.00     0.210 HD
ENDBRANCH   1   7
TORSDOF 3
ENDMDL
MODEL 9
REMARK VINA RESULT:      -4.2      4.158      5.139
REMARK  3 active torsions:
REMARK  status: ('A' for Active; 'I' for Inactive)
REMARK    1  A    between atoms: C_2  and  C_4 
REMARK    2  A    between atoms: C_4  and  C_6 
REMARK    3  A    between atoms: C_4  and  O_5 
ROOT
HETATM    1  C   LIG     1      18.442  37.042  20.330  1.00  0.00     0.121 C 
ENDROOT
BRANCH   1   2
HETATM    2  C   LIG     1      17.207  36.801  21.251  1.00  0.00     0.006 C 
HETATM    3  C   LIG     1      17.174  35.343  21.736  1.00  0.00     0.012 C 
HETATM    4  C   LIG     1      17.202  37.741  22.468  1.00  0.00     0.012 C 
ENDBRANCH   1   2
BRANCH   1   5
HETATM    5  C   LIG     1      18.873  38.522  20.188  1.00  0.00     0.027 C 
HETATM    6  C   LIG     1      20.250  38.721  19.548  1.00  0.00     0.007 C 
ENDBRANCH   1   5
BRANCH   1   7
HETATM    7  O   LIG     1      18.252  36.472  19.057  1.00  0.00    -0.395 OA
HETATM    8  H   LIG     1      18.176  35.490  19.170  1.00  0.00     0.210 HD
ENDBRANCH   1   7
TORSDOF 3
ENDMDL
MODEL 10
REMARK VINA RESULT:      -4.2      3.393      4.775
REMARK  3 active torsions:
REMARK  status: ('A' for Active; 'I' for Inactive)
REMARK    1  A    between atoms: C_2  and  C_4 
REMARK    2  A    between atoms: C_4  and  C_6 
REMARK    3  A    between atoms: C_4  and  O_5 
ROOT
HETATM    1  C   LIG     1      17.708  37.498  21.554  1.00  0.00     0.121 C 
ENDROOT
BRANCH   1   2
HETATM    2  C   LIG     1      18.439  38.005  20.272  1.00  0.00     0.006 C 
HETATM    3  C   LIG     1      19.428  39.126  20.625  1.00  0.00     0.012 C 
HETATM    4  C   LIG     1      19.189  36.874  19.550  1.00  0.00     0.012 C 
ENDBRANCH   1   2
BRANCH   1   5
HETATM    5  C   LIG     1      16.903  36.188  21.372  1.00  0.00     0.027 C 
HETATM    6  C   LIG     1      16.947  35.246  22.578  1.00  0.00     0.007 C 
ENDBRANCH   1   5
BRANCH   1   7
HETATM    7  O   LIG     1      16.883  38.498  22.104  1.00  0.00    -0.395 OA
HETATM    8  H   LIG     1      16.098  38.053  22.515  1.00  0.00     0.210 HD
ENDBRANCH   1   7
TORSDOF 3
ENDMDL
MODEL 11
REMARK VINA RESULT:      -4.1      8.019      8.808
REMARK  3 active torsions:
REMARK  status: ('A' for Active; 'I' for Inactive)
REMARK    1  A    between atoms: C_2  and  C_4 
REMARK    2  A    between atoms: C_4  and  C_6 
REMARK    3  A    between atoms: C_4  and  O_5 
ROOT
HETATM    1  C   LIG     1      14.956  32.556  17.949  1.00  0.00     0.121 C 
ENDROOT
BRANCH   1   2
HETATM    2  C   LIG     1      15.555  32.256  19.357  1.00  0.00     0.006 C 
HETATM    3  C   LIG     1      15.552  33.524  20.224  1.00  0.00     0.012 C 
HETATM    4  C   LIG     1      14.788  31.140  20.085  1.00  0.00     0.012 C 
ENDBRANCH   1   2
BRANCH   1   5
HETATM    5  C   LIG     1      13.904  31.533  17.454  1.00  0.00     0.027 C 
HETATM    6  C   LIG     1      14.102  31.071  16.008  1.00  0.00     0.007 C 
ENDBRANCH   1   5
BRANCH   1   7
HETATM    7  O   LIG     1      15.968  32.710  16.983  1.00  0.00    -0.395 OA
HETATM    8  H   LIG     1      16.317  31.809  16.760  1.00  0.00     0.210 HD
ENDBRANCH   1   7
TORSDOF 3
ENDMDL
MODEL 12
REMARK VINA RESULT:      -4.1      9.510     10.744
REMARK  3 active torsions:
REMARK  status: ('A' for Active; 'I' for Inactive)
REMARK    1  A    between atoms: C_2  and  C_4 
REMARK    2  A    between atoms: C_4  and  C_6 
REMARK    3  A    between atoms: C_4  and  O_5 
ROOT
HETATM    1  C   LIG     1      14.006  32.174  16.850  1.00  0.00     0.121 C 
ENDROOT
BRANCH   1   2
HETATM    2  C   LIG     1      14.348  30.946  15.952  1.00  0.00     0.006 C 
HETATM    3  C   LIG     1      13.066  30.337  15.363  1.00  0.00     0.012 C 
HETATM    4  C   LIG     1      15.307  31.316  14.808  1.00  0.00     0.012 C 
ENDBRANCH   1   2
BRANCH   1   5
HETATM    5  C   LIG     1      15.065  32.510  17.930  1.00  0.00     0.027 C 
HETATM    6  C   LIG     1      14.843  31.808  19.272  1.00  0.00     0.007 C 
ENDBRANCH   1   5
BRANCH   1   7
HETATM    7  O   LIG     1      12.738  32.038  17.446  1.00  0.00    -0.395 OA
HETATM    8  H   LIG     1      12.126  31.643  16.773  1.00  0.00     0.210 HD
ENDBRANCH   1   7
TORSDOF 3
ENDMDL
MODEL 13
REMARK VINA RESULT:      -4.1      3.868      4.783
REMARK  3 active torsions:
REMARK  status: ('A' for Active; 'I' for Inactive)
REMARK    1  A    between atoms: C_2  and  C_4 
REMARK    2  A    between atoms: C_4  and  C_6 
REMARK    3  A    between atoms: C_4  and  O_5 
ROOT
HETATM    1  C   LIG     1      17.434  36.762  20.982  1.00  0.00     0.121 C 
ENDROOT
BRANCH   1   2
HETATM    2  C   LIG     1      17.893  38.040  21.750  1.00  0.00     0.006 C 
HETATM    3  C   LIG     1      18.511  39.057  20.780  1.00  0.00     0.012 C 
HETATM    4  C   LIG     1      16.733  38.702  22.511  1.00  0.00     0.012 C 
ENDBRANCH   1   2
BRANCH   1   5
HETATM    5  C   LIG     1      17.131  35.534  21.876  1.00  0.00     0.027 C 
HETATM    6  C   LIG     1      15.888  34.742  21.461  1.00  0.00     0.007 C 
ENDBRANCH   1   5
BRANCH   1   7
HETATM    7  O   LIG     1      18.355  36.409  19.977  1.00  0.00    -0.395 OA
HETATM    8  H   LIG     1      18.860  35.615  20.290  1.00  0.00     0.210 HD
ENDBRANCH   1   7
TORSDOF 3
ENDMDL
MODEL 14
REMARK VINA RESULT:      -4.0      9.284     10.392
REMARK  3 active torsions:
REMARK  status: ('A' for Active; 'I' for Inactive)
REMARK    1  A    between atoms: C_2  and  C_4 
REMARK    2  A    between atoms: C_4  and  C_6 
REMARK    3  A    between atoms: C_4  and  O_5 
ROOT
HETATM    1  C   LIG     1      13.635  31.423  17.023  1.00  0.00     0.121 C 
ENDROOT
BRANCH   1   2
HETATM    2  C   LIG     1      14.899  32.278  17.348  1.00  0.00     0.006 C 
HETATM    3  C   LIG     1      14.704  33.726  16.875  1.00  0.00     0.012 C 
HETATM    4  C   LIG     1      15.228  32.273  18.849  1.00  0.00     0.012 C 
ENDBRANCH   1   2
BRANCH   1   5
HETATM    5  C   LIG     1      13.657  30.722  15.642  1.00  0.00     0.027 C 
HETATM    6  C   LIG     1      15.011  30.769  14.930  1.00  0.00     0.007 C 
ENDBRANCH   1   5
BRANCH   1   7
HETATM    7  O   LIG     1      12.455  32.178  17.161  1.00  0.00    -0.395 OA
HETATM    8  H   LIG     1      11.946  31.812  17.929  1.00  0.00     0.210 HD
ENDBRANCH   1   7
TORSDOF 3
ENDMDL
MODEL 15
REMARK VINA RESULT:      -3.9     10.951     12.045
REMARK  3 active torsions:
REMARK  status: ('A' for Active; 'I' for Inactive)
REMARK    1  A    between atoms: C_2  and  C_4 
REMARK    2  A    between atoms: C_4  and  C_6 
REMARK    3  A    between atoms: C_4  and  O_5 
ROOT
HETATM    1  C   LIG     1      15.768  31.667  14.048  1.00  0.00     0.121 C 
ENDROOT
BRANCH   1   2
HETATM    2  C   LIG     1      16.470  32.275  15.301  1.00  0.00     0.006 C 
HETATM    3  C   LIG     1      17.565  33.265  14.876  1.00  0.00     0.012 C 
HETATM    4  C   LIG     1      15.475  32.987  16.232  1.00  0.00     0.012 C 
ENDBRANCH   1   2
BRANCH   1   5
HETATM    5  C   LIG     1      15.368  30.177  14.181  1.00  0.00     0.027 C 
HETATM    6  C   LIG     1      13.925  29.947  14.638  1.00  0.00     0.007 C 
ENDBRANCH   1   5
BRANCH   1   7
HETATM    7  O   LIG     1      16.538  31.856  12.885  1.00  0.00    -0.395 OA
HETATM    8  H   LIG     1      17.146  31.079  12.792  1.00  0.00     0.210 HD
ENDBRANCH   1   7
TORSDOF 3
ENDMDL
MODEL 16
REMARK VINA RESULT:      -3.9      2.633      3.788
REMARK  3 active torsions:
REMARK  status: ('A' for Active; 'I' for Inactive)
REMARK    1  A    between atoms: C_2  and  C_4 
REMARK    2  A    between atoms: C_4  and  C_6 
REMARK    3  A    between atoms: C_4  and  O_5 
ROOT
HETATM    1  C   LIG     1      16.671  36.217  22.217  1.00  0.00     0.121 C 
ENDROOT
BRANCH   1   2
HETATM    2  C   LIG     1      16.543  37.635  22.854  1.00  0.00     0.006 C 
HETATM    3  C   LIG     1      16.854  37.580  24.357  1.00  0.00     0.012 C 
HETATM    4  C   LIG     1      17.474  38.656  22.179  1.00  0.00     0.012 C 
ENDBRANCH   1   2
BRANCH   1   5
HETATM    5  C   LIG     1      15.430  35.742  21.421  1.00  0.00     0.027 C 
HETATM    6  C   LIG     1      15.460  34.264  21.025  1.00  0.00     0.007 C 
ENDBRANCH   1   5
BRANCH   1   7
HETATM    7  O   LIG     1      17.022  35.252  23.180  1.00  0.00    -0.395 OA
HETATM    8  H   LIG     1      16.385  34.496  23.102  1.00  0.00     0.210 HD
ENDBRANCH   1   7
TORSDOF 3
ENDMDL
MODEL 17
REMARK VINA RESULT:      -3.8     10.305     10.939
REMARK  3 active torsions:
REMARK  status: ('A' for Active; 'I' for Inactive)
REMARK    1  A    between atoms: C_2  and  C_4 
REMARK    2  A    between atoms: C_4  and  C_6 
REMARK    3  A    between atoms: C_4  and  O_5 
ROOT
HETATM    1  C   LIG     1      15.174  32.372  16.006  1.00  0.00     0.121 C 
ENDROOT
BRANCH   1   2
HETATM    2  C   LIG     1      14.169  31.211  16.280  1.00  0.00     0.006 C 
HETATM    3  C   LIG     1      12.822  31.768  16.762  1.00  0.00     0.012 C 
HETATM    4  C   LIG     1      13.942  30.339  15.034  1.00  0.00     0.012 C 
ENDBRANCH   1   2
BRANCH   1   5
HETATM    5  C   LIG     1      16.137  32.138  14.816  1.00  0.00     0.027 C 
HETATM    6  C   LIG     1      17.405  32.995  14.851  1.00  0.00     0.007 C 
ENDBRANCH   1   5
BRANCH   1   7
HETATM    7  O   LIG     1      15.908  32.699  17.162  1.00  0.00    -0.395 OA
HETATM    8  H   LIG     1      15.529  33.535  17.538  1.00  0.00     0.210 HD
ENDBRANCH   1   7
TORSDOF 3
ENDMDL
MODEL 18
REMARK VINA RESULT:      -3.8      8.790      9.904
REMARK  3 active torsions:
REMARK  status: ('A' for Active; 'I' for Inactive)
REMARK    1  A    between atoms: C_2  and  C_4 
REMARK    2  A    between atoms: C_4  and  C_6 
REMARK    3  A    between atoms: C_4  and  O_5 
ROOT
HETATM    1  C   LIG     1      15.184  33.269  16.380  1.00  0.00     0.121 C 
ENDROOT
BRANCH   1   2
HETATM    2  C   LIG     1      14.333  32.515  17.448  1.00  0.00     0.006 C 
HETATM    3  C   LIG     1      13.810  31.188  16.878  1.00  0.00     0.012 C 
HETATM    4  C   LIG     1      15.132  32.238  18.732  1.00  0.00     0.012 C 
ENDBRANCH   1   2
BRANCH   1   5
HETATM    5  C   LIG     1      16.301  32.425  15.719  1.00  0.00     0.027 C 
HETATM    6  C   LIG     1      16.142  32.238  14.208  1.00  0.00     0.007 C 
ENDBRANCH   1   5
BRANCH   1   7
HETATM    7  O   LIG     1      15.726  34.459  16.903  1.00  0.00    -0.395 OA
HETATM    8  H   LIG     1      16.506  34.711  16.344  1.00  0.00     0.210 HD
ENDBRANCH   1   7
TORSDOF 3
ENDMDL
MODEL 19
REMARK VINA RESULT:      -3.8     10.981     12.060
REMARK  3 active torsions:
REMARK  status: ('A' for Active; 'I' for Inactive)
REMARK    1  A    between atoms: C_2  and  C_4 
REMARK    2  A    between atoms: C_4  and  C_6 
REMARK    3  A    between atoms: C_4  and  O_5 
ROOT
HETATM    1  C   LIG     1      14.983  31.081  14.755  1.00  0.00     0.121 C 
ENDROOT
BRANCH   1   2
HETATM    2  C   LIG     1      14.598  31.460  16.218  1.00  0.00     0.006 C 
HETATM    3  C   LIG     1      14.993  32.914  16.518  1.00  0.00     0.012 C 
HETATM    4  C   LIG     1      13.095  31.276  16.486  1.00  0.00     0.012 C 
ENDBRANCH   1   2
BRANCH   1   5
HETATM    5  C   LIG     1      14.329  29.782  14.223  1.00  0.00     0.027 C 
HETATM    6  C   LIG     1      15.323  28.680  13.849  1.00  0.00     0.007 C 
ENDBRANCH   1   5
BRANCH   1   7
HETATM    7  O   LIG     1      16.380  31.018  14.592  1.00  0.00    -0.395 OA
HETATM    8  H   LIG     1      16.795  31.582  15.294  1.00  0.00     0.210 HD
ENDBRANCH   1   7
TORSDOF 3
ENDMDL
MODEL 20
REMARK VINA RESULT:      -3.8      3.512      4.411
REMARK  3 active torsions:
REMARK  status: ('A' for Active; 'I' for Inactive)
REMARK    1  A    between atoms: C_2  and  C_4 
REMARK    2  A    between atoms: C_4  and  C_6 
REMARK    3  A    between atoms: C_4  and  O_5 
ROOT
HETATM    1  C   LIG     1      17.566  36.829  21.489  1.00  0.00     0.121 C 
ENDROOT
BRANCH   1   2
HETATM    2  C   LIG     1      16.911  37.633  22.654  1.00  0.00     0.006 C 
HETATM    3  C   LIG     1      17.292  39.118  22.564  1.00  0.00     0.012 C 
HETATM    4  C   LIG     1      15.379  37.500  22.657  1.00  0.00     0.012 C 
ENDBRANCH   1   2
BRANCH   1   5
HETATM    5  C   LIG     1      18.393  37.678  20.492  1.00  0.00     0.027 C 
HETATM    6  C   LIG     1      19.219  36.860  19.497  1.00  0.00     0.007 C 
ENDBRANCH   1   5
BRANCH   1   7
HETATM    7  O   LIG     1      16.611  36.065  20.792  1.00  0.00    -0.395 OA
HETATM    8  H   LIG     1      16.129  36.670  20.171  1.00  0.00     0.210 HD
ENDBRANCH   1   7
TORSDOF 3
ENDMDL
