REMARK  3 active torsions:
REMARK  status: ('A' for Active; 'I' for Inactive)
REMARK    1  A    between atoms: C_2  and  C_4 
REMARK    2  A    between atoms: C_2  and  O_3 
REMARK    3  A    between atoms: C_4  and  C_6 
ROOT
HETATM    1  C   LIG     1       2.032  -1.047   0.559  1.00  0.00     0.039 C 
HETATM    2  C   LIG     1       0.919  -0.475  -0.332  1.00  0.00     0.117 C 
ENDROOT
BRANCH   2   3
HETATM    3  C   LIG     1      -0.243   0.163   0.487  1.00  0.00     0.009 C 
HETATM    4  C   LIG     1       0.281   1.177   1.522  1.00  0.00     0.012 C 
BRANCH   3   5
HETATM    5  C   LIG     1      -1.275   0.878  -0.427  1.00  0.00     0.002 C 
HETATM    6  C   LIG     1      -2.137  -0.076  -1.256  1.00  0.00     0.005 C 
ENDBRANCH   3   5
ENDBRANCH   2   3
BRANCH   2   7
HETATM    7  O   LIG     1       0.416  -1.519  -1.125  1.00  0.00    -0.396 OA
HETATM    8  H   LIG     1       1.046  -1.639  -1.883  1.00  0.00     0.210 HD
ENDBRANCH   2   7
TORSDOF 3
