REMARK  1 active torsions:
REMARK  status: ('A' for Active; 'I' for Inactive)
REMARK    1  A    between atoms: C_3  and  C_10 
ROOT
HETATM    1 CL   LIG     1      -0.674   0.311   2.728  1.00  0.00    -0.083 Cl
HETATM    2  C   LIG     1      -1.459   0.108   1.165  1.00  0.00     0.048 A 
HETATM    3  C   LIG     1      -0.709  -0.017  -0.021  1.00  0.00     0.021 A 
HETATM    4  C   LIG     1      -1.379  -0.178  -1.252  1.00  0.00     0.048 A 
HETATM    5 CL   LIG     1      -0.492  -0.339  -2.764  1.00  0.00    -0.083 Cl
HETATM    6  C   LIG     1      -2.777  -0.211  -1.287  1.00  0.00     0.048 A 
HETATM    7  C   LIG     1      -3.515  -0.086  -0.107  1.00  0.00     0.037 A 
HETATM    8 CL   LIG     1      -5.268  -0.129  -0.160  1.00  0.00    -0.084 Cl
HETATM    9  C   LIG     1      -2.857   0.073   1.115  1.00  0.00     0.048 A 
ENDROOT
BRANCH   3  10
HETATM   10  C   LIG     1       0.769   0.019   0.023  1.00  0.00     0.021 A 
HETATM   11  C   LIG     1       1.504  -1.173   0.189  1.00  0.00     0.046 A 
HETATM   12  C   LIG     1       2.902  -1.131   0.230  1.00  0.00     0.025 A 
HETATM   13 CL   LIG     1       0.701  -2.732   0.347  1.00  0.00    -0.083 Cl
HETATM   14  C   LIG     1       3.574   0.087   0.109  1.00  0.00     0.003 A 
HETATM   15  C   LIG     1       2.852   1.271  -0.056  1.00  0.00     0.025 A 
HETATM   16  C   LIG     1       1.454   1.245  -0.099  1.00  0.00     0.046 A 
HETATM   17 CL   LIG     1       0.587   2.763  -0.307  1.00  0.00    -0.083 Cl
ENDBRANCH   3  10
TORSDOF 1
