MODEL 1
REMARK VINA RESULT:      -4.7      0.000      0.000
REMARK  1 active torsions:
REMARK  status: ('A' for Active; 'I' for Inactive)
REMARK    1  A    between atoms: C_3  and  C_10 
ROOT
HETATM    1 CL   LIG     1      27.351  21.847  17.945  1.00  0.00    -0.083 Cl
HETATM    2  C   LIG     1      25.697  21.770  18.544  1.00  0.00     0.048 A 
HETATM    3  C   LIG     1      25.285  22.524  19.660  1.00  0.00     0.021 A 
HETATM    4  C   LIG     1      23.950  22.432  20.105  1.00  0.00     0.048 A 
HETATM    5 CL   LIG     1      23.382  23.353  21.494  1.00  0.00    -0.083 Cl
HETATM    6  C   LIG     1      23.048  21.596  19.440  1.00  0.00     0.048 A 
HETATM    7  C   LIG     1      23.462  20.850  18.334  1.00  0.00     0.037 A 
HETATM    8 CL   LIG     1      22.324  19.803  17.504  1.00  0.00    -0.084 Cl
HETATM    9  C   LIG     1      24.783  20.937  17.887  1.00  0.00     0.048 A 
ENDROOT
BRANCH   3  10
HETATM   10  C   LIG     1      26.244  23.407  20.359  1.00  0.00     0.021 A 
HETATM   11  C   LIG     1      26.860  22.981  21.554  1.00  0.00     0.046 A 
HETATM   12  C   LIG     1      27.766  23.822  22.211  1.00  0.00     0.025 A 
HETATM   13 CL   LIG     1      26.516  21.402  22.252  1.00  0.00    -0.083 Cl
HETATM   14  C   LIG     1      28.063  25.082  21.688  1.00  0.00     0.003 A 
HETATM   15  C   LIG     1      27.457  25.509  20.505  1.00  0.00     0.025 A 
HETATM   16  C   LIG     1      26.549  24.680  19.837  1.00  0.00     0.046 A 
HETATM   17 CL   LIG     1      25.809  25.263  18.349  1.00  0.00    -0.083 Cl
ENDBRANCH   3  10
TORSDOF 1
ENDMDL
MODEL 2
REMARK VINA RESULT:      -4.7      0.020      3.159
REMARK  1 active torsions:
REMARK  status: ('A' for Active; 'I' for Inactive)
REMARK    1  A    between atoms: C_3  and  C_10 
ROOT
HETATM    1 CL   LIG     1      23.370  23.357  21.491  1.00  0.00    -0.083 Cl
HETATM    2  C   LIG     1      23.936  22.431  20.105  1.00  0.00     0.048 A 
HETATM    3  C   LIG     1      25.271  22.516  19.663  1.00  0.00     0.021 A 
HETATM    4  C   LIG     1      25.682  21.756  18.547  1.00  0.00     0.048 A 
HETATM    5 CL   LIG     1      27.337  21.824  17.952  1.00  0.00    -0.083 Cl
HETATM    6  C   LIG     1      24.765  20.928  17.890  1.00  0.00     0.048 A 
HETATM    7  C   LIG     1      23.443  20.849  18.334  1.00  0.00     0.037 A 
HETATM    8 CL   LIG     1      22.300  19.808  17.504  1.00  0.00    -0.084 Cl
HETATM    9  C   LIG     1      23.030  21.598  19.438  1.00  0.00     0.048 A 
ENDROOT
BRANCH   3  10
HETATM   10  C   LIG     1      26.234  23.394  20.362  1.00  0.00     0.021 A 
HETATM   11  C   LIG     1      26.547  24.665  19.838  1.00  0.00     0.046 A 
HETATM   12  C   LIG     1      27.460  25.490  20.504  1.00  0.00     0.025 A 
HETATM   13 CL   LIG     1      25.810  25.251  18.350  1.00  0.00    -0.083 Cl
HETATM   14  C   LIG     1      28.065  25.059  21.687  1.00  0.00     0.003 A 
HETATM   15  C   LIG     1      27.760  23.801  22.211  1.00  0.00     0.025 A 
HETATM   16  C   LIG     1      26.849  22.965  21.556  1.00  0.00     0.046 A 
HETATM   17 CL   LIG     1      26.497  21.388  22.253  1.00  0.00    -0.083 Cl
ENDBRANCH   3  10
TORSDOF 1
ENDMDL
MODEL 3
REMARK VINA RESULT:      -4.7      0.022      2.234
REMARK  1 active torsions:
REMARK  status: ('A' for Active; 'I' for Inactive)
REMARK    1  A    between atoms: C_3  and  C_10 
ROOT
HETATM    1 CL   LIG     1      23.367  23.357  21.489  1.00  0.00    -0.083 Cl
HETATM    2  C   LIG     1      23.933  22.430  20.103  1.00  0.00     0.048 A 
HETATM    3  C   LIG     1      25.268  22.515  19.661  1.00  0.00     0.021 A 
HETATM    4  C   LIG     1      25.679  21.755  18.546  1.00  0.00     0.048 A 
HETATM    5 CL   LIG     1      27.335  21.822  17.951  1.00  0.00    -0.083 Cl
HETATM    6  C   LIG     1      24.763  20.927  17.889  1.00  0.00     0.048 A 
HETATM    7  C   LIG     1      23.440  20.848  18.332  1.00  0.00     0.037 A 
HETATM    8 CL   LIG     1      22.298  19.807  17.502  1.00  0.00    -0.084 Cl
HETATM    9  C   LIG     1      23.028  21.598  19.436  1.00  0.00     0.048 A 
ENDROOT
BRANCH   3  10
HETATM   10  C   LIG     1      26.232  23.392  20.360  1.00  0.00     0.021 A 
HETATM   11  C   LIG     1      26.844  22.964  21.556  1.00  0.00     0.046 A 
HETATM   12  C   LIG     1      27.755  23.800  22.212  1.00  0.00     0.025 A 
HETATM   13 CL   LIG     1      26.491  21.387  22.255  1.00  0.00    -0.083 Cl
HETATM   14  C   LIG     1      28.060  25.058  21.689  1.00  0.00     0.003 A 
HETATM   15  C   LIG     1      27.457  25.488  20.505  1.00  0.00     0.025 A 
HETATM   16  C   LIG     1      26.545  24.664  19.837  1.00  0.00     0.046 A 
HETATM   17 CL   LIG     1      25.809  25.249  18.349  1.00  0.00    -0.083 Cl
ENDBRANCH   3  10
TORSDOF 1
ENDMDL
MODEL 4
REMARK VINA RESULT:      -4.7      0.033      2.234
REMARK  1 active torsions:
REMARK  status: ('A' for Active; 'I' for Inactive)
REMARK    1  A    between atoms: C_3  and  C_10 
ROOT
HETATM    1 CL   LIG     1      27.334  21.797  17.964  1.00  0.00    -0.083 Cl
HETATM    2  C   LIG     1      25.676  21.742  18.552  1.00  0.00     0.048 A 
HETATM    3  C   LIG     1      25.265  22.508  19.661  1.00  0.00     0.021 A 
HETATM    4  C   LIG     1      23.926  22.433  20.099  1.00  0.00     0.048 A 
HETATM    5 CL   LIG     1      23.360  23.368  21.478  1.00  0.00    -0.083 Cl
HETATM    6  C   LIG     1      23.019  21.602  19.433  1.00  0.00     0.048 A 
HETATM    7  C   LIG     1      23.433  20.844  18.334  1.00  0.00     0.037 A 
HETATM    8 CL   LIG     1      22.289  19.805  17.504  1.00  0.00    -0.084 Cl
HETATM    9  C   LIG     1      24.758  20.915  17.895  1.00  0.00     0.048 A 
ENDROOT
BRANCH   3  10
HETATM   10  C   LIG     1      26.229  23.384  20.361  1.00  0.00     0.021 A 
HETATM   11  C   LIG     1      26.544  24.655  19.837  1.00  0.00     0.046 A 
HETATM   12  C   LIG     1      27.457  25.479  20.504  1.00  0.00     0.025 A 
HETATM   13 CL   LIG     1      25.809  25.242  18.348  1.00  0.00    -0.083 Cl
HETATM   14  C   LIG     1      28.061  25.048  21.687  1.00  0.00     0.003 A 
HETATM   15  C   LIG     1      27.753  23.790  22.211  1.00  0.00     0.025 A 
HETATM   16  C   LIG     1      26.842  22.956  21.556  1.00  0.00     0.046 A 
HETATM   17 CL   LIG     1      26.487  21.379  22.254  1.00  0.00    -0.083 Cl
ENDBRANCH   3  10
TORSDOF 1
ENDMDL
MODEL 5
REMARK VINA RESULT:      -4.6      3.159      6.033
REMARK  1 active torsions:
REMARK  status: ('A' for Active; 'I' for Inactive)
REMARK    1  A    between atoms: C_3  and  C_10 
ROOT
HETATM    1 CL   LIG     1      22.247  19.529  23.264  1.00  0.00    -0.083 Cl
HETATM    2  C   LIG     1      23.415  20.760  23.735  1.00  0.00     0.048 A 
HETATM    3  C   LIG     1      24.170  21.460  22.773  1.00  0.00     0.021 A 
HETATM    4  C   LIG     1      25.095  22.438  23.195  1.00  0.00     0.048 A 
HETATM    5 CL   LIG     1      26.064  23.342  22.036  1.00  0.00    -0.083 Cl
HETATM    6  C   LIG     1      25.258  22.704  24.558  1.00  0.00     0.048 A 
HETATM    7  C   LIG     1      24.506  22.005  25.507  1.00  0.00     0.037 A 
HETATM    8 CL   LIG     1      24.716  22.345  27.215  1.00  0.00    -0.084 Cl
HETATM    9  C   LIG     1      23.588  21.036  25.096  1.00  0.00     0.048 A 
ENDROOT
BRANCH   3  10
HETATM   10  C   LIG     1      23.994  21.173  21.333  1.00  0.00     0.021 A 
HETATM   11  C   LIG     1      23.029  21.876  20.582  1.00  0.00     0.046 A 
HETATM   12  C   LIG     1      22.868  21.599  19.220  1.00  0.00     0.025 A 
HETATM   13 CL   LIG     1      22.010  23.108  21.320  1.00  0.00    -0.083 Cl
HETATM   14  C   LIG     1      23.657  20.629  18.600  1.00  0.00     0.003 A 
HETATM   15  C   LIG     1      24.615  19.930  19.338  1.00  0.00     0.025 A 
HETATM   16  C   LIG     1      24.788  20.195  20.700  1.00  0.00     0.046 A 
HETATM   17 CL   LIG     1      26.006  19.287  21.590  1.00  0.00    -0.083 Cl
ENDBRANCH   3  10
TORSDOF 1
ENDMDL
MODEL 6
REMARK VINA RESULT:      -4.6      2.082      4.680
REMARK  1 active torsions:
REMARK  status: ('A' for Active; 'I' for Inactive)
REMARK    1  A    between atoms: C_3  and  C_10 
ROOT
HETATM    1 CL   LIG     1      24.109  22.248  18.098  1.00  0.00    -0.083 Cl
HETATM    2  C   LIG     1      25.274  23.114  19.094  1.00  0.00     0.048 A 
HETATM    3  C   LIG     1      25.456  22.793  20.454  1.00  0.00     0.021 A 
HETATM    4  C   LIG     1      26.400  23.513  21.216  1.00  0.00     0.048 A 
HETATM    5 CL   LIG     1      26.668  23.155  22.919  1.00  0.00    -0.083 Cl
HETATM    6  C   LIG     1      27.146  24.535  20.620  1.00  0.00     0.048 A 
HETATM    7  C   LIG     1      26.960  24.848  19.270  1.00  0.00     0.037 A 
HETATM    8 CL   LIG     1      27.900  26.131  18.530  1.00  0.00    -0.084 Cl
HETATM    9  C   LIG     1      26.027  24.139  18.511  1.00  0.00     0.048 A 
ENDROOT
BRANCH   3  10
HETATM   10  C   LIG     1      24.664  21.712  21.079  1.00  0.00     0.021 A 
HETATM   11  C   LIG     1      25.145  20.386  21.075  1.00  0.00     0.046 A 
HETATM   12  C   LIG     1      24.390  19.368  21.667  1.00  0.00     0.025 A 
HETATM   13 CL   LIG     1      26.689  19.972  20.336  1.00  0.00    -0.083 Cl
HETATM   14  C   LIG     1      23.161  19.657  22.262  1.00  0.00     0.003 A 
HETATM   15  C   LIG     1      22.679  20.968  22.270  1.00  0.00     0.025 A 
HETATM   16  C   LIG     1      23.422  21.997  21.682  1.00  0.00     0.046 A 
HETATM   17 CL   LIG     1      22.773  23.633  21.715  1.00  0.00    -0.083 Cl
ENDBRANCH   3  10
TORSDOF 1
ENDMDL
MODEL 7
REMARK VINA RESULT:      -4.6      2.073      4.879
REMARK  1 active torsions:
REMARK  status: ('A' for Active; 'I' for Inactive)
REMARK    1  A    between atoms: C_3  and  C_10 
ROOT
HETATM    1 CL   LIG     1      24.138  22.327  18.072  1.00  0.00    -0.083 Cl
HETATM    2  C   LIG     1      25.302  23.174  19.085  1.00  0.00     0.048 A 
HETATM    3  C   LIG     1      25.485  22.829  20.438  1.00  0.00     0.021 A 
HETATM    4  C   LIG     1      26.429  23.535  21.213  1.00  0.00     0.048 A 
HETATM    5 CL   LIG     1      26.698  23.146  22.909  1.00  0.00    -0.083 Cl
HETATM    6  C   LIG     1      27.174  24.569  20.635  1.00  0.00     0.048 A 
HETATM    7  C   LIG     1      26.988  24.906  19.292  1.00  0.00     0.037 A 
HETATM    8 CL   LIG     1      27.926  26.204  18.576  1.00  0.00    -0.084 Cl
HETATM    9  C   LIG     1      26.055  24.210  18.520  1.00  0.00     0.048 A 
ENDROOT
BRANCH   3  10
HETATM   10  C   LIG     1      24.694  21.736  21.043  1.00  0.00     0.021 A 
HETATM   11  C   LIG     1      23.450  22.009  21.649  1.00  0.00     0.046 A 
HETATM   12  C   LIG     1      22.708  20.969  22.219  1.00  0.00     0.025 A 
HETATM   13 CL   LIG     1      22.797  23.643  21.707  1.00  0.00    -0.083 Cl
HETATM   14  C   LIG     1      23.194  19.660  22.193  1.00  0.00     0.003 A 
HETATM   15  C   LIG     1      24.424  19.383  21.595  1.00  0.00     0.025 A 
HETATM   16  C   LIG     1      25.178  20.412  21.020  1.00  0.00     0.046 A 
HETATM   17 CL   LIG     1      26.724  20.014  20.278  1.00  0.00    -0.083 Cl
ENDBRANCH   3  10
TORSDOF 1
ENDMDL
MODEL 8
REMARK VINA RESULT:      -4.6      3.019      5.498
REMARK  1 active torsions:
REMARK  status: ('A' for Active; 'I' for Inactive)
REMARK    1  A    between atoms: C_3  and  C_10 
ROOT
HETATM    1 CL   LIG     1      26.123  23.445  21.811  1.00  0.00    -0.083 Cl
HETATM    2  C   LIG     1      25.201  22.540  23.007  1.00  0.00     0.048 A 
HETATM    3  C   LIG     1      24.274  21.551  22.622  1.00  0.00     0.021 A 
HETATM    4  C   LIG     1      23.557  20.850  23.614  1.00  0.00     0.048 A 
HETATM    5 CL   LIG     1      22.387  19.604  23.191  1.00  0.00    -0.083 Cl
HETATM    6  C   LIG     1      23.768  21.140  24.966  1.00  0.00     0.048 A 
HETATM    7  C   LIG     1      24.689  22.123  25.340  1.00  0.00     0.037 A 
HETATM    8 CL   LIG     1      24.948  22.480  27.038  1.00  0.00    -0.084 Cl
HETATM    9  C   LIG     1      25.403  22.820  24.363  1.00  0.00     0.048 A 
ENDROOT
BRANCH   3  10
HETATM   10  C   LIG     1      24.055  21.249  21.191  1.00  0.00     0.021 A 
HETATM   11  C   LIG     1      24.865  20.299  20.534  1.00  0.00     0.046 A 
HETATM   12  C   LIG     1      24.652  20.019  19.180  1.00  0.00     0.025 A 
HETATM   13 CL   LIG     1      26.151  19.446  21.381  1.00  0.00    -0.083 Cl
HETATM   14  C   LIG     1      23.642  20.677  18.474  1.00  0.00     0.003 A 
HETATM   15  C   LIG     1      22.837  21.618  19.120  1.00  0.00     0.025 A 
HETATM   16  C   LIG     1      23.037  21.909  20.473  1.00  0.00     0.046 A 
HETATM   17 CL   LIG     1      21.999  23.103  21.243  1.00  0.00    -0.083 Cl
ENDBRANCH   3  10
TORSDOF 1
ENDMDL
MODEL 9
REMARK VINA RESULT:      -4.6      2.080      4.817
REMARK  1 active torsions:
REMARK  status: ('A' for Active; 'I' for Inactive)
REMARK    1  A    between atoms: C_3  and  C_10 
ROOT
HETATM    1 CL   LIG     1      26.705  23.169  22.906  1.00  0.00    -0.083 Cl
HETATM    2  C   LIG     1      26.429  23.533  21.206  1.00  0.00     0.048 A 
HETATM    3  C   LIG     1      25.482  22.817  20.447  1.00  0.00     0.021 A 
HETATM    4  C   LIG     1      25.293  23.142  19.087  1.00  0.00     0.048 A 
HETATM    5 CL   LIG     1      24.124  22.280  18.093  1.00  0.00    -0.083 Cl
HETATM    6  C   LIG     1      26.045  24.167  18.503  1.00  0.00     0.048 A 
HETATM    7  C   LIG     1      26.983  24.873  19.261  1.00  0.00     0.037 A 
HETATM    8 CL   LIG     1      27.920  26.158  18.521  1.00  0.00    -0.084 Cl
HETATM    9  C   LIG     1      27.173  24.557  20.608  1.00  0.00     0.048 A 
ENDROOT
BRANCH   3  10
HETATM   10  C   LIG     1      24.691  21.734  21.070  1.00  0.00     0.021 A 
HETATM   11  C   LIG     1      25.173  20.408  21.064  1.00  0.00     0.046 A 
HETATM   12  C   LIG     1      24.419  19.389  21.656  1.00  0.00     0.025 A 
HETATM   13 CL   LIG     1      26.716  19.996  20.324  1.00  0.00    -0.083 Cl
HETATM   14  C   LIG     1      23.189  19.677  22.251  1.00  0.00     0.003 A 
HETATM   15  C   LIG     1      22.707  20.988  22.261  1.00  0.00     0.025 A 
HETATM   16  C   LIG     1      23.449  22.018  21.674  1.00  0.00     0.046 A 
HETATM   17 CL   LIG     1      22.800  23.654  21.710  1.00  0.00    -0.083 Cl
ENDBRANCH   3  10
TORSDOF 1
ENDMDL
MODEL 10
REMARK VINA RESULT:      -4.6      1.337      5.292
REMARK  1 active torsions:
REMARK  status: ('A' for Active; 'I' for Inactive)
REMARK    1  A    between atoms: C_3  and  C_10 
ROOT
HETATM    1 CL   LIG     1      25.848  25.396  18.709  1.00  0.00    -0.083 Cl
HETATM    2  C   LIG     1      26.607  24.647  20.110  1.00  0.00     0.048 A 
HETATM    3  C   LIG     1      26.276  23.337  20.510  1.00  0.00     0.021 A 
HETATM    4  C   LIG     1      26.909  22.775  21.639  1.00  0.00     0.048 A 
HETATM    5 CL   LIG     1      26.534  21.144  22.182  1.00  0.00    -0.083 Cl
HETATM    6  C   LIG     1      27.855  23.519  22.351  1.00  0.00     0.048 A 
HETATM    7  C   LIG     1      28.179  24.818  21.949  1.00  0.00     0.037 A 
HETATM    8 CL   LIG     1      29.367  25.744  22.848  1.00  0.00    -0.084 Cl
HETATM    9  C   LIG     1      27.556  25.379  20.832  1.00  0.00     0.048 A 
ENDROOT
BRANCH   3  10
HETATM   10  C   LIG     1      25.274  22.556  19.752  1.00  0.00     0.021 A 
HETATM   11  C   LIG     1      25.652  21.856  18.588  1.00  0.00     0.046 A 
HETATM   12  C   LIG     1      24.699  21.119  17.876  1.00  0.00     0.025 A 
HETATM   13 CL   LIG     1      27.311  21.883  17.998  1.00  0.00    -0.083 Cl
HETATM   14  C   LIG     1      23.373  21.075  18.313  1.00  0.00     0.003 A 
HETATM   15  C   LIG     1      22.993  21.765  19.465  1.00  0.00     0.025 A 
HETATM   16  C   LIG     1      23.935  22.506  20.187  1.00  0.00     0.046 A 
HETATM   17 CL   LIG     1      23.408  23.361  21.633  1.00  0.00    -0.083 Cl
ENDBRANCH   3  10
TORSDOF 1
ENDMDL
MODEL 11
REMARK VINA RESULT:      -4.6      2.080      5.006
REMARK  1 active torsions:
REMARK  status: ('A' for Active; 'I' for Inactive)
REMARK    1  A    between atoms: C_3  and  C_10 
ROOT
HETATM    1 CL   LIG     1      26.709  23.158  22.900  1.00  0.00    -0.083 Cl
HETATM    2  C   LIG     1      26.430  23.525  21.201  1.00  0.00     0.048 A 
HETATM    3  C   LIG     1      25.479  22.813  20.444  1.00  0.00     0.021 A 
HETATM    4  C   LIG     1      25.287  23.140  19.085  1.00  0.00     0.048 A 
HETATM    5 CL   LIG     1      24.112  22.283  18.093  1.00  0.00    -0.083 Cl
HETATM    6  C   LIG     1      26.041  24.163  18.500  1.00  0.00     0.048 A 
HETATM    7  C   LIG     1      26.983  24.865  19.257  1.00  0.00     0.037 A 
HETATM    8 CL   LIG     1      27.924  26.148  18.515  1.00  0.00    -0.084 Cl
HETATM    9  C   LIG     1      27.176  24.546  20.603  1.00  0.00     0.048 A 
ENDROOT
BRANCH   3  10
HETATM   10  C   LIG     1      24.685  21.732  21.068  1.00  0.00     0.021 A 
HETATM   11  C   LIG     1      23.447  22.021  21.677  1.00  0.00     0.046 A 
HETATM   12  C   LIG     1      22.702  20.993  22.266  1.00  0.00     0.025 A 
HETATM   13 CL   LIG     1      22.803  23.659  21.717  1.00  0.00    -0.083 Cl
HETATM   14  C   LIG     1      23.180  19.681  22.255  1.00  0.00     0.003 A 
HETATM   15  C   LIG     1      24.406  19.388  21.654  1.00  0.00     0.025 A 
HETATM   16  C   LIG     1      25.162  20.405  21.061  1.00  0.00     0.046 A 
HETATM   17 CL   LIG     1      26.702  19.989  20.316  1.00  0.00    -0.083 Cl
ENDBRANCH   3  10
TORSDOF 1
ENDMDL
MODEL 12
REMARK VINA RESULT:      -4.6      1.337      5.262
REMARK  1 active torsions:
REMARK  status: ('A' for Active; 'I' for Inactive)
REMARK    1  A    between atoms: C_3  and  C_10 
ROOT
HETATM    1 CL   LIG     1      26.302  21.135  22.259  1.00  0.00    -0.083 Cl
HETATM    2  C   LIG     1      26.768  22.742  21.709  1.00  0.00     0.048 A 
HETATM    3  C   LIG     1      26.206  23.310  20.548  1.00  0.00     0.021 A 
HETATM    4  C   LIG     1      26.608  24.601  20.144  1.00  0.00     0.048 A 
HETATM    5 CL   LIG     1      25.939  25.359  18.703  1.00  0.00    -0.083 Cl
HETATM    6  C   LIG     1      27.557  25.304  20.893  1.00  0.00     0.048 A 
HETATM    7  C   LIG     1      28.110  24.734  22.043  1.00  0.00     0.037 A 
HETATM    8 CL   LIG     1      29.300  25.623  22.977  1.00  0.00    -0.084 Cl
HETATM    9  C   LIG     1      27.716  23.457  22.449  1.00  0.00     0.048 A 
ENDROOT
BRANCH   3  10
HETATM   10  C   LIG     1      25.203  22.561  19.761  1.00  0.00     0.021 A 
HETATM   11  C   LIG     1      23.854  22.534  20.171  1.00  0.00     0.046 A 
HETATM   12  C   LIG     1      22.911  21.823  19.421  1.00  0.00     0.025 A 
HETATM   13 CL   LIG     1      23.318  23.380  21.619  1.00  0.00    -0.083 Cl
HETATM   14  C   LIG     1      23.299  21.139  18.267  1.00  0.00     0.003 A 
HETATM   15  C   LIG     1      24.634  21.163  17.855  1.00  0.00     0.025 A 
HETATM   16  C   LIG     1      25.588  21.869  18.595  1.00  0.00     0.046 A 
HETATM   17 CL   LIG     1      27.258  21.869  18.037  1.00  0.00    -0.083 Cl
ENDBRANCH   3  10
TORSDOF 1
ENDMDL
MODEL 13
REMARK VINA RESULT:      -4.6      1.334      5.343
REMARK  1 active torsions:
REMARK  status: ('A' for Active; 'I' for Inactive)
REMARK    1  A    between atoms: C_3  and  C_10 
ROOT
HETATM    1 CL   LIG     1      26.285  21.128  22.264  1.00  0.00    -0.083 Cl
HETATM    2  C   LIG     1      26.755  22.731  21.709  1.00  0.00     0.048 A 
HETATM    3  C   LIG     1      26.196  23.297  20.546  1.00  0.00     0.021 A 
HETATM    4  C   LIG     1      26.601  24.585  20.138  1.00  0.00     0.048 A 
HETATM    5 CL   LIG     1      25.936  25.340  18.693  1.00  0.00    -0.083 Cl
HETATM    6  C   LIG     1      27.551  25.289  20.886  1.00  0.00     0.048 A 
HETATM    7  C   LIG     1      28.101  24.722  22.039  1.00  0.00     0.037 A 
HETATM    8 CL   LIG     1      29.292  25.611  22.971  1.00  0.00    -0.084 Cl
HETATM    9  C   LIG     1      27.704  23.447  22.448  1.00  0.00     0.048 A 
ENDROOT
BRANCH   3  10
HETATM   10  C   LIG     1      25.192  22.548  19.760  1.00  0.00     0.021 A 
HETATM   11  C   LIG     1      25.577  21.854  18.594  1.00  0.00     0.046 A 
HETATM   12  C   LIG     1      24.622  21.147  17.855  1.00  0.00     0.025 A 
HETATM   13 CL   LIG     1      27.248  21.850  18.037  1.00  0.00    -0.083 Cl
HETATM   14  C   LIG     1      23.287  21.128  18.265  1.00  0.00     0.003 A 
HETATM   15  C   LIG     1      22.900  21.813  19.418  1.00  0.00     0.025 A 
HETATM   16  C   LIG     1      23.843  22.524  20.168  1.00  0.00     0.046 A 
HETATM   17 CL   LIG     1      23.307  23.373  21.613  1.00  0.00    -0.083 Cl
ENDBRANCH   3  10
TORSDOF 1
ENDMDL
MODEL 14
REMARK VINA RESULT:      -4.6      2.734      5.432
REMARK  1 active torsions:
REMARK  status: ('A' for Active; 'I' for Inactive)
REMARK    1  A    between atoms: C_3  and  C_10 
ROOT
HETATM    1 CL   LIG     1      26.336  19.378  20.548  1.00  0.00    -0.083 Cl
HETATM    2  C   LIG     1      25.510  20.714  21.344  1.00  0.00     0.048 A 
HETATM    3  C   LIG     1      24.187  21.062  21.007  1.00  0.00     0.021 A 
HETATM    4  C   LIG     1      23.563  22.139  21.670  1.00  0.00     0.048 A 
HETATM    5 CL   LIG     1      21.912  22.618  21.289  1.00  0.00    -0.083 Cl
HETATM    6  C   LIG     1      24.258  22.852  22.653  1.00  0.00     0.048 A 
HETATM    7  C   LIG     1      25.570  22.501  22.982  1.00  0.00     0.037 A 
HETATM    8 CL   LIG     1      26.435  23.400  24.216  1.00  0.00    -0.084 Cl
HETATM    9  C   LIG     1      26.193  21.435  22.329  1.00  0.00     0.048 A 
ENDROOT
BRANCH   3  10
HETATM   10  C   LIG     1      23.457  20.305  19.967  1.00  0.00     0.021 A 
HETATM   11  C   LIG     1      22.818  19.090  20.290  1.00  0.00     0.046 A 
HETATM   12  C   LIG     1      22.130  18.379  19.301  1.00  0.00     0.025 A 
HETATM   13 CL   LIG     1      22.862  18.436  21.924  1.00  0.00    -0.083 Cl
HETATM   14  C   LIG     1      22.074  18.866  17.993  1.00  0.00     0.003 A 
HETATM   15  C   LIG     1      22.704  20.069  17.667  1.00  0.00     0.025 A 
HETATM   16  C   LIG     1      23.396  20.791  18.645  1.00  0.00     0.046 A 
HETATM   17 CL   LIG     1      24.176  22.301  18.186  1.00  0.00    -0.083 Cl
ENDBRANCH   3  10
TORSDOF 1
ENDMDL
MODEL 15
REMARK VINA RESULT:      -4.6      2.945      5.719
REMARK  1 active torsions:
REMARK  status: ('A' for Active; 'I' for Inactive)
REMARK    1  A    between atoms: C_3  and  C_10 
ROOT
HETATM    1 CL   LIG     1      26.193  23.437  21.663  1.00  0.00    -0.083 Cl
HETATM    2  C   LIG     1      25.276  22.575  22.895  1.00  0.00     0.048 A 
HETATM    3  C   LIG     1      24.320  21.601  22.548  1.00  0.00     0.021 A 
HETATM    4  C   LIG     1      23.608  20.934  23.568  1.00  0.00     0.048 A 
HETATM    5 CL   LIG     1      22.402  19.708  23.192  1.00  0.00    -0.083 Cl
HETATM    6  C   LIG     1      23.854  21.245  24.909  1.00  0.00     0.048 A 
HETATM    7  C   LIG     1      24.803  22.213  25.246  1.00  0.00     0.037 A 
HETATM    8 CL   LIG     1      25.106  22.597  26.931  1.00  0.00    -0.084 Cl
HETATM    9  C   LIG     1      25.512  22.876  24.241  1.00  0.00     0.048 A 
ENDROOT
BRANCH   3  10
HETATM   10  C   LIG     1      24.064  21.277  21.128  1.00  0.00     0.021 A 
HETATM   11  C   LIG     1      23.027  21.926  20.427  1.00  0.00     0.046 A 
HETATM   12  C   LIG     1      22.791  21.614  19.083  1.00  0.00     0.025 A 
HETATM   13 CL   LIG     1      22.008  23.133  21.205  1.00  0.00    -0.083 Cl
HETATM   14  C   LIG     1      23.577  20.661  18.433  1.00  0.00     0.003 A 
HETATM   15  C   LIG     1      24.606  20.015  19.121  1.00  0.00     0.025 A 
HETATM   16  C   LIG     1      24.854  20.316  20.465  1.00  0.00     0.046 A 
HETATM   17 CL   LIG     1      26.162  19.475  21.291  1.00  0.00    -0.083 Cl
ENDBRANCH   3  10
TORSDOF 1
ENDMDL
MODEL 16
REMARK VINA RESULT:      -4.6      2.740      5.851
REMARK  1 active torsions:
REMARK  status: ('A' for Active; 'I' for Inactive)
REMARK    1  A    between atoms: C_3  and  C_10 
ROOT
HETATM    1 CL   LIG     1      26.338  19.359  20.564  1.00  0.00    -0.083 Cl
HETATM    2  C   LIG     1      25.515  20.699  21.356  1.00  0.00     0.048 A 
HETATM    3  C   LIG     1      24.193  21.050  21.018  1.00  0.00     0.021 A 
HETATM    4  C   LIG     1      23.572  22.131  21.678  1.00  0.00     0.048 A 
HETATM    5 CL   LIG     1      21.922  22.612  21.297  1.00  0.00    -0.083 Cl
HETATM    6  C   LIG     1      24.270  22.845  22.657  1.00  0.00     0.048 A 
HETATM    7  C   LIG     1      25.582  22.493  22.987  1.00  0.00     0.037 A 
HETATM    8 CL   LIG     1      26.450  23.394  24.216  1.00  0.00    -0.084 Cl
HETATM    9  C   LIG     1      26.202  21.423  22.337  1.00  0.00     0.048 A 
ENDROOT
BRANCH   3  10
HETATM   10  C   LIG     1      23.461  20.290  19.982  1.00  0.00     0.021 A 
HETATM   11  C   LIG     1      23.387  20.780  18.661  1.00  0.00     0.046 A 
HETATM   12  C   LIG     1      22.692  20.056  17.686  1.00  0.00     0.025 A 
HETATM   13 CL   LIG     1      24.155  22.296  18.200  1.00  0.00    -0.083 Cl
HETATM   14  C   LIG     1      22.069  18.850  18.015  1.00  0.00     0.003 A 
HETATM   15  C   LIG     1      22.139  18.360  19.320  1.00  0.00     0.025 A 
HETATM   16  C   LIG     1      22.830  19.072  20.306  1.00  0.00     0.046 A 
HETATM   17 CL   LIG     1      22.889  18.415  21.938  1.00  0.00    -0.083 Cl
ENDBRANCH   3  10
TORSDOF 1
ENDMDL
MODEL 17
REMARK VINA RESULT:      -4.5      2.619      6.162
REMARK  1 active torsions:
REMARK  status: ('A' for Active; 'I' for Inactive)
REMARK    1  A    between atoms: C_3  and  C_10 
ROOT
HETATM    1 CL   LIG     1      22.027  22.463  21.522  1.00  0.00    -0.083 Cl
HETATM    2  C   LIG     1      23.739  22.089  21.697  1.00  0.00     0.048 A 
HETATM    3  C   LIG     1      24.353  21.084  20.923  1.00  0.00     0.021 A 
HETATM    4  C   LIG     1      25.727  20.817  21.096  1.00  0.00     0.048 A 
HETATM    5 CL   LIG     1      26.545  19.574  20.156  1.00  0.00    -0.083 Cl
HETATM    6  C   LIG     1      26.468  21.548  22.032  1.00  0.00     0.048 A 
HETATM    7  C   LIG     1      25.853  22.542  22.797  1.00  0.00     0.037 A 
HETATM    8 CL   LIG     1      26.790  23.454  23.967  1.00  0.00    -0.084 Cl
HETATM    9  C   LIG     1      24.492  22.811  22.629  1.00  0.00     0.048 A 
ENDROOT
BRANCH   3  10
HETATM   10  C   LIG     1      23.564  20.316  19.936  1.00  0.00     0.021 A 
HETATM   11  C   LIG     1      23.410  20.797  18.620  1.00  0.00     0.046 A 
HETATM   12  C   LIG     1      22.662  20.065  17.691  1.00  0.00     0.025 A 
HETATM   13 CL   LIG     1      24.145  22.312  18.105  1.00  0.00    -0.083 Cl
HETATM   14  C   LIG     1      22.064  18.859  18.063  1.00  0.00     0.003 A 
HETATM   15  C   LIG     1      22.212  18.377  19.365  1.00  0.00     0.025 A 
HETATM   16  C   LIG     1      22.957  19.097  20.304  1.00  0.00     0.046 A 
HETATM   17 CL   LIG     1      23.115  18.451  21.934  1.00  0.00    -0.083 Cl
ENDBRANCH   3  10
TORSDOF 1
ENDMDL
MODEL 18
REMARK VINA RESULT:      -4.5      2.644      3.770
REMARK  1 active torsions:
REMARK  status: ('A' for Active; 'I' for Inactive)
REMARK    1  A    between atoms: C_3  and  C_10 
ROOT
HETATM    1 CL   LIG     1      22.919  18.445  21.902  1.00  0.00    -0.083 Cl
HETATM    2  C   LIG     1      22.830  19.098  20.269  1.00  0.00     0.048 A 
HETATM    3  C   LIG     1      23.466  20.308  19.928  1.00  0.00     0.021 A 
HETATM    4  C   LIG     1      23.369  20.795  18.608  1.00  0.00     0.048 A 
HETATM    5 CL   LIG     1      24.144  22.301  18.127  1.00  0.00    -0.083 Cl
HETATM    6  C   LIG     1      22.645  20.077  17.651  1.00  0.00     0.048 A 
HETATM    7  C   LIG     1      22.016  18.878  17.995  1.00  0.00     0.037 A 
HETATM    8 CL   LIG     1      21.110  17.984  16.788  1.00  0.00    -0.084 Cl
HETATM    9  C   LIG     1      22.109  18.390  19.301  1.00  0.00     0.048 A 
ENDROOT
BRANCH   3  10
HETATM   10  C   LIG     1      24.230  21.062  20.946  1.00  0.00     0.021 A 
HETATM   11  C   LIG     1      25.577  20.736  21.209  1.00  0.00     0.046 A 
HETATM   12  C   LIG     1      26.293  21.454  22.173  1.00  0.00     0.025 A 
HETATM   13 CL   LIG     1      26.392  19.436  20.346  1.00  0.00    -0.083 Cl
HETATM   14  C   LIG     1      25.681  22.492  22.878  1.00  0.00     0.003 A 
HETATM   15  C   LIG     1      24.347  22.820  22.622  1.00  0.00     0.025 A 
HETATM   16  C   LIG     1      23.618  22.111  21.661  1.00  0.00     0.046 A 
HETATM   17 CL   LIG     1      21.940  22.560  21.374  1.00  0.00    -0.083 Cl
ENDBRANCH   3  10
TORSDOF 1
ENDMDL
MODEL 19
REMARK VINA RESULT:      -4.5      2.656      4.012
REMARK  1 active torsions:
REMARK  status: ('A' for Active; 'I' for Inactive)
REMARK    1  A    between atoms: C_3  and  C_10 
ROOT
HETATM    1 CL   LIG     1      22.876  18.431  21.832  1.00  0.00    -0.083 Cl
HETATM    2  C   LIG     1      22.812  19.105  20.206  1.00  0.00     0.048 A 
HETATM    3  C   LIG     1      23.460  20.314  19.888  1.00  0.00     0.021 A 
HETATM    4  C   LIG     1      23.382  20.818  18.573  1.00  0.00     0.048 A 
HETATM    5 CL   LIG     1      24.174  22.324  18.120  1.00  0.00    -0.083 Cl
HETATM    6  C   LIG     1      22.664  20.118  17.598  1.00  0.00     0.048 A 
HETATM    7  C   LIG     1      22.023  18.919  17.920  1.00  0.00     0.037 A 
HETATM    8 CL   LIG     1      21.125  18.047  16.691  1.00  0.00    -0.084 Cl
HETATM    9  C   LIG     1      22.097  18.415  19.221  1.00  0.00     0.048 A 
ENDROOT
BRANCH   3  10
HETATM   10  C   LIG     1      24.218  21.050  20.924  1.00  0.00     0.021 A 
HETATM   11  C   LIG     1      23.604  22.096  21.644  1.00  0.00     0.046 A 
HETATM   12  C   LIG     1      24.327  22.788  22.622  1.00  0.00     0.025 A 
HETATM   13 CL   LIG     1      21.933  22.560  21.343  1.00  0.00    -0.083 Cl
HETATM   14  C   LIG     1      25.655  22.449  22.888  1.00  0.00     0.003 A 
HETATM   15  C   LIG     1      26.269  21.414  22.178  1.00  0.00     0.025 A 
HETATM   16  C   LIG     1      25.559  20.713  21.198  1.00  0.00     0.046 A 
HETATM   17 CL   LIG     1      26.374  19.417  20.329  1.00  0.00    -0.083 Cl
ENDBRANCH   3  10
TORSDOF 1
ENDMDL
MODEL 20
REMARK VINA RESULT:      -4.4      2.080      4.092
REMARK  1 active torsions:
REMARK  status: ('A' for Active; 'I' for Inactive)
REMARK    1  A    between atoms: C_3  and  C_10 
ROOT
HETATM    1 CL   LIG     1      26.707  20.077  19.334  1.00  0.00    -0.083 Cl
HETATM    2  C   LIG     1      27.061  21.680  18.699  1.00  0.00     0.048 A 
HETATM    3  C   LIG     1      26.357  22.817  19.144  1.00  0.00     0.021 A 
HETATM    4  C   LIG     1      26.672  24.083  18.609  1.00  0.00     0.048 A 
HETATM    5 CL   LIG     1      25.825  25.535  19.129  1.00  0.00    -0.083 Cl
HETATM    6  C   LIG     1      27.677  24.201  17.642  1.00  0.00     0.048 A 
HETATM    7  C   LIG     1      28.371  23.071  17.204  1.00  0.00     0.037 A 
HETATM    8 CL   LIG     1      29.629  23.228  15.992  1.00  0.00    -0.084 Cl
HETATM    9  C   LIG     1      28.063  21.814  17.732  1.00  0.00     0.048 A 
ENDROOT
BRANCH   3  10
HETATM   10  C   LIG     1      25.296  22.684  20.166  1.00  0.00     0.021 A 
HETATM   11  C   LIG     1      25.595  22.878  21.531  1.00  0.00     0.046 A 
HETATM   12  C   LIG     1      24.586  22.750  22.492  1.00  0.00     0.025 A 
HETATM   13 CL   LIG     1      27.224  23.281  22.065  1.00  0.00    -0.083 Cl
HETATM   14  C   LIG     1      23.283  22.430  22.106  1.00  0.00     0.003 A 
HETATM   15  C   LIG     1      22.979  22.238  20.757  1.00  0.00     0.025 A 
HETATM   16  C   LIG     1      23.977  22.362  19.784  1.00  0.00     0.046 A 
HETATM   17 CL   LIG     1      23.548  22.109  18.096  1.00  0.00    -0.083 Cl
ENDBRANCH   3  10
TORSDOF 1
ENDMDL
