MODEL 1
REMARK VINA RESULT:      -6.6      0.000      0.000
REMARK  2 active torsions:
REMARK  status: ('A' for Active; 'I' for Inactive)
REMARK    1  A    between atoms: O_2  and  C_3 
REMARK    2  A    between atoms: C_12  and  O_13 
ROOT
HETATM    1  C   LIG     1      17.167  37.349  22.282  1.00  0.00     0.118 A 
HETATM    2  C   LIG     1      17.731  37.268  21.006  1.00  0.00     0.084 A 
HETATM    3  C   LIG     1      17.610  36.259  19.981  1.00  0.00     0.297 A 
HETATM    4  O   LIG     1      16.928  35.203  20.056  1.00  0.00    -0.259 OA
HETATM    5  C   LIG     1      18.565  38.233  20.499  1.00  0.00    -0.015 A 
HETATM    6  C   LIG     1      19.014  37.876  19.112  1.00  0.00     0.218 A 
HETATM    7  O   LIG     1      18.365  36.623  18.874  1.00  0.00    -0.313 OA
HETATM    8  C   LIG     1      18.891  39.358  21.247  1.00  0.00     0.013 A 
HETATM    9  C   LIG     1      18.350  39.488  22.535  1.00  0.00     0.040 A 
HETATM   10  C   LIG     1      17.486  38.494  23.070  1.00  0.00     0.102 A 
ENDROOT
BRANCH   1  11
HETATM   11  O   LIG     1      16.327  36.301  22.699  1.00  0.00    -0.352 OA
HETATM   12  C   LIG     1      16.726  35.144  23.424  1.00  0.00     0.210 C 
ENDBRANCH   1  11
BRANCH  10  13
HETATM   13  O   LIG     1      16.946  38.627  24.359  1.00  0.00    -0.353 OA
HETATM   14  C   LIG     1      17.475  38.014  25.531  1.00  0.00     0.210 C 
ENDBRANCH  10  13
TORSDOF 2
ENDMDL
MODEL 2
REMARK VINA RESULT:      -6.3      6.635      8.851
REMARK  2 active torsions:
REMARK  status: ('A' for Active; 'I' for Inactive)
REMARK    1  A    between atoms: O_2  and  C_3 
REMARK    2  A    between atoms: C_12  and  O_13 
ROOT
HETATM    1  C   LIG     1      15.808  32.501  16.157  1.00  0.00     0.118 A 
HETATM    2  C   LIG     1      15.333  31.591  15.209  1.00  0.00     0.084 A 
HETATM    3  C   LIG     1      15.810  31.269  13.886  1.00  0.00     0.297 A 
HETATM    4  O   LIG     1      16.805  31.783  13.310  1.00  0.00    -0.259 OA
HETATM    5  C   LIG     1      14.235  30.797  15.427  1.00  0.00    -0.015 A 
HETATM    6  C   LIG     1      13.964  29.923  14.237  1.00  0.00     0.218 A 
HETATM    7  O   LIG     1      15.002  30.291  13.322  1.00  0.00    -0.313 OA
HETATM    8  C   LIG     1      13.533  30.862  16.624  1.00  0.00     0.013 A 
HETATM    9  C   LIG     1      13.970  31.761  17.610  1.00  0.00     0.040 A 
HETATM   10  C   LIG     1      15.105  32.589  17.394  1.00  0.00     0.102 A 
ENDROOT
BRANCH   1  11
HETATM   11  O   LIG     1      16.942  33.265  15.827  1.00  0.00    -0.352 OA
HETATM   12  C   LIG     1      16.939  34.582  15.287  1.00  0.00     0.210 C 
ENDBRANCH   1  11
BRANCH  10  13
HETATM   13  O   LIG     1      15.540  33.486  18.382  1.00  0.00    -0.353 OA
HETATM   14  C   LIG     1      15.489  33.241  19.785  1.00  0.00     0.210 C 
ENDBRANCH  10  13
TORSDOF 2
ENDMDL
MODEL 3
REMARK VINA RESULT:      -6.1      1.706      5.218
REMARK  2 active torsions:
REMARK  status: ('A' for Active; 'I' for Inactive)
REMARK    1  A    between atoms: O_2  and  C_3 
REMARK    2  A    between atoms: C_12  and  O_13 
ROOT
HETATM    1  C   LIG     1      16.932  37.258  22.919  1.00  0.00     0.118 A 
HETATM    2  C   LIG     1      17.197  37.149  24.286  1.00  0.00     0.084 A 
HETATM    3  C   LIG     1      17.338  38.161  25.306  1.00  0.00     0.297 A 
HETATM    4  O   LIG     1      17.240  39.405  25.135  1.00  0.00    -0.259 OA
HETATM    5  C   LIG     1      17.380  35.943  24.915  1.00  0.00    -0.015 A 
HETATM    6  C   LIG     1      17.647  36.138  26.379  1.00  0.00     0.218 A 
HETATM    7  O   LIG     1      17.602  37.560  26.529  1.00  0.00    -0.313 OA
HETATM    8  C   LIG     1      17.307  34.750  24.205  1.00  0.00     0.013 A 
HETATM    9  C   LIG     1      17.043  34.805  22.828  1.00  0.00     0.040 A 
HETATM   10  C   LIG     1      16.853  36.049  22.167  1.00  0.00     0.102 A 
ENDROOT
BRANCH   1  11
HETATM   11  O   LIG     1      16.763  38.546  22.380  1.00  0.00    -0.352 OA
HETATM   12  C   LIG     1      17.747  39.299  21.680  1.00  0.00     0.210 C 
ENDBRANCH   1  11
BRANCH  10  13
HETATM   13  O   LIG     1      16.588  36.100  20.789  1.00  0.00    -0.353 OA
HETATM   14  C   LIG     1      15.803  35.149  20.075  1.00  0.00     0.210 C 
ENDBRANCH  10  13
TORSDOF 2
ENDMDL
MODEL 4
REMARK VINA RESULT:      -6.1      7.029      9.681
REMARK  2 active torsions:
REMARK  status: ('A' for Active; 'I' for Inactive)
REMARK    1  A    between atoms: O_2  and  C_3 
REMARK    2  A    between atoms: C_12  and  O_13 
ROOT
HETATM    1  C   LIG     1      15.693  32.378  15.707  1.00  0.00     0.118 A 
HETATM    2  C   LIG     1      14.710  31.390  15.612  1.00  0.00     0.084 A 
HETATM    3  C   LIG     1      13.715  30.951  16.562  1.00  0.00     0.297 A 
HETATM    4  O   LIG     1      13.544  31.408  17.722  1.00  0.00    -0.259 OA
HETATM    5  C   LIG     1      14.534  30.622  14.488  1.00  0.00    -0.015 A 
HETATM    6  C   LIG     1      13.406  29.649  14.677  1.00  0.00     0.218 A 
HETATM    7  O   LIG     1      12.956  29.930  16.006  1.00  0.00    -0.313 OA
HETATM    8  C   LIG     1      15.343  30.796  13.372  1.00  0.00     0.013 A 
HETATM    9  C   LIG     1      16.346  31.776  13.416  1.00  0.00     0.040 A 
HETATM   10  C   LIG     1      16.536  32.577  14.575  1.00  0.00     0.102 A 
ENDROOT
BRANCH   1  11
HETATM   11  O   LIG     1      15.783  33.105  16.907  1.00  0.00    -0.352 OA
HETATM   12  C   LIG     1      15.152  34.351  17.184  1.00  0.00     0.210 C 
ENDBRANCH   1  11
BRANCH  10  13
HETATM   13  O   LIG     1      17.541  33.557  14.616  1.00  0.00    -0.353 OA
HETATM   14  C   LIG     1      18.413  33.875  13.535  1.00  0.00     0.210 C 
ENDBRANCH  10  13
TORSDOF 2
ENDMDL
MODEL 5
REMARK VINA RESULT:      -6.0      1.068      3.999
REMARK  2 active torsions:
REMARK  status: ('A' for Active; 'I' for Inactive)
REMARK    1  A    between atoms: O_2  and  C_3 
REMARK    2  A    between atoms: C_12  and  O_13 
ROOT
HETATM    1  C   LIG     1      17.807  36.977  20.900  1.00  0.00     0.118 A 
HETATM    2  C   LIG     1      17.527  37.180  22.254  1.00  0.00     0.084 A 
HETATM    3  C   LIG     1      16.931  36.307  23.237  1.00  0.00     0.297 A 
HETATM    4  O   LIG     1      16.532  35.129  23.039  1.00  0.00    -0.259 OA
HETATM    5  C   LIG     1      17.806  38.356  22.904  1.00  0.00    -0.015 A 
HETATM    6  C   LIG     1      17.396  38.281  24.345  1.00  0.00     0.218 A 
HETATM    7  O   LIG     1      16.858  36.960  24.460  1.00  0.00    -0.313 OA
HETATM    8  C   LIG     1      18.393  39.421  22.230  1.00  0.00     0.013 A 
HETATM    9  C   LIG     1      18.696  39.269  20.868  1.00  0.00     0.040 A 
HETATM   10  C   LIG     1      18.410  38.054  20.186  1.00  0.00     0.102 A 
ENDROOT
BRANCH   1  11
HETATM   11  O   LIG     1      17.478  35.732  20.338  1.00  0.00    -0.352 OA
HETATM   12  C   LIG     1      16.212  35.361  19.802  1.00  0.00     0.210 C 
ENDBRANCH   1  11
BRANCH  10  13
HETATM   13  O   LIG     1      18.714  37.905  18.824  1.00  0.00    -0.353 OA
HETATM   14  C   LIG     1      18.923  38.981  17.913  1.00  0.00     0.210 C 
ENDBRANCH  10  13
TORSDOF 2
ENDMDL
MODEL 6
REMARK VINA RESULT:      -5.7      7.392      9.677
REMARK  2 active torsions:
REMARK  status: ('A' for Active; 'I' for Inactive)
REMARK    1  A    between atoms: O_2  and  C_3 
REMARK    2  A    between atoms: C_12  and  O_13 
ROOT
HETATM    1  C   LIG     1      15.544  31.854  15.424  1.00  0.00     0.118 A 
HETATM    2  C   LIG     1      14.754  30.807  14.942  1.00  0.00     0.084 A 
HETATM    3  C   LIG     1      14.997  29.846  13.893  1.00  0.00     0.297 A 
HETATM    4  O   LIG     1      16.031  29.773  13.177  1.00  0.00    -0.259 OA
HETATM    5  C   LIG     1      13.513  30.517  15.449  1.00  0.00    -0.015 A 
HETATM    6  C   LIG     1      12.905  29.344  14.736  1.00  0.00     0.218 A 
HETATM    7  O   LIG     1      13.908  28.993  13.778  1.00  0.00    -0.313 OA
HETATM    8  C   LIG     1      12.973  31.267  16.488  1.00  0.00     0.013 A 
HETATM    9  C   LIG     1      13.726  32.330  17.009  1.00  0.00     0.040 A 
HETATM   10  C   LIG     1      15.014  32.639  16.490  1.00  0.00     0.102 A 
ENDROOT
BRANCH   1  11
HETATM   11  O   LIG     1      16.801  32.061  14.829  1.00  0.00    -0.352 OA
HETATM   12  C   LIG     1      17.109  33.030  13.834  1.00  0.00     0.210 C 
ENDBRANCH   1  11
BRANCH  10  13
HETATM   13  O   LIG     1      15.764  33.704  17.014  1.00  0.00    -0.353 OA
HETATM   14  C   LIG     1      15.414  34.455  18.173  1.00  0.00     0.210 C 
ENDBRANCH  10  13
TORSDOF 2
ENDMDL
MODEL 7
REMARK VINA RESULT:      -5.6      7.773     10.710
REMARK  2 active torsions:
REMARK  status: ('A' for Active; 'I' for Inactive)
REMARK    1  A    between atoms: O_2  and  C_3 
REMARK    2  A    between atoms: C_12  and  O_13 
ROOT
HETATM    1  C   LIG     1      15.670  31.173  14.487  1.00  0.00     0.118 A 
HETATM    2  C   LIG     1      14.943  31.802  15.502  1.00  0.00     0.084 A 
HETATM    3  C   LIG     1      15.212  33.006  16.251  1.00  0.00     0.297 A 
HETATM    4  O   LIG     1      16.215  33.756  16.115  1.00  0.00    -0.259 OA
HETATM    5  C   LIG     1      13.751  31.313  15.976  1.00  0.00    -0.015 A 
HETATM    6  C   LIG     1      13.205  32.197  17.059  1.00  0.00     0.218 A 
HETATM    7  O   LIG     1      14.189  33.230  17.161  1.00  0.00    -0.313 OA
HETATM    8  C   LIG     1      13.202  30.147  15.457  1.00  0.00     0.013 A 
HETATM    9  C   LIG     1      13.892  29.477  14.436  1.00  0.00     0.040 A 
HETATM   10  C   LIG     1      15.128  29.974  13.938  1.00  0.00     0.102 A 
ENDROOT
BRANCH   1  11
HETATM   11  O   LIG     1      16.879  31.763  14.080  1.00  0.00    -0.352 OA
HETATM   12  C   LIG     1      17.029  32.763  13.078  1.00  0.00     0.210 C 
ENDBRANCH   1  11
BRANCH  10  13
HETATM   13  O   LIG     1      15.816  29.301  12.916  1.00  0.00    -0.353 OA
HETATM   14  C   LIG     1      15.790  27.892  12.708  1.00  0.00     0.210 C 
ENDBRANCH  10  13
TORSDOF 2
ENDMDL
MODEL 8
REMARK VINA RESULT:      -5.5      1.727      3.473
REMARK  2 active torsions:
REMARK  status: ('A' for Active; 'I' for Inactive)
REMARK    1  A    between atoms: O_2  and  C_3 
REMARK    2  A    between atoms: C_12  and  O_13 
ROOT
HETATM    1  C   LIG     1      17.158  37.450  21.806  1.00  0.00     0.118 A 
HETATM    2  C   LIG     1      18.145  38.137  21.095  1.00  0.00     0.084 A 
HETATM    3  C   LIG     1      18.802  39.394  21.363  1.00  0.00     0.297 A 
HETATM    4  O   LIG     1      18.590  40.146  22.351  1.00  0.00    -0.259 OA
HETATM    5  C   LIG     1      18.682  37.665  19.924  1.00  0.00    -0.015 A 
HETATM    6  C   LIG     1      19.717  38.612  19.391  1.00  0.00     0.218 A 
HETATM    7  O   LIG     1      19.722  39.665  20.360  1.00  0.00    -0.313 OA
HETATM    8  C   LIG     1      18.260  36.457  19.381  1.00  0.00     0.013 A 
HETATM    9  C   LIG     1      17.270  35.727  20.057  1.00  0.00     0.040 A 
HETATM   10  C   LIG     1      16.707  36.208  21.271  1.00  0.00     0.102 A 
ENDROOT
BRANCH   1  11
HETATM   11  O   LIG     1      16.679  38.028  22.995  1.00  0.00    -0.352 OA
HETATM   12  C   LIG     1      17.045  37.652  24.318  1.00  0.00     0.210 C 
ENDBRANCH   1  11
BRANCH  10  13
HETATM   13  O   LIG     1      15.716  35.476  21.945  1.00  0.00    -0.353 OA
HETATM   14  C   LIG     1      15.004  34.371  21.395  1.00  0.00     0.210 C 
ENDBRANCH  10  13
TORSDOF 2
ENDMDL
MODEL 9
REMARK VINA RESULT:      -5.5      6.763      8.866
REMARK  2 active torsions:
REMARK  status: ('A' for Active; 'I' for Inactive)
REMARK    1  A    between atoms: O_2  and  C_3 
REMARK    2  A    between atoms: C_12  and  O_13 
ROOT
HETATM    1  C   LIG     1      15.558  32.619  15.887  1.00  0.00     0.118 A 
HETATM    2  C   LIG     1      16.439  33.220  14.983  1.00  0.00     0.084 A 
HETATM    3  C   LIG     1      17.222  34.428  15.087  1.00  0.00     0.297 A 
HETATM    4  O   LIG     1      17.255  35.208  16.074  1.00  0.00    -0.259 OA
HETATM    5  C   LIG     1      16.710  32.691  13.746  1.00  0.00    -0.015 A 
HETATM    6  C   LIG     1      17.689  33.550  13.001  1.00  0.00     0.218 A 
HETATM    7  O   LIG     1      17.952  34.614  13.921  1.00  0.00    -0.313 OA
HETATM    8  C   LIG     1      16.108  31.510  13.328  1.00  0.00     0.013 A 
HETATM    9  C   LIG     1      15.215  30.867  14.198  1.00  0.00     0.040 A 
HETATM   10  C   LIG     1      14.927  31.406  15.482  1.00  0.00     0.102 A 
ENDROOT
BRANCH   1  11
HETATM   11  O   LIG     1      15.355  33.249  17.127  1.00  0.00    -0.352 OA
HETATM   12  C   LIG     1      15.293  32.606  18.395  1.00  0.00     0.210 C 
ENDBRANCH   1  11
BRANCH  10  13
HETATM   13  O   LIG     1      14.033  30.761  16.351  1.00  0.00    -0.353 OA
HETATM   14  C   LIG     1      12.613  30.839  16.264  1.00  0.00     0.210 C 
ENDBRANCH  10  13
TORSDOF 2
ENDMDL
MODEL 10
REMARK VINA RESULT:      -5.4      1.624      3.116
REMARK  2 active torsions:
REMARK  status: ('A' for Active; 'I' for Inactive)
REMARK    1  A    between atoms: O_2  and  C_3 
REMARK    2  A    between atoms: C_12  and  O_13 
ROOT
HETATM    1  C   LIG     1      17.613  37.305  23.197  1.00  0.00     0.118 A 
HETATM    2  C   LIG     1      17.905  37.516  21.847  1.00  0.00     0.084 A 
HETATM    3  C   LIG     1      18.432  38.673  21.163  1.00  0.00     0.297 A 
HETATM    4  O   LIG     1      18.744  39.771  21.695  1.00  0.00    -0.259 OA
HETATM    5  C   LIG     1      17.713  36.556  20.885  1.00  0.00    -0.015 A 
HETATM    6  C   LIG     1      18.115  37.067  19.532  1.00  0.00     0.218 A 
HETATM    7  O   LIG     1      18.552  38.402  19.807  1.00  0.00    -0.313 OA
HETATM    8  C   LIG     1      17.208  35.304  21.217  1.00  0.00     0.013 A 
HETATM    9  C   LIG     1      16.899  35.041  22.560  1.00  0.00     0.040 A 
HETATM   10  C   LIG     1      17.094  36.028  23.564  1.00  0.00     0.102 A 
ENDROOT
BRANCH   1  11
HETATM   11  O   LIG     1      17.850  38.359  24.096  1.00  0.00    -0.352 OA
HETATM   12  C   LIG     1      17.264  38.512  25.384  1.00  0.00     0.210 C 
ENDBRANCH   1  11
BRANCH  10  13
HETATM   13  O   LIG     1      16.783  35.762  24.907  1.00  0.00    -0.353 OA
HETATM   14  C   LIG     1      17.527  34.895  25.759  1.00  0.00     0.210 C 
ENDBRANCH  10  13
TORSDOF 2
ENDMDL
MODEL 11
REMARK VINA RESULT:      -5.4      1.595      4.652
REMARK  2 active torsions:
REMARK  status: ('A' for Active; 'I' for Inactive)
REMARK    1  A    between atoms: O_2  and  C_3 
REMARK    2  A    between atoms: C_12  and  O_13 
ROOT
HETATM    1  C   LIG     1      17.371  36.719  21.217  1.00  0.00     0.118 A 
HETATM    2  C   LIG     1      17.629  37.418  22.399  1.00  0.00     0.084 A 
HETATM    3  C   LIG     1      18.218  38.717  22.620  1.00  0.00     0.297 A 
HETATM    4  O   LIG     1      18.631  39.505  21.729  1.00  0.00    -0.259 OA
HETATM    5  C   LIG     1      17.329  36.916  23.641  1.00  0.00    -0.015 A 
HETATM    6  C   LIG     1      17.719  37.886  24.717  1.00  0.00     0.218 A 
HETATM    7  O   LIG     1      18.267  38.984  23.981  1.00  0.00    -0.313 OA
HETATM    8  C   LIG     1      16.743  35.664  23.781  1.00  0.00     0.013 A 
HETATM    9  C   LIG     1      16.462  34.921  22.625  1.00  0.00     0.040 A 
HETATM   10  C   LIG     1      16.769  35.431  21.334  1.00  0.00     0.102 A 
ENDROOT
BRANCH   1  11
HETATM   11  O   LIG     1      17.720  37.330  20.000  1.00  0.00    -0.352 OA
HETATM   12  C   LIG     1      18.914  37.103  19.259  1.00  0.00     0.210 C 
ENDBRANCH   1  11
BRANCH  10  13
HETATM   13  O   LIG     1      16.487  34.685  20.178  1.00  0.00    -0.353 OA
HETATM   14  C   LIG     1      15.610  33.563  20.127  1.00  0.00     0.210 C 
ENDBRANCH  10  13
TORSDOF 2
ENDMDL
MODEL 12
REMARK VINA RESULT:      -5.3      7.355      9.891
REMARK  2 active torsions:
REMARK  status: ('A' for Active; 'I' for Inactive)
REMARK    1  A    between atoms: O_2  and  C_3 
REMARK    2  A    between atoms: C_12  and  O_13 
ROOT
HETATM    1  C   LIG     1      14.529  31.284  15.581  1.00  0.00     0.118 A 
HETATM    2  C   LIG     1      15.495  32.279  15.407  1.00  0.00     0.084 A 
HETATM    3  C   LIG     1      15.870  33.390  16.249  1.00  0.00     0.297 A 
HETATM    4  O   LIG     1      15.362  33.681  17.363  1.00  0.00    -0.259 OA
HETATM    5  C   LIG     1      16.303  32.345  14.300  1.00  0.00    -0.015 A 
HETATM    6  C   LIG     1      17.239  33.515  14.391  1.00  0.00     0.218 A 
HETATM    7  O   LIG     1      16.893  34.109  15.646  1.00  0.00    -0.313 OA
HETATM    8  C   LIG     1      16.195  31.406  13.281  1.00  0.00     0.013 A 
HETATM    9  C   LIG     1      15.240  30.385  13.408  1.00  0.00     0.040 A 
HETATM   10  C   LIG     1      14.398  30.308  14.550  1.00  0.00     0.102 A 
ENDROOT
BRANCH   1  11
HETATM   11  O   LIG     1      13.756  31.314  16.756  1.00  0.00    -0.352 OA
HETATM   12  C   LIG     1      12.438  31.836  16.880  1.00  0.00     0.210 C 
ENDBRANCH   1  11
BRANCH  10  13
HETATM   13  O   LIG     1      13.443  29.286  14.673  1.00  0.00    -0.353 OA
HETATM   14  C   LIG     1      13.438  28.081  13.914  1.00  0.00     0.210 C 
ENDBRANCH  10  13
TORSDOF 2
ENDMDL
MODEL 13
REMARK VINA RESULT:      -4.9      1.810      4.109
REMARK  2 active torsions:
REMARK  status: ('A' for Active; 'I' for Inactive)
REMARK    1  A    between atoms: O_2  and  C_3 
REMARK    2  A    between atoms: C_12  and  O_13 
ROOT
HETATM    1  C   LIG     1      17.798  38.062  21.641  1.00  0.00     0.118 A 
HETATM    2  C   LIG     1      16.723  37.174  21.726  1.00  0.00     0.084 A 
HETATM    3  C   LIG     1      15.653  37.074  22.689  1.00  0.00     0.297 A 
HETATM    4  O   LIG     1      15.485  37.818  23.691  1.00  0.00    -0.259 OA
HETATM    5  C   LIG     1      16.512  36.171  20.813  1.00  0.00    -0.015 A 
HETATM    6  C   LIG     1      15.284  35.381  21.160  1.00  0.00     0.218 A 
HETATM    7  O   LIG     1      14.814  36.021  22.351  1.00  0.00    -0.313 OA
HETATM    8  C   LIG     1      17.378  35.989  19.740  1.00  0.00     0.013 A 
HETATM    9  C   LIG     1      18.474  36.855  19.609  1.00  0.00     0.040 A 
HETATM   10  C   LIG     1      18.701  37.897  20.550  1.00  0.00     0.102 A 
ENDROOT
BRANCH   1  11
HETATM   11  O   LIG     1      17.916  39.051  22.633  1.00  0.00    -0.352 OA
HETATM   12  C   LIG     1      18.624  38.929  23.861  1.00  0.00     0.210 C 
ENDBRANCH   1  11
BRANCH  10  13
HETATM   13  O   LIG     1      19.799  38.761  20.415  1.00  0.00    -0.353 OA
HETATM   14  C   LIG     1      20.601  38.884  19.244  1.00  0.00     0.210 C 
ENDBRANCH  10  13
TORSDOF 2
ENDMDL
MODEL 14
REMARK VINA RESULT:      -4.8      1.545      2.988
REMARK  2 active torsions:
REMARK  status: ('A' for Active; 'I' for Inactive)
REMARK    1  A    between atoms: O_2  and  C_3 
REMARK    2  A    between atoms: C_12  and  O_13 
ROOT
HETATM    1  C   LIG     1      17.416  37.666  22.021  1.00  0.00     0.118 A 
HETATM    2  C   LIG     1      16.996  36.744  21.058  1.00  0.00     0.084 A 
HETATM    3  C   LIG     1      17.631  36.290  19.844  1.00  0.00     0.297 A 
HETATM    4  O   LIG     1      18.750  36.666  19.407  1.00  0.00    -0.259 OA
HETATM    5  C   LIG     1      15.800  36.075  21.140  1.00  0.00    -0.015 A 
HETATM    6  C   LIG     1      15.622  35.155  19.968  1.00  0.00     0.218 A 
HETATM    7  O   LIG     1      16.819  35.359  19.211  1.00  0.00    -0.313 OA
HETATM    8  C   LIG     1      14.935  36.288  22.207  1.00  0.00     0.013 A 
HETATM    9  C   LIG     1      15.310  37.204  23.202  1.00  0.00     0.040 A 
HETATM   10  C   LIG     1      16.546  37.902  23.126  1.00  0.00     0.102 A 
ENDROOT
BRANCH   1  11
HETATM   11  O   LIG     1      18.660  38.293  21.836  1.00  0.00    -0.352 OA
HETATM   12  C   LIG     1      18.886  39.529  21.168  1.00  0.00     0.210 C 
ENDBRANCH   1  11
BRANCH  10  13
HETATM   13  O   LIG     1      16.918  38.818  24.124  1.00  0.00    -0.353 OA
HETATM   14  C   LIG     1      17.338  38.464  25.438  1.00  0.00     0.210 C 
ENDBRANCH  10  13
TORSDOF 2
ENDMDL
MODEL 15
REMARK VINA RESULT:      -4.8      1.646      3.953
REMARK  2 active torsions:
REMARK  status: ('A' for Active; 'I' for Inactive)
REMARK    1  A    between atoms: O_2  and  C_3 
REMARK    2  A    between atoms: C_12  and  O_13 
ROOT
HETATM    1  C   LIG     1      17.309  37.259  22.381  1.00  0.00     0.118 A 
HETATM    2  C   LIG     1      17.247  36.410  23.489  1.00  0.00     0.084 A 
HETATM    3  C   LIG     1      16.730  35.070  23.625  1.00  0.00     0.297 A 
HETATM    4  O   LIG     1      16.208  34.379  22.710  1.00  0.00    -0.259 OA
HETATM    5  C   LIG     1      17.717  36.768  24.727  1.00  0.00    -0.015 A 
HETATM    6  C   LIG     1      17.516  35.657  25.716  1.00  0.00     0.218 A 
HETATM    7  O   LIG     1      16.891  34.636  24.933  1.00  0.00    -0.313 OA
HETATM    8  C   LIG     1      18.287  38.018  24.940  1.00  0.00     0.013 A 
HETATM    9  C   LIG     1      18.374  38.908  23.859  1.00  0.00     0.040 A 
HETATM   10  C   LIG     1      17.890  38.547  22.572  1.00  0.00     0.102 A 
ENDROOT
BRANCH   1  11
HETATM   11  O   LIG     1      16.797  36.788  21.159  1.00  0.00    -0.352 OA
HETATM   12  C   LIG     1      17.555  36.230  20.091  1.00  0.00     0.210 C 
ENDBRANCH   1  11
BRANCH  10  13
HETATM   13  O   LIG     1      17.979  39.441  21.493  1.00  0.00    -0.353 OA
HETATM   14  C   LIG     1      19.043  39.472  20.546  1.00  0.00     0.210 C 
ENDBRANCH  10  13
TORSDOF 2
ENDMDL
MODEL 16
REMARK VINA RESULT:      -4.5      7.370      8.918
REMARK  2 active torsions:
REMARK  status: ('A' for Active; 'I' for Inactive)
REMARK    1  A    between atoms: O_2  and  C_3 
REMARK    2  A    between atoms: C_12  and  O_13 
ROOT
HETATM    1  C   LIG     1      15.785  31.847  15.118  1.00  0.00     0.118 A 
HETATM    2  C   LIG     1      16.514  33.013  14.869  1.00  0.00     0.084 A 
HETATM    3  C   LIG     1      17.500  33.314  13.858  1.00  0.00     0.297 A 
HETATM    4  O   LIG     1      17.906  32.529  12.961  1.00  0.00    -0.259 OA
HETATM    5  C   LIG     1      16.381  34.150  15.626  1.00  0.00    -0.015 A 
HETATM    6  C   LIG     1      17.287  35.236  15.124  1.00  0.00     0.218 A 
HETATM    7  O   LIG     1      17.948  34.618  14.015  1.00  0.00    -0.313 OA
HETATM    8  C   LIG     1      15.497  34.194  16.698  1.00  0.00     0.013 A 
HETATM    9  C   LIG     1      14.740  33.049  16.990  1.00  0.00     0.040 A 
HETATM   10  C   LIG     1      14.871  31.866  16.212  1.00  0.00     0.102 A 
ENDROOT
BRANCH   1  11
HETATM   11  O   LIG     1      16.002  30.742  14.278  1.00  0.00    -0.352 OA
HETATM   12  C   LIG     1      15.036  30.129  13.430  1.00  0.00     0.210 C 
ENDBRANCH   1  11
BRANCH  10  13
HETATM   13  O   LIG     1      14.112  30.722  16.508  1.00  0.00    -0.353 OA
HETATM   14  C   LIG     1      12.733  30.555  16.191  1.00  0.00     0.210 C 
ENDBRANCH  10  13
TORSDOF 2
ENDMDL
MODEL 17
REMARK VINA RESULT:      -4.4      5.421      8.497
REMARK  2 active torsions:
REMARK  status: ('A' for Active; 'I' for Inactive)
REMARK    1  A    between atoms: O_2  and  C_3 
REMARK    2  A    between atoms: C_12  and  O_13 
ROOT
HETATM    1  C   LIG     1      15.408  33.237  16.646  1.00  0.00     0.118 A 
HETATM    2  C   LIG     1      15.209  33.049  18.016  1.00  0.00     0.084 A 
HETATM    3  C   LIG     1      15.550  33.882  19.144  1.00  0.00     0.297 A 
HETATM    4  O   LIG     1      16.125  35.001  19.093  1.00  0.00    -0.259 OA
HETATM    5  C   LIG     1      14.600  31.933  18.533  1.00  0.00    -0.015 A 
HETATM    6  C   LIG     1      14.526  32.010  20.030  1.00  0.00     0.218 A 
HETATM    7  O   LIG     1      15.147  33.266  20.321  1.00  0.00    -0.313 OA
HETATM    8  C   LIG     1      14.144  30.919  17.700  1.00  0.00     0.013 A 
HETATM    9  C   LIG     1      14.319  31.059  16.314  1.00  0.00     0.040 A 
HETATM   10  C   LIG     1      14.949  32.211  15.769  1.00  0.00     0.102 A 
ENDROOT
BRANCH   1  11
HETATM   11  O   LIG     1      16.044  34.419  16.228  1.00  0.00    -0.352 OA
HETATM   12  C   LIG     1      17.170  34.506  15.363  1.00  0.00     0.210 C 
ENDBRANCH   1  11
BRANCH  10  13
HETATM   13  O   LIG     1      15.123  32.348  14.383  1.00  0.00    -0.353 OA
HETATM   14  C   LIG     1      15.759  31.389  13.543  1.00  0.00     0.210 C 
ENDBRANCH  10  13
TORSDOF 2
ENDMDL
MODEL 18
REMARK VINA RESULT:      -3.6     16.281     16.695
REMARK  2 active torsions:
REMARK  status: ('A' for Active; 'I' for Inactive)
REMARK    1  A    between atoms: O_2  and  C_3 
REMARK    2  A    between atoms: C_12  and  O_13 
ROOT
HETATM    1  C   LIG     1      25.544  22.822  21.232  1.00  0.00     0.118 A 
HETATM    2  C   LIG     1      24.764  22.504  20.117  1.00  0.00     0.084 A 
HETATM    3  C   LIG     1      25.084  22.501  18.709  1.00  0.00     0.297 A 
HETATM    4  O   LIG     1      26.195  22.804  18.200  1.00  0.00    -0.259 OA
HETATM    5  C   LIG     1      23.453  22.110  20.214  1.00  0.00    -0.015 A 
HETATM    6  C   LIG     1      22.876  21.836  18.856  1.00  0.00     0.218 A 
HETATM    7  O   LIG     1      23.972  22.109  17.977  1.00  0.00    -0.313 OA
HETATM    8  C   LIG     1      22.829  22.008  21.452  1.00  0.00     0.013 A 
HETATM    9  C   LIG     1      23.569  22.316  22.604  1.00  0.00     0.040 A 
HETATM   10  C   LIG     1      24.927  22.725  22.514  1.00  0.00     0.102 A 
ENDROOT
BRANCH   1  11
HETATM   11  O   LIG     1      26.877  23.214  21.015  1.00  0.00    -0.352 OA
HETATM   12  C   LIG     1      27.360  24.551  20.960  1.00  0.00     0.210 C 
ENDBRANCH   1  11
BRANCH  10  13
HETATM   13  O   LIG     1      25.665  23.032  23.668  1.00  0.00    -0.353 OA
HETATM   14  C   LIG     1      25.138  23.043  24.992  1.00  0.00     0.210 C 
ENDBRANCH  10  13
TORSDOF 2
ENDMDL
