REMARK  2 active torsions:
REMARK  status: ('A' for Active; 'I' for Inactive)
REMARK    1  A    between atoms: O_2  and  C_3 
REMARK    2  A    between atoms: C_12  and  O_13 
ROOT
HETATM    1  C   LIG     1       0.020   0.705   0.319  1.00  0.00     0.118 A 
HETATM    2  C   LIG     1       1.333   0.349   0.638  1.00  0.00     0.084 A 
HETATM    3  C   LIG     1       2.367   1.076   1.335  1.00  0.00     0.297 A 
HETATM    4  O   LIG     1       2.265   2.237   1.812  1.00  0.00    -0.259 OA
HETATM    5  C   LIG     1       1.878  -0.864   0.299  1.00  0.00    -0.015 A 
HETATM    6  C   LIG     1       3.299  -0.962   0.772  1.00  0.00     0.218 A 
HETATM    7  O   LIG     1       3.516   0.301   1.409  1.00  0.00    -0.313 OA
HETATM    8  C   LIG     1       1.133  -1.813  -0.391  1.00  0.00     0.013 A 
HETATM    9  C   LIG     1      -0.192  -1.505  -0.735  1.00  0.00     0.040 A 
HETATM   10  C   LIG     1      -0.766  -0.251  -0.389  1.00  0.00     0.102 A 
ENDROOT
BRANCH   1  11
HETATM   11  O   LIG     1      -0.434   1.975   0.716  1.00  0.00    -0.352 OA
HETATM   12  C   LIG     1      -1.731   2.513   0.484  1.00  0.00     0.210 C 
ENDBRANCH   1  11
BRANCH  10  13
HETATM   13  O   LIG     1      -2.092   0.054  -0.735  1.00  0.00    -0.353 OA
HETATM   14  C   LIG     1      -2.971  -0.818  -1.440  1.00  0.00     0.210 C 
ENDBRANCH  10  13
TORSDOF 2
