MODEL 1
REMARK VINA RESULT:      -6.9      0.000      0.000
REMARK  15 active torsions:
REMARK  status: ('A' for Active; 'I' for Inactive)
REMARK    1  A    between atoms: C_2  and  C_3 
REMARK    2  A    between atoms: C_3  and  C_4 
REMARK    3  A    between atoms: C_4  and  C_5 
REMARK    4  A    between atoms: C_5  and  C_6 
REMARK    5  A    between atoms: C_6  and  C_7 
REMARK    6  A    between atoms: C_7  and  C_8 
REMARK    7  A    between atoms: C_8  and  C_9 
REMARK    8  A    between atoms: C_9  and  C_10 
REMARK    9  A    between atoms: C_10  and  C_11 
REMARK   10  A    between atoms: C_11  and  C_12 
REMARK   11  A    between atoms: C_12  and  C_13 
REMARK   12  A    between atoms: C_13  and  C_14 
REMARK   13  A    between atoms: C_14  and  C_15 
REMARK   14  A    between atoms: C_15  and  C_16 
REMARK   15  A    between atoms: C_16  and  O_17 
ROOT
HETATM    1  C   LIG     1      19.053  36.725  19.624  1.00  0.00     0.000 C 
ENDROOT
BRANCH   1   2
HETATM    2  C   LIG     1      19.557  38.142  19.957  1.00  0.00     0.000 C 
BRANCH   2   3
HETATM    3  C   LIG     1      18.430  39.094  20.392  1.00  0.00     0.000 C 
BRANCH   3   4
HETATM    4  C   LIG     1      18.549  39.535  21.864  1.00  0.00     0.000 C 
BRANCH   4   5
HETATM    5  C   LIG     1      17.688  38.744  22.865  1.00  0.00     0.000 C 
BRANCH   5   6
HETATM    6  C   LIG     1      18.445  38.379  24.153  1.00  0.00     0.000 C 
BRANCH   6   7
HETATM    7  C   LIG     1      17.695  37.352  25.022  1.00  0.00     0.000 C 
BRANCH   7   8
HETATM    8  C   LIG     1      18.471  36.836  26.248  1.00  0.00    -0.000 C 
BRANCH   8   9
HETATM    9  C   LIG     1      18.242  35.343  26.520  1.00  0.00    -0.005 C 
HETATM   10  C   LIG     1      17.276  34.740  25.506  1.00  0.00     0.005 C 
ENDBRANCH   8   9
ENDBRANCH   7   8
ENDBRANCH   6   7
ENDBRANCH   5   6
ENDBRANCH   4   5
ENDBRANCH   3   4
ENDBRANCH   2   3
ENDBRANCH   1   2
BRANCH   1  11
HETATM   11  C   LIG     1      17.617  36.411  20.081  1.00  0.00     0.000 C 
BRANCH  11  12
HETATM   12  C   LIG     1      17.566  35.503  21.321  1.00  0.00     0.000 C 
BRANCH  12  13
HETATM   13  C   LIG     1      16.152  34.966  21.599  1.00  0.00     0.001 C 
BRANCH  13  14
HETATM   14  C   LIG     1      15.461  34.442  20.327  1.00  0.00     0.010 C 
BRANCH  14  15
HETATM   15  C   LIG     1      15.583  32.918  20.172  1.00  0.00     0.110 C 
BRANCH  15  16
HETATM   16  C   LIG     1      15.112  32.443  18.829  1.00  0.00     0.139 C 
HETATM   17  O   LIG     1      15.746  32.766  17.789  1.00  0.00    -0.650 OA
BRANCH  16  18
HETATM   18  O   LIG     1      13.995  31.621  18.730  1.00  0.00    -0.776 OA
HETATM   19  H   LIG     1      13.826  31.072  17.896  1.00  0.00     0.167 HD
ENDBRANCH  16  18
ENDBRANCH  15  16
ENDBRANCH  14  15
ENDBRANCH  13  14
ENDBRANCH  12  13
ENDBRANCH  11  12
ENDBRANCH   1  11
TORSDOF 15
ENDMDL
MODEL 2
REMARK VINA RESULT:      -6.8      1.487      2.785
REMARK  15 active torsions:
REMARK  status: ('A' for Active; 'I' for Inactive)
REMARK    1  A    between atoms: C_2  and  C_3 
REMARK    2  A    between atoms: C_3  and  C_4 
REMARK    3  A    between atoms: C_4  and  C_5 
REMARK    4  A    between atoms: C_5  and  C_6 
REMARK    5  A    between atoms: C_6  and  C_7 
REMARK    6  A    between atoms: C_7  and  C_8 
REMARK    7  A    between atoms: C_8  and  C_9 
REMARK    8  A    between atoms: C_9  and  C_10 
REMARK    9  A    between atoms: C_10  and  C_11 
REMARK   10  A    between atoms: C_11  and  C_12 
REMARK   11  A    between atoms: C_12  and  C_13 
REMARK   12  A    between atoms: C_13  and  C_14 
REMARK   13  A    between atoms: C_14  and  C_15 
REMARK   14  A    between atoms: C_15  and  C_16 
REMARK   15  A    between atoms: C_16  and  O_17 
ROOT
HETATM    1  C   LIG     1      16.006  34.940  20.255  1.00  0.00     0.000 C 
ENDROOT
BRANCH   1   2
HETATM    2  C   LIG     1      16.829  35.572  21.394  1.00  0.00     0.000 C 
BRANCH   2   3
HETATM    3  C   LIG     1      17.945  36.500  20.884  1.00  0.00     0.000 C 
BRANCH   3   4
HETATM    4  C   LIG     1      17.768  37.961  21.340  1.00  0.00     0.000 C 
BRANCH   4   5
HETATM    5  C   LIG     1      16.743  38.186  22.468  1.00  0.00     0.000 C 
BRANCH   5   6
HETATM    6  C   LIG     1      17.401  38.485  23.826  1.00  0.00     0.000 C 
BRANCH   6   7
HETATM    7  C   LIG     1      17.261  37.326  24.830  1.00  0.00     0.000 C 
BRANCH   7   8
HETATM    8  C   LIG     1      18.483  37.091  25.738  1.00  0.00    -0.000 C 
BRANCH   8   9
HETATM    9  C   LIG     1      18.311  35.891  26.679  1.00  0.00    -0.005 C 
HETATM   10  C   LIG     1      17.468  34.797  26.030  1.00  0.00     0.005 C 
ENDBRANCH   8   9
ENDBRANCH   7   8
ENDBRANCH   6   7
ENDBRANCH   5   6
ENDBRANCH   4   5
ENDBRANCH   3   4
ENDBRANCH   2   3
ENDBRANCH   1   2
BRANCH   1  11
HETATM   11  C   LIG     1      15.253  33.649  20.624  1.00  0.00     0.000 C 
BRANCH  11  12
HETATM   12  C   LIG     1      15.757  32.417  19.851  1.00  0.00     0.000 C 
BRANCH  12  13
HETATM   13  C   LIG     1      14.607  31.563  19.294  1.00  0.00     0.001 C 
BRANCH  13  14
HETATM   14  C   LIG     1      14.274  31.905  17.831  1.00  0.00     0.010 C 
BRANCH  14  15
HETATM   15  C   LIG     1      15.466  32.520  17.081  1.00  0.00     0.110 C 
BRANCH  15  16
HETATM   16  C   LIG     1      15.227  33.952  16.707  1.00  0.00     0.139 C 
HETATM   17  O   LIG     1      16.145  34.623  16.164  1.00  0.00    -0.650 OA
BRANCH  16  18
HETATM   18  O   LIG     1      13.984  34.536  16.929  1.00  0.00    -0.776 OA
HETATM   19  H   LIG     1      13.228  34.006  17.345  1.00  0.00     0.167 HD
ENDBRANCH  16  18
ENDBRANCH  15  16
ENDBRANCH  14  15
ENDBRANCH  13  14
ENDBRANCH  12  13
ENDBRANCH  11  12
ENDBRANCH   1  11
TORSDOF 15
ENDMDL
MODEL 3
REMARK VINA RESULT:      -6.8      0.892      4.058
REMARK  15 active torsions:
REMARK  status: ('A' for Active; 'I' for Inactive)
REMARK    1  A    between atoms: C_2  and  C_3 
REMARK    2  A    between atoms: C_3  and  C_4 
REMARK    3  A    between atoms: C_4  and  C_5 
REMARK    4  A    between atoms: C_5  and  C_6 
REMARK    5  A    between atoms: C_6  and  C_7 
REMARK    6  A    between atoms: C_7  and  C_8 
REMARK    7  A    between atoms: C_8  and  C_9 
REMARK    8  A    between atoms: C_9  and  C_10 
REMARK    9  A    between atoms: C_10  and  C_11 
REMARK   10  A    between atoms: C_11  and  C_12 
REMARK   11  A    between atoms: C_12  and  C_13 
REMARK   12  A    between atoms: C_13  and  C_14 
REMARK   13  A    between atoms: C_14  and  C_15 
REMARK   14  A    between atoms: C_15  and  C_16 
REMARK   15  A    between atoms: C_16  and  O_17 
ROOT
HETATM    1  C   LIG     1      16.995  35.021  24.768  1.00  0.00     0.000 C 
ENDROOT
BRANCH   1   2
HETATM    2  C   LIG     1      18.099  35.659  25.633  1.00  0.00     0.000 C 
BRANCH   2   3
HETATM    3  C   LIG     1      17.901  37.169  25.840  1.00  0.00     0.000 C 
BRANCH   3   4
HETATM    4  C   LIG     1      18.060  37.982  24.541  1.00  0.00     0.000 C 
BRANCH   4   5
HETATM    5  C   LIG     1      16.752  38.520  23.931  1.00  0.00     0.000 C 
BRANCH   5   6
HETATM    6  C   LIG     1      16.925  39.026  22.489  1.00  0.00     0.000 C 
BRANCH   6   7
HETATM    7  C   LIG     1      18.223  38.525  21.828  1.00  0.00     0.000 C 
BRANCH   7   8
HETATM    8  C   LIG     1      18.854  39.489  20.806  1.00  0.00    -0.000 C 
BRANCH   8   9
HETATM    9  C   LIG     1      19.762  38.780  19.791  1.00  0.00    -0.005 C 
HETATM   10  C   LIG     1      19.314  37.340  19.563  1.00  0.00     0.005 C 
ENDBRANCH   8   9
ENDBRANCH   7   8
ENDBRANCH   6   7
ENDBRANCH   5   6
ENDBRANCH   4   5
ENDBRANCH   3   4
ENDBRANCH   2   3
ENDBRANCH   1   2
BRANCH   1  11
HETATM   11  C   LIG     1      17.319  34.900  23.268  1.00  0.00     0.000 C 
BRANCH  11  12
HETATM   12  C   LIG     1      16.170  35.380  22.364  1.00  0.00     0.000 C 
BRANCH  12  13
HETATM   13  C   LIG     1      16.572  35.434  20.881  1.00  0.00     0.001 C 
BRANCH  13  14
HETATM   14  C   LIG     1      15.572  34.698  19.972  1.00  0.00     0.010 C 
BRANCH  14  15
HETATM   15  C   LIG     1      15.645  33.171  20.126  1.00  0.00     0.110 C 
BRANCH  15  16
HETATM   16  C   LIG     1      15.134  32.451  18.914  1.00  0.00     0.139 C 
HETATM   17  O   LIG     1      15.685  32.632  17.795  1.00  0.00    -0.650 OA
BRANCH  16  18
HETATM   18  O   LIG     1      14.073  31.559  19.025  1.00  0.00    -0.776 OA
HETATM   19  H   LIG     1      13.607  31.200  18.201  1.00  0.00     0.167 HD
ENDBRANCH  16  18
ENDBRANCH  15  16
ENDBRANCH  14  15
ENDBRANCH  13  14
ENDBRANCH  12  13
ENDBRANCH  11  12
ENDBRANCH   1  11
TORSDOF 15
ENDMDL
MODEL 4
REMARK VINA RESULT:      -6.6      3.278      4.843
REMARK  15 active torsions:
REMARK  status: ('A' for Active; 'I' for Inactive)
REMARK    1  A    between atoms: C_2  and  C_3 
REMARK    2  A    between atoms: C_3  and  C_4 
REMARK    3  A    between atoms: C_4  and  C_5 
REMARK    4  A    between atoms: C_5  and  C_6 
REMARK    5  A    between atoms: C_6  and  C_7 
REMARK    6  A    between atoms: C_7  and  C_8 
REMARK    7  A    between atoms: C_8  and  C_9 
REMARK    8  A    between atoms: C_9  and  C_10 
REMARK    9  A    between atoms: C_10  and  C_11 
REMARK   10  A    between atoms: C_11  and  C_12 
REMARK   11  A    between atoms: C_12  and  C_13 
REMARK   12  A    between atoms: C_13  and  C_14 
REMARK   13  A    between atoms: C_14  and  C_15 
REMARK   14  A    between atoms: C_15  and  C_16 
REMARK   15  A    between atoms: C_16  and  O_17 
ROOT
HETATM    1  C   LIG     1      17.351  35.656  20.738  1.00  0.00     0.000 C 
ENDROOT
BRANCH   1   2
HETATM    2  C   LIG     1      16.770  35.774  22.161  1.00  0.00     0.000 C 
BRANCH   2   3
HETATM    3  C   LIG     1      15.690  36.862  22.281  1.00  0.00     0.000 C 
BRANCH   3   4
HETATM    4  C   LIG     1      15.972  37.868  23.414  1.00  0.00     0.000 C 
BRANCH   4   5
HETATM    5  C   LIG     1      17.331  38.586  23.341  1.00  0.00     0.000 C 
BRANCH   5   6
HETATM    6  C   LIG     1      18.305  38.144  24.447  1.00  0.00     0.000 C 
BRANCH   6   7
HETATM    7  C   LIG     1      17.601  37.441  25.622  1.00  0.00     0.000 C 
BRANCH   7   8
HETATM    8  C   LIG     1      18.527  36.655  26.568  1.00  0.00    -0.000 C 
BRANCH   8   9
HETATM    9  C   LIG     1      18.387  35.133  26.419  1.00  0.00    -0.005 C 
HETATM   10  C   LIG     1      17.203  34.773  25.528  1.00  0.00     0.005 C 
ENDBRANCH   8   9
ENDBRANCH   7   8
ENDBRANCH   6   7
ENDBRANCH   5   6
ENDBRANCH   4   5
ENDBRANCH   3   4
ENDBRANCH   2   3
ENDBRANCH   1   2
BRANCH   1  11
HETATM   11  C   LIG     1      17.889  36.967  20.135  1.00  0.00     0.000 C 
BRANCH  11  12
HETATM   12  C   LIG     1      19.368  36.874  19.720  1.00  0.00     0.000 C 
BRANCH  12  13
HETATM   13  C   LIG     1      20.048  38.252  19.655  1.00  0.00     0.001 C 
BRANCH  13  14
HETATM   14  C   LIG     1      19.231  39.274  18.845  1.00  0.00     0.010 C 
BRANCH  14  15
HETATM   15  C   LIG     1      19.110  38.893  17.361  1.00  0.00     0.110 C 
BRANCH  15  16
HETATM   16  C   LIG     1      18.330  39.904  16.575  1.00  0.00     0.139 C 
HETATM   17  O   LIG     1      18.137  41.056  17.048  1.00  0.00    -0.650 OA
BRANCH  16  18
HETATM   18  O   LIG     1      17.843  39.585  15.312  1.00  0.00    -0.776 OA
HETATM   19  H   LIG     1      17.984  40.209  14.528  1.00  0.00     0.167 HD
ENDBRANCH  16  18
ENDBRANCH  15  16
ENDBRANCH  14  15
ENDBRANCH  13  14
ENDBRANCH  12  13
ENDBRANCH  11  12
ENDBRANCH   1  11
TORSDOF 15
ENDMDL
MODEL 5
REMARK VINA RESULT:      -6.5      2.230      3.697
REMARK  15 active torsions:
REMARK  status: ('A' for Active; 'I' for Inactive)
REMARK    1  A    between atoms: C_2  and  C_3 
REMARK    2  A    between atoms: C_3  and  C_4 
REMARK    3  A    between atoms: C_4  and  C_5 
REMARK    4  A    between atoms: C_5  and  C_6 
REMARK    5  A    between atoms: C_6  and  C_7 
REMARK    6  A    between atoms: C_7  and  C_8 
REMARK    7  A    between atoms: C_8  and  C_9 
REMARK    8  A    between atoms: C_9  and  C_10 
REMARK    9  A    between atoms: C_10  and  C_11 
REMARK   10  A    between atoms: C_11  and  C_12 
REMARK   11  A    between atoms: C_12  and  C_13 
REMARK   12  A    between atoms: C_13  and  C_14 
REMARK   13  A    between atoms: C_14  and  C_15 
REMARK   14  A    between atoms: C_15  and  C_16 
REMARK   15  A    between atoms: C_16  and  O_17 
ROOT
HETATM    1  C   LIG     1      15.699  34.062  20.115  1.00  0.00     0.000 C 
ENDROOT
BRANCH   1   2
HETATM    2  C   LIG     1      15.390  34.965  21.324  1.00  0.00     0.000 C 
BRANCH   2   3
HETATM    3  C   LIG     1      16.655  35.429  22.066  1.00  0.00     0.000 C 
BRANCH   3   4
HETATM    4  C   LIG     1      16.894  36.947  21.958  1.00  0.00     0.000 C 
BRANCH   4   5
HETATM    5  C   LIG     1      16.439  37.778  23.172  1.00  0.00     0.000 C 
BRANCH   5   6
HETATM    6  C   LIG     1      17.611  38.260  24.044  1.00  0.00     0.000 C 
BRANCH   6   7
HETATM    7  C   LIG     1      17.479  37.834  25.518  1.00  0.00     0.000 C 
BRANCH   7   8
HETATM    8  C   LIG     1      18.645  36.989  26.065  1.00  0.00    -0.000 C 
BRANCH   8   9
HETATM    9  C   LIG     1      18.198  35.622  26.601  1.00  0.00    -0.005 C 
HETATM   10  C   LIG     1      17.389  34.858  25.558  1.00  0.00     0.005 C 
ENDBRANCH   8   9
ENDBRANCH   7   8
ENDBRANCH   6   7
ENDBRANCH   5   6
ENDBRANCH   4   5
ENDBRANCH   3   4
ENDBRANCH   2   3
ENDBRANCH   1   2
BRANCH   1  11
HETATM   11  C   LIG     1      15.085  32.651  20.172  1.00  0.00     0.000 C 
BRANCH  11  12
HETATM   12  C   LIG     1      15.318  31.841  18.885  1.00  0.00     0.000 C 
BRANCH  12  13
HETATM   13  C   LIG     1      14.323  32.207  17.771  1.00  0.00     0.001 C 
BRANCH  13  14
HETATM   14  C   LIG     1      14.900  33.233  16.780  1.00  0.00     0.010 C 
BRANCH  14  15
HETATM   15  C   LIG     1      15.678  32.573  15.630  1.00  0.00     0.110 C 
BRANCH  15  16
HETATM   16  C   LIG     1      16.922  33.330  15.276  1.00  0.00     0.139 C 
HETATM   17  O   LIG     1      17.905  32.725  14.769  1.00  0.00    -0.650 OA
BRANCH  16  18
HETATM   18  O   LIG     1      16.986  34.705  15.476  1.00  0.00    -0.776 OA
HETATM   19  H   LIG     1      17.839  35.219  15.290  1.00  0.00     0.167 HD
ENDBRANCH  16  18
ENDBRANCH  15  16
ENDBRANCH  14  15
ENDBRANCH  13  14
ENDBRANCH  12  13
ENDBRANCH  11  12
ENDBRANCH   1  11
TORSDOF 15
ENDMDL
MODEL 6
REMARK VINA RESULT:      -6.4      2.139      4.669
REMARK  15 active torsions:
REMARK  status: ('A' for Active; 'I' for Inactive)
REMARK    1  A    between atoms: C_2  and  C_3 
REMARK    2  A    between atoms: C_3  and  C_4 
REMARK    3  A    between atoms: C_4  and  C_5 
REMARK    4  A    between atoms: C_5  and  C_6 
REMARK    5  A    between atoms: C_6  and  C_7 
REMARK    6  A    between atoms: C_7  and  C_8 
REMARK    7  A    between atoms: C_8  and  C_9 
REMARK    8  A    between atoms: C_9  and  C_10 
REMARK    9  A    between atoms: C_10  and  C_11 
REMARK   10  A    between atoms: C_11  and  C_12 
REMARK   11  A    between atoms: C_12  and  C_13 
REMARK   12  A    between atoms: C_13  and  C_14 
REMARK   13  A    between atoms: C_14  and  C_15 
REMARK   14  A    between atoms: C_15  and  C_16 
REMARK   15  A    between atoms: C_16  and  O_17 
ROOT
HETATM    1  C   LIG     1      15.786  34.500  20.257  1.00  0.00     0.000 C 
ENDROOT
BRANCH   1   2
HETATM    2  C   LIG     1      15.688  35.418  21.491  1.00  0.00     0.000 C 
BRANCH   2   3
HETATM    3  C   LIG     1      16.923  35.330  22.403  1.00  0.00     0.000 C 
BRANCH   3   4
HETATM    4  C   LIG     1      17.058  36.537  23.352  1.00  0.00     0.000 C 
BRANCH   4   5
HETATM    5  C   LIG     1      16.469  37.860  22.830  1.00  0.00     0.000 C 
BRANCH   5   6
HETATM    6  C   LIG     1      17.545  38.912  22.509  1.00  0.00     0.000 C 
BRANCH   6   7
HETATM    7  C   LIG     1      17.917  38.955  21.015  1.00  0.00     0.000 C 
BRANCH   7   8
HETATM    8  C   LIG     1      19.417  39.133  20.715  1.00  0.00    -0.000 C 
BRANCH   8   9
HETATM    9  C   LIG     1      19.942  38.142  19.667  1.00  0.00    -0.005 C 
HETATM   10  C   LIG     1      19.036  36.920  19.560  1.00  0.00     0.005 C 
ENDBRANCH   8   9
ENDBRANCH   7   8
ENDBRANCH   6   7
ENDBRANCH   5   6
ENDBRANCH   4   5
ENDBRANCH   3   4
ENDBRANCH   2   3
ENDBRANCH   1   2
BRANCH   1  11
HETATM   11  C   LIG     1      15.083  33.136  20.393  1.00  0.00     0.000 C 
BRANCH  11  12
HETATM   12  C   LIG     1      15.538  32.117  19.333  1.00  0.00     0.000 C 
BRANCH  12  13
HETATM   13  C   LIG     1      14.566  32.031  18.145  1.00  0.00     0.001 C 
BRANCH  13  14
HETATM   14  C   LIG     1      15.042  32.854  16.934  1.00  0.00     0.010 C 
BRANCH  14  15
HETATM   15  C   LIG     1      15.205  32.000  15.667  1.00  0.00     0.110 C 
BRANCH  15  16
HETATM   16  C   LIG     1      16.383  32.427  14.841  1.00  0.00     0.139 C 
HETATM   17  O   LIG     1      16.203  32.912  13.693  1.00  0.00    -0.650 OA
BRANCH  16  18
HETATM   18  O   LIG     1      17.672  32.316  15.351  1.00  0.00    -0.776 OA
HETATM   19  H   LIG     1      18.469  32.220  14.734  1.00  0.00     0.167 HD
ENDBRANCH  16  18
ENDBRANCH  15  16
ENDBRANCH  14  15
ENDBRANCH  13  14
ENDBRANCH  12  13
ENDBRANCH  11  12
ENDBRANCH   1  11
TORSDOF 15
ENDMDL
MODEL 7
REMARK VINA RESULT:      -6.4      1.912      3.195
REMARK  15 active torsions:
REMARK  status: ('A' for Active; 'I' for Inactive)
REMARK    1  A    between atoms: C_2  and  C_3 
REMARK    2  A    between atoms: C_3  and  C_4 
REMARK    3  A    between atoms: C_4  and  C_5 
REMARK    4  A    between atoms: C_5  and  C_6 
REMARK    5  A    between atoms: C_6  and  C_7 
REMARK    6  A    between atoms: C_7  and  C_8 
REMARK    7  A    between atoms: C_8  and  C_9 
REMARK    8  A    between atoms: C_9  and  C_10 
REMARK    9  A    between atoms: C_10  and  C_11 
REMARK   10  A    between atoms: C_11  and  C_12 
REMARK   11  A    between atoms: C_12  and  C_13 
REMARK   12  A    between atoms: C_13  and  C_14 
REMARK   13  A    between atoms: C_14  and  C_15 
REMARK   14  A    between atoms: C_15  and  C_16 
REMARK   15  A    between atoms: C_16  and  O_17 
ROOT
HETATM    1  C   LIG     1      15.403  34.668  21.398  1.00  0.00     0.000 C 
ENDROOT
BRANCH   1   2
HETATM    2  C   LIG     1      16.541  35.566  21.920  1.00  0.00     0.000 C 
BRANCH   2   3
HETATM    3  C   LIG     1      16.056  36.962  22.347  1.00  0.00     0.000 C 
BRANCH   3   4
HETATM    4  C   LIG     1      17.144  38.044  22.212  1.00  0.00     0.000 C 
BRANCH   4   5
HETATM    5  C   LIG     1      17.431  38.858  23.487  1.00  0.00     0.000 C 
BRANCH   5   6
HETATM    6  C   LIG     1      18.375  38.134  24.463  1.00  0.00     0.000 C 
BRANCH   6   7
HETATM    7  C   LIG     1      17.631  37.469  25.636  1.00  0.00     0.000 C 
BRANCH   7   8
HETATM    8  C   LIG     1      18.515  36.655  26.599  1.00  0.00    -0.000 C 
BRANCH   8   9
HETATM    9  C   LIG     1      18.391  35.139  26.394  1.00  0.00    -0.005 C 
HETATM   10  C   LIG     1      17.250  34.803  25.440  1.00  0.00     0.005 C 
ENDBRANCH   8   9
ENDBRANCH   7   8
ENDBRANCH   6   7
ENDBRANCH   5   6
ENDBRANCH   4   5
ENDBRANCH   3   4
ENDBRANCH   2   3
ENDBRANCH   1   2
BRANCH   1  11
HETATM   11  C   LIG     1      15.649  34.025  20.021  1.00  0.00     0.000 C 
BRANCH  11  12
HETATM   12  C   LIG     1      15.129  32.580  19.930  1.00  0.00     0.000 C 
BRANCH  12  13
HETATM   13  C   LIG     1      15.430  31.931  18.569  1.00  0.00     0.001 C 
BRANCH  13  14
HETATM   14  C   LIG     1      14.522  32.466  17.447  1.00  0.00     0.010 C 
BRANCH  14  15
HETATM   15  C   LIG     1      14.405  31.490  16.266  1.00  0.00     0.110 C 
BRANCH  15  16
HETATM   16  C   LIG     1      13.035  30.890  16.157  1.00  0.00     0.139 C 
HETATM   17  O   LIG     1      12.142  31.205  16.988  1.00  0.00    -0.650 OA
BRANCH  16  18
HETATM   18  O   LIG     1      12.737  30.009  15.122  1.00  0.00    -0.776 OA
HETATM   19  H   LIG     1      13.191  30.092  14.222  1.00  0.00     0.167 HD
ENDBRANCH  16  18
ENDBRANCH  15  16
ENDBRANCH  14  15
ENDBRANCH  13  14
ENDBRANCH  12  13
ENDBRANCH  11  12
ENDBRANCH   1  11
TORSDOF 15
ENDMDL
MODEL 8
REMARK VINA RESULT:      -6.4      3.468      8.573
REMARK  15 active torsions:
REMARK  status: ('A' for Active; 'I' for Inactive)
REMARK    1  A    between atoms: C_2  and  C_3 
REMARK    2  A    between atoms: C_3  and  C_4 
REMARK    3  A    between atoms: C_4  and  C_5 
REMARK    4  A    between atoms: C_5  and  C_6 
REMARK    5  A    between atoms: C_6  and  C_7 
REMARK    6  A    between atoms: C_7  and  C_8 
REMARK    7  A    between atoms: C_8  and  C_9 
REMARK    8  A    between atoms: C_9  and  C_10 
REMARK    9  A    between atoms: C_10  and  C_11 
REMARK   10  A    between atoms: C_11  and  C_12 
REMARK   11  A    between atoms: C_12  and  C_13 
REMARK   12  A    between atoms: C_13  and  C_14 
REMARK   13  A    between atoms: C_14  and  C_15 
REMARK   14  A    between atoms: C_15  and  C_16 
REMARK   15  A    between atoms: C_16  and  O_17 
ROOT
HETATM    1  C   LIG     1      15.152  35.682  21.229  1.00  0.00     0.000 C 
ENDROOT
BRANCH   1   2
HETATM    2  C   LIG     1      15.602  34.799  20.049  1.00  0.00     0.000 C 
BRANCH   2   3
HETATM    3  C   LIG     1      15.398  33.297  20.311  1.00  0.00     0.000 C 
BRANCH   3   4
HETATM    4  C   LIG     1      15.584  32.435  19.047  1.00  0.00     0.000 C 
BRANCH   4   5
HETATM    5  C   LIG     1      14.337  31.660  18.584  1.00  0.00     0.000 C 
BRANCH   5   6
HETATM    6  C   LIG     1      13.982  31.918  17.109  1.00  0.00     0.000 C 
BRANCH   6   7
HETATM    7  C   LIG     1      12.943  30.924  16.558  1.00  0.00     0.000 C 
BRANCH   7   8
HETATM    8  C   LIG     1      13.301  30.281  15.206  1.00  0.00    -0.000 C 
BRANCH   8   9
HETATM    9  C   LIG     1      14.755  30.535  14.785  1.00  0.00    -0.005 C 
HETATM   10  C   LIG     1      15.344  29.320  14.075  1.00  0.00     0.005 C 
ENDBRANCH   8   9
ENDBRANCH   7   8
ENDBRANCH   6   7
ENDBRANCH   5   6
ENDBRANCH   4   5
ENDBRANCH   3   4
ENDBRANCH   2   3
ENDBRANCH   1   2
BRANCH   1  11
HETATM   11  C   LIG     1      16.278  36.162  22.161  1.00  0.00     0.000 C 
BRANCH  11  12
HETATM   12  C   LIG     1      16.029  37.570  22.731  1.00  0.00     0.000 C 
BRANCH  12  13
HETATM   13  C   LIG     1      17.175  38.544  22.414  1.00  0.00     0.001 C 
BRANCH  13  14
HETATM   14  C   LIG     1      18.002  38.104  21.193  1.00  0.00     0.010 C 
BRANCH  14  15
HETATM   15  C   LIG     1      19.068  39.138  20.797  1.00  0.00     0.110 C 
BRANCH  15  16
HETATM   16  C   LIG     1      19.572  38.930  19.400  1.00  0.00     0.139 C 
HETATM   17  O   LIG     1      18.916  38.218  18.594  1.00  0.00    -0.650 OA
BRANCH  16  18
HETATM   18  O   LIG     1      20.747  39.545  18.981  1.00  0.00    -0.776 OA
HETATM   19  H   LIG     1      21.064  40.407  19.409  1.00  0.00     0.167 HD
ENDBRANCH  16  18
ENDBRANCH  15  16
ENDBRANCH  14  15
ENDBRANCH  13  14
ENDBRANCH  12  13
ENDBRANCH  11  12
ENDBRANCH   1  11
TORSDOF 15
ENDMDL
MODEL 9
REMARK VINA RESULT:      -6.3      3.021      5.747
REMARK  15 active torsions:
REMARK  status: ('A' for Active; 'I' for Inactive)
REMARK    1  A    between atoms: C_2  and  C_3 
REMARK    2  A    between atoms: C_3  and  C_4 
REMARK    3  A    between atoms: C_4  and  C_5 
REMARK    4  A    between atoms: C_5  and  C_6 
REMARK    5  A    between atoms: C_6  and  C_7 
REMARK    6  A    between atoms: C_7  and  C_8 
REMARK    7  A    between atoms: C_8  and  C_9 
REMARK    8  A    between atoms: C_9  and  C_10 
REMARK    9  A    between atoms: C_10  and  C_11 
REMARK   10  A    between atoms: C_11  and  C_12 
REMARK   11  A    between atoms: C_12  and  C_13 
REMARK   12  A    between atoms: C_13  and  C_14 
REMARK   13  A    between atoms: C_14  and  C_15 
REMARK   14  A    between atoms: C_15  and  C_16 
REMARK   15  A    between atoms: C_16  and  O_17 
ROOT
HETATM    1  C   LIG     1      14.711  32.479  17.834  1.00  0.00     0.000 C 
ENDROOT
BRANCH   1   2
HETATM    2  C   LIG     1      14.798  31.956  19.281  1.00  0.00     0.000 C 
BRANCH   2   3
HETATM    3  C   LIG     1      15.764  32.771  20.157  1.00  0.00     0.000 C 
BRANCH   3   4
HETATM    4  C   LIG     1      15.347  34.247  20.300  1.00  0.00     0.000 C 
BRANCH   4   5
HETATM    5  C   LIG     1      16.487  35.230  20.628  1.00  0.00     0.000 C 
BRANCH   5   6
HETATM    6  C   LIG     1      16.974  35.120  22.083  1.00  0.00     0.000 C 
BRANCH   6   7
HETATM    7  C   LIG     1      16.813  36.432  22.872  1.00  0.00     0.000 C 
BRANCH   7   8
HETATM    8  C   LIG     1      17.204  36.357  24.360  1.00  0.00    -0.000 C 
BRANCH   8   9
HETATM    9  C   LIG     1      17.264  34.920  24.895  1.00  0.00    -0.005 C 
HETATM   10  C   LIG     1      17.974  34.862  26.243  1.00  0.00     0.005 C 
ENDBRANCH   8   9
ENDBRANCH   7   8
ENDBRANCH   6   7
ENDBRANCH   5   6
ENDBRANCH   4   5
ENDBRANCH   3   4
ENDBRANCH   2   3
ENDBRANCH   1   2
BRANCH   1  11
HETATM   11  C   LIG     1      13.458  32.047  17.051  1.00  0.00     0.000 C 
BRANCH  11  12
HETATM   12  C   LIG     1      13.500  30.572  16.616  1.00  0.00     0.000 C 
BRANCH  12  13
HETATM   13  C   LIG     1      13.670  30.410  15.097  1.00  0.00     0.001 C 
BRANCH  13  14
HETATM   14  C   LIG     1      15.147  30.302  14.678  1.00  0.00     0.010 C 
BRANCH  14  15
HETATM   15  C   LIG     1      15.465  31.115  13.414  1.00  0.00     0.110 C 
BRANCH  15  16
HETATM   16  C   LIG     1      16.390  32.263  13.692  1.00  0.00     0.139 C 
HETATM   17  O   LIG     1      17.440  32.404  13.011  1.00  0.00    -0.650 OA
BRANCH  16  18
HETATM   18  O   LIG     1      16.077  33.190  14.680  1.00  0.00    -0.776 OA
HETATM   19  H   LIG     1      16.645  33.273  15.514  1.00  0.00     0.167 HD
ENDBRANCH  16  18
ENDBRANCH  15  16
ENDBRANCH  14  15
ENDBRANCH  13  14
ENDBRANCH  12  13
ENDBRANCH  11  12
ENDBRANCH   1  11
TORSDOF 15
ENDMDL
MODEL 10
REMARK VINA RESULT:      -6.3      1.453      4.627
REMARK  15 active torsions:
REMARK  status: ('A' for Active; 'I' for Inactive)
REMARK    1  A    between atoms: C_2  and  C_3 
REMARK    2  A    between atoms: C_3  and  C_4 
REMARK    3  A    between atoms: C_4  and  C_5 
REMARK    4  A    between atoms: C_5  and  C_6 
REMARK    5  A    between atoms: C_6  and  C_7 
REMARK    6  A    between atoms: C_7  and  C_8 
REMARK    7  A    between atoms: C_8  and  C_9 
REMARK    8  A    between atoms: C_9  and  C_10 
REMARK    9  A    between atoms: C_10  and  C_11 
REMARK   10  A    between atoms: C_11  and  C_12 
REMARK   11  A    between atoms: C_12  and  C_13 
REMARK   12  A    between atoms: C_13  and  C_14 
REMARK   13  A    between atoms: C_14  and  C_15 
REMARK   14  A    between atoms: C_15  and  C_16 
REMARK   15  A    between atoms: C_16  and  O_17 
ROOT
HETATM    1  C   LIG     1      17.158  35.691  24.134  1.00  0.00     0.000 C 
ENDROOT
BRANCH   1   2
HETATM    2  C   LIG     1      17.655  37.149  24.177  1.00  0.00     0.000 C 
BRANCH   2   3
HETATM    3  C   LIG     1      16.532  38.174  23.949  1.00  0.00     0.000 C 
BRANCH   3   4
HETATM    4  C   LIG     1      16.715  38.991  22.656  1.00  0.00     0.000 C 
BRANCH   4   5
HETATM    5  C   LIG     1      17.740  38.427  21.654  1.00  0.00     0.000 C 
BRANCH   5   6
HETATM    6  C   LIG     1      18.704  39.497  21.113  1.00  0.00     0.000 C 
BRANCH   6   7
HETATM    7  C   LIG     1      19.758  38.924  20.148  1.00  0.00     0.000 C 
BRANCH   7   8
HETATM    8  C   LIG     1      19.223  38.497  18.768  1.00  0.00    -0.000 C 
BRANCH   8   9
HETATM    9  C   LIG     1      18.468  39.619  18.043  1.00  0.00    -0.005 C 
HETATM   10  C   LIG     1      18.789  39.625  16.551  1.00  0.00     0.005 C 
ENDBRANCH   8   9
ENDBRANCH   7   8
ENDBRANCH   6   7
ENDBRANCH   5   6
ENDBRANCH   4   5
ENDBRANCH   3   4
ENDBRANCH   2   3
ENDBRANCH   1   2
BRANCH   1  11
HETATM   11  C   LIG     1      17.228  35.011  22.754  1.00  0.00     0.000 C 
BRANCH  11  12
HETATM   12  C   LIG     1      15.931  35.167  21.941  1.00  0.00     0.000 C 
BRANCH  12  13
HETATM   13  C   LIG     1      15.987  34.421  20.598  1.00  0.00     0.001 C 
BRANCH  13  14
HETATM   14  C   LIG     1      15.043  33.206  20.559  1.00  0.00     0.010 C 
BRANCH  14  15
HETATM   15  C   LIG     1      15.507  32.128  19.566  1.00  0.00     0.110 C 
BRANCH  15  16
HETATM   16  C   LIG     1      14.919  32.321  18.200  1.00  0.00     0.139 C 
HETATM   17  O   LIG     1      15.620  32.812  17.276  1.00  0.00    -0.650 OA
BRANCH  16  18
HETATM   18  O   LIG     1      13.609  31.930  17.941  1.00  0.00    -0.776 OA
HETATM   19  H   LIG     1      13.281  31.812  16.990  1.00  0.00     0.167 HD
ENDBRANCH  16  18
ENDBRANCH  15  16
ENDBRANCH  14  15
ENDBRANCH  13  14
ENDBRANCH  12  13
ENDBRANCH  11  12
ENDBRANCH   1  11
TORSDOF 15
ENDMDL
MODEL 11
REMARK VINA RESULT:      -6.3      2.824      4.414
REMARK  15 active torsions:
REMARK  status: ('A' for Active; 'I' for Inactive)
REMARK    1  A    between atoms: C_2  and  C_3 
REMARK    2  A    between atoms: C_3  and  C_4 
REMARK    3  A    between atoms: C_4  and  C_5 
REMARK    4  A    between atoms: C_5  and  C_6 
REMARK    5  A    between atoms: C_6  and  C_7 
REMARK    6  A    between atoms: C_7  and  C_8 
REMARK    7  A    between atoms: C_8  and  C_9 
REMARK    8  A    between atoms: C_9  and  C_10 
REMARK    9  A    between atoms: C_10  and  C_11 
REMARK   10  A    between atoms: C_11  and  C_12 
REMARK   11  A    between atoms: C_12  and  C_13 
REMARK   12  A    between atoms: C_13  and  C_14 
REMARK   13  A    between atoms: C_14  and  C_15 
REMARK   14  A    between atoms: C_15  and  C_16 
REMARK   15  A    between atoms: C_16  and  O_17 
ROOT
HETATM    1  C   LIG     1      15.379  33.387  20.061  1.00  0.00     0.000 C 
ENDROOT
BRANCH   1   2
HETATM    2  C   LIG     1      15.698  34.835  19.644  1.00  0.00     0.000 C 
BRANCH   2   3
HETATM    3  C   LIG     1      16.660  35.542  20.613  1.00  0.00     0.000 C 
BRANCH   3   4
HETATM    4  C   LIG     1      15.985  35.964  21.932  1.00  0.00     0.000 C 
BRANCH   4   5
HETATM    5  C   LIG     1      16.940  36.237  23.109  1.00  0.00     0.000 C 
BRANCH   5   6
HETATM    6  C   LIG     1      17.039  37.729  23.469  1.00  0.00     0.000 C 
BRANCH   6   7
HETATM    7  C   LIG     1      18.028  38.006  24.616  1.00  0.00     0.000 C 
BRANCH   7   8
HETATM    8  C   LIG     1      17.624  37.430  25.986  1.00  0.00    -0.000 C 
BRANCH   8   9
HETATM    9  C   LIG     1      18.632  36.408  26.530  1.00  0.00    -0.005 C 
HETATM   10  C   LIG     1      18.133  34.981  26.329  1.00  0.00     0.005 C 
ENDBRANCH   8   9
ENDBRANCH   7   8
ENDBRANCH   6   7
ENDBRANCH   5   6
ENDBRANCH   4   5
ENDBRANCH   3   4
ENDBRANCH   2   3
ENDBRANCH   1   2
BRANCH   1  11
HETATM   11  C   LIG     1      15.619  32.320  18.977  1.00  0.00     0.000 C 
BRANCH  11  12
HETATM   12  C   LIG     1      14.314  31.748  18.397  1.00  0.00     0.000 C 
BRANCH  12  13
HETATM   13  C   LIG     1      14.040  32.240  16.967  1.00  0.00     0.001 C 
BRANCH  13  14
HETATM   14  C   LIG     1      14.352  31.170  15.906  1.00  0.00     0.010 C 
BRANCH  14  15
HETATM   15  C   LIG     1      13.109  30.368  15.491  1.00  0.00     0.110 C 
BRANCH  15  16
HETATM   16  C   LIG     1      13.401  29.394  14.389  1.00  0.00     0.139 C 
HETATM   17  O   LIG     1      14.587  29.218  14.001  1.00  0.00    -0.650 OA
BRANCH  16  18
HETATM   18  O   LIG     1      12.370  28.659  13.812  1.00  0.00    -0.776 OA
HETATM   19  H   LIG     1      11.462  29.076  13.650  1.00  0.00     0.167 HD
ENDBRANCH  16  18
ENDBRANCH  15  16
ENDBRANCH  14  15
ENDBRANCH  13  14
ENDBRANCH  12  13
ENDBRANCH  11  12
ENDBRANCH   1  11
TORSDOF 15
ENDMDL
MODEL 12
REMARK VINA RESULT:      -6.2      2.473      4.555
REMARK  15 active torsions:
REMARK  status: ('A' for Active; 'I' for Inactive)
REMARK    1  A    between atoms: C_2  and  C_3 
REMARK    2  A    between atoms: C_3  and  C_4 
REMARK    3  A    between atoms: C_4  and  C_5 
REMARK    4  A    between atoms: C_5  and  C_6 
REMARK    5  A    between atoms: C_6  and  C_7 
REMARK    6  A    between atoms: C_7  and  C_8 
REMARK    7  A    between atoms: C_8  and  C_9 
REMARK    8  A    between atoms: C_9  and  C_10 
REMARK    9  A    between atoms: C_10  and  C_11 
REMARK   10  A    between atoms: C_11  and  C_12 
REMARK   11  A    between atoms: C_12  and  C_13 
REMARK   12  A    between atoms: C_13  and  C_14 
REMARK   13  A    between atoms: C_14  and  C_15 
REMARK   14  A    between atoms: C_15  and  C_16 
REMARK   15  A    between atoms: C_16  and  O_17 
ROOT
HETATM    1  C   LIG     1      15.531  33.099  20.034  1.00  0.00     0.000 C 
ENDROOT
BRANCH   1   2
HETATM    2  C   LIG     1      14.919  33.903  21.197  1.00  0.00     0.000 C 
BRANCH   2   3
HETATM    3  C   LIG     1      15.298  35.393  21.164  1.00  0.00     0.000 C 
BRANCH   3   4
HETATM    4  C   LIG     1      16.684  35.675  21.773  1.00  0.00     0.000 C 
BRANCH   4   5
HETATM    5  C   LIG     1      17.582  36.630  20.965  1.00  0.00     0.000 C 
BRANCH   5   6
HETATM    6  C   LIG     1      17.786  37.991  21.654  1.00  0.00     0.000 C 
BRANCH   6   7
HETATM    7  C   LIG     1      17.062  38.093  23.009  1.00  0.00     0.000 C 
BRANCH   7   8
HETATM    8  C   LIG     1      17.978  38.295  24.231  1.00  0.00    -0.000 C 
BRANCH   8   9
HETATM    9  C   LIG     1      17.412  37.674  25.516  1.00  0.00    -0.005 C 
HETATM   10  C   LIG     1      18.413  36.714  26.151  1.00  0.00     0.005 C 
ENDBRANCH   8   9
ENDBRANCH   7   8
ENDBRANCH   6   7
ENDBRANCH   5   6
ENDBRANCH   4   5
ENDBRANCH   3   4
ENDBRANCH   2   3
ENDBRANCH   1   2
BRANCH   1  11
HETATM   11  C   LIG     1      14.830  31.767  19.712  1.00  0.00     0.000 C 
BRANCH  11  12
HETATM   12  C   LIG     1      14.397  31.655  18.240  1.00  0.00     0.000 C 
BRANCH  12  13
HETATM   13  C   LIG     1      15.153  32.634  17.328  1.00  0.00     0.001 C 
BRANCH  13  14
HETATM   14  C   LIG     1      15.146  32.192  15.854  1.00  0.00     0.010 C 
BRANCH  14  15
HETATM   15  C   LIG     1      14.354  30.894  15.630  1.00  0.00     0.110 C 
BRANCH  15  16
HETATM   16  C   LIG     1      14.791  30.166  14.393  1.00  0.00     0.139 C 
HETATM   17  O   LIG     1      14.239  29.079  14.074  1.00  0.00    -0.650 OA
BRANCH  16  18
HETATM   18  O   LIG     1      15.784  30.702  13.580  1.00  0.00    -0.776 OA
HETATM   19  H   LIG     1      16.417  31.411  13.930  1.00  0.00     0.167 HD
ENDBRANCH  16  18
ENDBRANCH  15  16
ENDBRANCH  14  15
ENDBRANCH  13  14
ENDBRANCH  12  13
ENDBRANCH  11  12
ENDBRANCH   1  11
TORSDOF 15
ENDMDL
MODEL 13
REMARK VINA RESULT:      -6.2      2.828      5.377
REMARK  15 active torsions:
REMARK  status: ('A' for Active; 'I' for Inactive)
REMARK    1  A    between atoms: C_2  and  C_3 
REMARK    2  A    between atoms: C_3  and  C_4 
REMARK    3  A    between atoms: C_4  and  C_5 
REMARK    4  A    between atoms: C_5  and  C_6 
REMARK    5  A    between atoms: C_6  and  C_7 
REMARK    6  A    between atoms: C_7  and  C_8 
REMARK    7  A    between atoms: C_8  and  C_9 
REMARK    8  A    between atoms: C_9  and  C_10 
REMARK    9  A    between atoms: C_10  and  C_11 
REMARK   10  A    between atoms: C_11  and  C_12 
REMARK   11  A    between atoms: C_12  and  C_13 
REMARK   12  A    between atoms: C_13  and  C_14 
REMARK   13  A    between atoms: C_14  and  C_15 
REMARK   14  A    between atoms: C_15  and  C_16 
REMARK   15  A    between atoms: C_16  and  O_17 
ROOT
HETATM    1  C   LIG     1      15.616  32.423  20.051  1.00  0.00     0.000 C 
ENDROOT
BRANCH   1   2
HETATM    2  C   LIG     1      15.590  33.962  19.978  1.00  0.00     0.000 C 
BRANCH   2   3
HETATM    3  C   LIG     1      15.557  34.628  21.364  1.00  0.00     0.000 C 
BRANCH   3   4
HETATM    4  C   LIG     1      16.521  35.824  21.481  1.00  0.00     0.000 C 
BRANCH   4   5
HETATM    5  C   LIG     1      16.917  36.220  22.915  1.00  0.00     0.000 C 
BRANCH   5   6
HETATM    6  C   LIG     1      16.417  37.619  23.312  1.00  0.00     0.000 C 
BRANCH   6   7
HETATM    7  C   LIG     1      16.832  38.713  22.310  1.00  0.00     0.000 C 
BRANCH   7   8
HETATM    8  C   LIG     1      18.350  38.939  22.177  1.00  0.00    -0.000 C 
BRANCH   8   9
HETATM    9  C   LIG     1      18.783  39.282  20.745  1.00  0.00    -0.005 C 
HETATM   10  C   LIG     1      19.031  38.019  19.926  1.00  0.00     0.005 C 
ENDBRANCH   8   9
ENDBRANCH   7   8
ENDBRANCH   6   7
ENDBRANCH   5   6
ENDBRANCH   4   5
ENDBRANCH   3   4
ENDBRANCH   2   3
ENDBRANCH   1   2
BRANCH   1  11
HETATM   11  C   LIG     1      14.686  31.700  19.060  1.00  0.00     0.000 C 
BRANCH  11  12
HETATM   12  C   LIG     1      14.643  32.371  17.676  1.00  0.00     0.000 C 
BRANCH  12  13
HETATM   13  C   LIG     1      13.330  32.092  16.927  1.00  0.00     0.001 C 
BRANCH  13  14
HETATM   14  C   LIG     1      13.346  30.740  16.192  1.00  0.00     0.010 C 
BRANCH  14  15
HETATM   15  C   LIG     1      14.456  30.656  15.133  1.00  0.00     0.110 C 
BRANCH  15  16
HETATM   16  C   LIG     1      14.230  29.540  14.157  1.00  0.00     0.139 C 
HETATM   17  O   LIG     1      13.137  28.913  14.161  1.00  0.00    -0.650 OA
BRANCH  16  18
HETATM   18  O   LIG     1      15.211  29.213  13.227  1.00  0.00    -0.776 OA
HETATM   19  H   LIG     1      15.334  28.257  12.915  1.00  0.00     0.167 HD
ENDBRANCH  16  18
ENDBRANCH  15  16
ENDBRANCH  14  15
ENDBRANCH  13  14
ENDBRANCH  12  13
ENDBRANCH  11  12
ENDBRANCH   1  11
TORSDOF 15
ENDMDL
MODEL 14
REMARK VINA RESULT:      -6.2      3.980      9.004
REMARK  15 active torsions:
REMARK  status: ('A' for Active; 'I' for Inactive)
REMARK    1  A    between atoms: C_2  and  C_3 
REMARK    2  A    between atoms: C_3  and  C_4 
REMARK    3  A    between atoms: C_4  and  C_5 
REMARK    4  A    between atoms: C_5  and  C_6 
REMARK    5  A    between atoms: C_6  and  C_7 
REMARK    6  A    between atoms: C_7  and  C_8 
REMARK    7  A    between atoms: C_8  and  C_9 
REMARK    8  A    between atoms: C_9  and  C_10 
REMARK    9  A    between atoms: C_10  and  C_11 
REMARK   10  A    between atoms: C_11  and  C_12 
REMARK   11  A    between atoms: C_12  and  C_13 
REMARK   12  A    between atoms: C_13  and  C_14 
REMARK   13  A    between atoms: C_14  and  C_15 
REMARK   14  A    between atoms: C_15  and  C_16 
REMARK   15  A    between atoms: C_16  and  O_17 
ROOT
HETATM    1  C   LIG     1      15.640  33.157  20.239  1.00  0.00     0.000 C 
ENDROOT
BRANCH   1   2
HETATM    2  C   LIG     1      14.903  32.219  19.264  1.00  0.00     0.000 C 
BRANCH   2   3
HETATM    3  C   LIG     1      15.257  32.486  17.791  1.00  0.00     0.000 C 
BRANCH   3   4
HETATM    4  C   LIG     1      14.063  33.008  16.969  1.00  0.00     0.000 C 
BRANCH   4   5
HETATM    5  C   LIG     1      12.930  31.993  16.727  1.00  0.00     0.000 C 
BRANCH   5   6
HETATM    6  C   LIG     1      13.445  30.562  16.493  1.00  0.00     0.000 C 
BRANCH   6   7
HETATM    7  C   LIG     1      13.513  30.185  15.001  1.00  0.00     0.000 C 
BRANCH   7   8
HETATM    8  C   LIG     1      14.926  29.897  14.460  1.00  0.00    -0.000 C 
BRANCH   8   9
HETATM    9  C   LIG     1      15.405  30.942  13.443  1.00  0.00    -0.005 C 
HETATM   10  C   LIG     1      16.123  32.096  14.134  1.00  0.00     0.005 C 
ENDBRANCH   8   9
ENDBRANCH   7   8
ENDBRANCH   6   7
ENDBRANCH   5   6
ENDBRANCH   4   5
ENDBRANCH   3   4
ENDBRANCH   2   3
ENDBRANCH   1   2
BRANCH   1  11
HETATM   11  C   LIG     1      15.632  34.647  19.854  1.00  0.00     0.000 C 
BRANCH  11  12
HETATM   12  C   LIG     1      15.462  35.581  21.065  1.00  0.00     0.000 C 
BRANCH  12  13
HETATM   13  C   LIG     1      16.770  35.771  21.850  1.00  0.00     0.001 C 
BRANCH  13  14
HETATM   14  C   LIG     1      17.549  37.021  21.402  1.00  0.00     0.010 C 
BRANCH  14  15
HETATM   15  C   LIG     1      17.098  38.293  22.137  1.00  0.00     0.110 C 
BRANCH  15  16
HETATM   16  C   LIG     1      17.203  38.157  23.627  1.00  0.00     0.139 C 
HETATM   17  O   LIG     1      18.330  38.222  24.187  1.00  0.00    -0.650 OA
BRANCH  16  18
HETATM   18  O   LIG     1      16.057  37.991  24.398  1.00  0.00    -0.776 OA
HETATM   19  H   LIG     1      15.539  38.791  24.739  1.00  0.00     0.167 HD
ENDBRANCH  16  18
ENDBRANCH  15  16
ENDBRANCH  14  15
ENDBRANCH  13  14
ENDBRANCH  12  13
ENDBRANCH  11  12
ENDBRANCH   1  11
TORSDOF 15
ENDMDL
MODEL 15
REMARK VINA RESULT:      -6.2      3.189      5.385
REMARK  15 active torsions:
REMARK  status: ('A' for Active; 'I' for Inactive)
REMARK    1  A    between atoms: C_2  and  C_3 
REMARK    2  A    between atoms: C_3  and  C_4 
REMARK    3  A    between atoms: C_4  and  C_5 
REMARK    4  A    between atoms: C_5  and  C_6 
REMARK    5  A    between atoms: C_6  and  C_7 
REMARK    6  A    between atoms: C_7  and  C_8 
REMARK    7  A    between atoms: C_8  and  C_9 
REMARK    8  A    between atoms: C_9  and  C_10 
REMARK    9  A    between atoms: C_10  and  C_11 
REMARK   10  A    between atoms: C_11  and  C_12 
REMARK   11  A    between atoms: C_12  and  C_13 
REMARK   12  A    between atoms: C_13  and  C_14 
REMARK   13  A    between atoms: C_14  and  C_15 
REMARK   14  A    between atoms: C_15  and  C_16 
REMARK   15  A    between atoms: C_16  and  O_17 
ROOT
HETATM    1  C   LIG     1      16.270  35.233  22.097  1.00  0.00     0.000 C 
ENDROOT
BRANCH   1   2
HETATM    2  C   LIG     1      17.356  34.989  23.162  1.00  0.00     0.000 C 
BRANCH   2   3
HETATM    3  C   LIG     1      16.799  34.967  24.595  1.00  0.00     0.000 C 
BRANCH   3   4
HETATM    4  C   LIG     1      17.899  34.851  25.667  1.00  0.00     0.000 C 
BRANCH   4   5
HETATM    5  C   LIG     1      18.573  36.174  26.073  1.00  0.00     0.000 C 
BRANCH   5   6
HETATM    6  C   LIG     1      17.564  37.301  26.355  1.00  0.00     0.000 C 
BRANCH   6   7
HETATM    7  C   LIG     1      17.300  38.193  25.128  1.00  0.00     0.000 C 
BRANCH   7   8
HETATM    8  C   LIG     1      18.454  38.268  24.110  1.00  0.00    -0.000 C 
BRANCH   8   9
HETATM    9  C   LIG     1      18.076  39.022  22.828  1.00  0.00    -0.005 C 
HETATM   10  C   LIG     1      16.570  38.989  22.592  1.00  0.00     0.005 C 
ENDBRANCH   8   9
ENDBRANCH   7   8
ENDBRANCH   6   7
ENDBRANCH   5   6
ENDBRANCH   4   5
ENDBRANCH   3   4
ENDBRANCH   2   3
ENDBRANCH   1   2
BRANCH   1  11
HETATM   11  C   LIG     1      16.789  35.618  20.700  1.00  0.00     0.000 C 
BRANCH  11  12
HETATM   12  C   LIG     1      18.138  36.357  20.742  1.00  0.00     0.000 C 
BRANCH  12  13
HETATM   13  C   LIG     1      18.640  36.744  19.342  1.00  0.00     0.001 C 
BRANCH  13  14
HETATM   14  C   LIG     1      19.540  37.993  19.364  1.00  0.00     0.010 C 
BRANCH  14  15
HETATM   15  C   LIG     1      18.756  39.291  19.112  1.00  0.00     0.110 C 
BRANCH  15  16
HETATM   16  C   LIG     1      18.790  39.707  17.672  1.00  0.00     0.139 C 
HETATM   17  O   LIG     1      19.877  39.683  17.035  1.00  0.00    -0.650 OA
BRANCH  16  18
HETATM   18  O   LIG     1      17.619  40.089  17.025  1.00  0.00    -0.776 OA
HETATM   19  H   LIG     1      17.367  41.066  16.942  1.00  0.00     0.167 HD
ENDBRANCH  16  18
ENDBRANCH  15  16
ENDBRANCH  14  15
ENDBRANCH  13  14
ENDBRANCH  12  13
ENDBRANCH  11  12
ENDBRANCH   1  11
TORSDOF 15
ENDMDL
MODEL 16
REMARK VINA RESULT:      -6.1      1.311      3.032
REMARK  15 active torsions:
REMARK  status: ('A' for Active; 'I' for Inactive)
REMARK    1  A    between atoms: C_2  and  C_3 
REMARK    2  A    between atoms: C_3  and  C_4 
REMARK    3  A    between atoms: C_4  and  C_5 
REMARK    4  A    between atoms: C_5  and  C_6 
REMARK    5  A    between atoms: C_6  and  C_7 
REMARK    6  A    between atoms: C_7  and  C_8 
REMARK    7  A    between atoms: C_8  and  C_9 
REMARK    8  A    between atoms: C_9  and  C_10 
REMARK    9  A    between atoms: C_10  and  C_11 
REMARK   10  A    between atoms: C_11  and  C_12 
REMARK   11  A    between atoms: C_12  and  C_13 
REMARK   12  A    between atoms: C_13  and  C_14 
REMARK   13  A    between atoms: C_14  and  C_15 
REMARK   14  A    between atoms: C_15  and  C_16 
REMARK   15  A    between atoms: C_16  and  O_17 
ROOT
HETATM    1  C   LIG     1      16.338  35.446  22.020  1.00  0.00     0.000 C 
ENDROOT
BRANCH   1   2
HETATM    2  C   LIG     1      17.729  35.569  21.369  1.00  0.00     0.000 C 
BRANCH   2   3
HETATM    3  C   LIG     1      17.717  36.406  20.080  1.00  0.00     0.000 C 
BRANCH   3   4
HETATM    4  C   LIG     1      18.894  37.396  19.993  1.00  0.00     0.000 C 
BRANCH   4   5
HETATM    5  C   LIG     1      18.515  38.886  20.071  1.00  0.00     0.000 C 
BRANCH   5   6
HETATM    6  C   LIG     1      18.732  39.490  21.469  1.00  0.00     0.000 C 
BRANCH   6   7
HETATM    7  C   LIG     1      17.685  39.020  22.496  1.00  0.00     0.000 C 
BRANCH   7   8
HETATM    8  C   LIG     1      18.257  38.346  23.756  1.00  0.00    -0.000 C 
BRANCH   8   9
HETATM    9  C   LIG     1      17.172  37.900  24.746  1.00  0.00    -0.005 C 
HETATM   10  C   LIG     1      17.762  37.051  25.867  1.00  0.00     0.005 C 
ENDBRANCH   8   9
ENDBRANCH   7   8
ENDBRANCH   6   7
ENDBRANCH   5   6
ENDBRANCH   4   5
ENDBRANCH   3   4
ENDBRANCH   2   3
ENDBRANCH   1   2
BRANCH   1  11
HETATM   11  C   LIG     1      15.188  35.097  21.058  1.00  0.00     0.000 C 
BRANCH  11  12
HETATM   12  C   LIG     1      14.858  33.595  21.036  1.00  0.00     0.000 C 
BRANCH  12  13
HETATM   13  C   LIG     1      15.647  32.835  19.958  1.00  0.00     0.001 C 
BRANCH  13  14
HETATM   14  C   LIG     1      14.752  31.911  19.112  1.00  0.00     0.010 C 
BRANCH  14  15
HETATM   15  C   LIG     1      14.647  32.368  17.649  1.00  0.00     0.110 C 
BRANCH  15  16
HETATM   16  C   LIG     1      13.694  31.523  16.856  1.00  0.00     0.139 C 
HETATM   17  O   LIG     1      12.452  31.642  17.031  1.00  0.00    -0.650 OA
BRANCH  16  18
HETATM   18  O   LIG     1      14.176  30.629  15.905  1.00  0.00    -0.776 OA
HETATM   19  H   LIG     1      13.697  30.502  15.022  1.00  0.00     0.167 HD
ENDBRANCH  16  18
ENDBRANCH  15  16
ENDBRANCH  14  15
ENDBRANCH  13  14
ENDBRANCH  12  13
ENDBRANCH  11  12
ENDBRANCH   1  11
TORSDOF 15
ENDMDL
MODEL 17
REMARK VINA RESULT:      -5.8      2.935      6.305
REMARK  15 active torsions:
REMARK  status: ('A' for Active; 'I' for Inactive)
REMARK    1  A    between atoms: C_2  and  C_3 
REMARK    2  A    between atoms: C_3  and  C_4 
REMARK    3  A    between atoms: C_4  and  C_5 
REMARK    4  A    between atoms: C_5  and  C_6 
REMARK    5  A    between atoms: C_6  and  C_7 
REMARK    6  A    between atoms: C_7  and  C_8 
REMARK    7  A    between atoms: C_8  and  C_9 
REMARK    8  A    between atoms: C_9  and  C_10 
REMARK    9  A    between atoms: C_10  and  C_11 
REMARK   10  A    between atoms: C_11  and  C_12 
REMARK   11  A    between atoms: C_12  and  C_13 
REMARK   12  A    between atoms: C_13  and  C_14 
REMARK   13  A    between atoms: C_14  and  C_15 
REMARK   14  A    between atoms: C_15  and  C_16 
REMARK   15  A    between atoms: C_16  and  O_17 
ROOT
HETATM    1  C   LIG     1      14.886  32.492  18.123  1.00  0.00     0.000 C 
ENDROOT
BRANCH   1   2
HETATM    2  C   LIG     1      15.529  32.193  19.491  1.00  0.00     0.000 C 
BRANCH   2   3
HETATM    3  C   LIG     1      15.152  33.222  20.570  1.00  0.00     0.000 C 
BRANCH   3   4
HETATM    4  C   LIG     1      15.763  34.613  20.314  1.00  0.00     0.000 C 
BRANCH   4   5
HETATM    5  C   LIG     1      16.760  35.105  21.379  1.00  0.00     0.000 C 
BRANCH   5   6
HETATM    6  C   LIG     1      16.586  36.595  21.723  1.00  0.00     0.000 C 
BRANCH   6   7
HETATM    7  C   LIG     1      17.819  37.444  21.362  1.00  0.00     0.000 C 
BRANCH   7   8
HETATM    8  C   LIG     1      18.522  37.055  20.048  1.00  0.00    -0.000 C 
BRANCH   8   9
HETATM    9  C   LIG     1      19.542  38.101  19.579  1.00  0.00    -0.005 C 
HETATM   10  C   LIG     1      18.999  38.914  18.408  1.00  0.00     0.005 C 
ENDBRANCH   8   9
ENDBRANCH   7   8
ENDBRANCH   6   7
ENDBRANCH   5   6
ENDBRANCH   4   5
ENDBRANCH   3   4
ENDBRANCH   2   3
ENDBRANCH   1   2
BRANCH   1  11
HETATM   11  C   LIG     1      13.847  31.463  17.643  1.00  0.00     0.000 C 
BRANCH  11  12
HETATM   12  C   LIG     1      13.544  31.572  16.138  1.00  0.00     0.000 C 
BRANCH  12  13
HETATM   13  C   LIG     1      14.158  30.417  15.330  1.00  0.00     0.001 C 
BRANCH  13  14
HETATM   14  C   LIG     1      15.129  30.910  14.243  1.00  0.00     0.010 C 
BRANCH  14  15
HETATM   15  C   LIG     1      16.326  31.680  14.824  1.00  0.00     0.110 C 
BRANCH  15  16
HETATM   16  C   LIG     1      16.794  32.776  13.915  1.00  0.00     0.139 C 
HETATM   17  O   LIG     1      16.824  33.967  14.327  1.00  0.00    -0.650 OA
BRANCH  16  18
HETATM   18  O   LIG     1      17.225  32.481  12.625  1.00  0.00    -0.776 OA
HETATM   19  H   LIG     1      16.994  31.597  12.190  1.00  0.00     0.167 HD
ENDBRANCH  16  18
ENDBRANCH  15  16
ENDBRANCH  14  15
ENDBRANCH  13  14
ENDBRANCH  12  13
ENDBRANCH  11  12
ENDBRANCH   1  11
TORSDOF 15
ENDMDL
MODEL 18
REMARK VINA RESULT:      -5.8      4.998      9.583
REMARK  15 active torsions:
REMARK  status: ('A' for Active; 'I' for Inactive)
REMARK    1  A    between atoms: C_2  and  C_3 
REMARK    2  A    between atoms: C_3  and  C_4 
REMARK    3  A    between atoms: C_4  and  C_5 
REMARK    4  A    between atoms: C_5  and  C_6 
REMARK    5  A    between atoms: C_6  and  C_7 
REMARK    6  A    between atoms: C_7  and  C_8 
REMARK    7  A    between atoms: C_8  and  C_9 
REMARK    8  A    between atoms: C_9  and  C_10 
REMARK    9  A    between atoms: C_10  and  C_11 
REMARK   10  A    between atoms: C_11  and  C_12 
REMARK   11  A    between atoms: C_12  and  C_13 
REMARK   12  A    between atoms: C_13  and  C_14 
REMARK   13  A    between atoms: C_14  and  C_15 
REMARK   14  A    between atoms: C_15  and  C_16 
REMARK   15  A    between atoms: C_16  and  O_17 
ROOT
HETATM    1  C   LIG     1      13.099  30.111  15.005  1.00  0.00     0.000 C 
ENDROOT
BRANCH   1   2
HETATM    2  C   LIG     1      14.301  29.993  14.049  1.00  0.00     0.000 C 
BRANCH   2   3
HETATM    3  C   LIG     1      15.588  30.607  14.624  1.00  0.00     0.000 C 
BRANCH   3   4
HETATM    4  C   LIG     1      16.009  31.904  13.907  1.00  0.00     0.000 C 
BRANCH   4   5
HETATM    5  C   LIG     1      16.654  32.978  14.803  1.00  0.00     0.000 C 
BRANCH   5   6
HETATM    6  C   LIG     1      18.112  33.284  14.419  1.00  0.00     0.000 C 
BRANCH   6   7
HETATM    7  C   LIG     1      18.237  34.045  13.086  1.00  0.00     0.000 C 
BRANCH   7   8
HETATM    8  C   LIG     1      18.984  33.294  11.968  1.00  0.00    -0.000 C 
BRANCH   8   9
HETATM    9  C   LIG     1      20.225  34.044  11.466  1.00  0.00    -0.005 C 
HETATM   10  C   LIG     1      21.170  34.379  12.615  1.00  0.00     0.005 C 
ENDBRANCH   8   9
ENDBRANCH   7   8
ENDBRANCH   6   7
ENDBRANCH   5   6
ENDBRANCH   4   5
ENDBRANCH   3   4
ENDBRANCH   2   3
ENDBRANCH   1   2
BRANCH   1  11
HETATM   11  C   LIG     1      13.451  30.413  16.474  1.00  0.00     0.000 C 
BRANCH  11  12
HETATM   12  C   LIG     1      13.268  31.895  16.844  1.00  0.00     0.000 C 
BRANCH  12  13
HETATM   13  C   LIG     1      14.432  32.438  17.690  1.00  0.00     0.001 C 
BRANCH  13  14
HETATM   14  C   LIG     1      14.568  31.711  19.040  1.00  0.00     0.010 C 
BRANCH  14  15
HETATM   15  C   LIG     1      15.725  32.257  19.891  1.00  0.00     0.110 C 
BRANCH  15  16
HETATM   16  C   LIG     1      15.416  33.602  20.476  1.00  0.00     0.139 C 
HETATM   17  O   LIG     1      16.103  34.606  20.145  1.00  0.00    -0.650 OA
BRANCH  16  18
HETATM   18  O   LIG     1      14.354  33.754  21.361  1.00  0.00    -0.776 OA
HETATM   19  H   LIG     1      13.675  33.014  21.489  1.00  0.00     0.167 HD
ENDBRANCH  16  18
ENDBRANCH  15  16
ENDBRANCH  14  15
ENDBRANCH  13  14
ENDBRANCH  12  13
ENDBRANCH  11  12
ENDBRANCH   1  11
TORSDOF 15
ENDMDL
MODEL 19
REMARK VINA RESULT:      -5.8      4.357      9.249
REMARK  15 active torsions:
REMARK  status: ('A' for Active; 'I' for Inactive)
REMARK    1  A    between atoms: C_2  and  C_3 
REMARK    2  A    between atoms: C_3  and  C_4 
REMARK    3  A    between atoms: C_4  and  C_5 
REMARK    4  A    between atoms: C_5  and  C_6 
REMARK    5  A    between atoms: C_6  and  C_7 
REMARK    6  A    between atoms: C_7  and  C_8 
REMARK    7  A    between atoms: C_8  and  C_9 
REMARK    8  A    between atoms: C_9  and  C_10 
REMARK    9  A    between atoms: C_10  and  C_11 
REMARK   10  A    between atoms: C_11  and  C_12 
REMARK   11  A    between atoms: C_12  and  C_13 
REMARK   12  A    between atoms: C_13  and  C_14 
REMARK   13  A    between atoms: C_14  and  C_15 
REMARK   14  A    between atoms: C_15  and  C_16 
REMARK   15  A    between atoms: C_16  and  O_17 
ROOT
HETATM    1  C   LIG     1      15.265  32.802  17.909  1.00  0.00     0.000 C 
ENDROOT
BRANCH   1   2
HETATM    2  C   LIG     1      14.017  32.503  17.056  1.00  0.00     0.000 C 
BRANCH   2   3
HETATM    3  C   LIG     1      13.717  30.999  16.938  1.00  0.00     0.000 C 
BRANCH   3   4
HETATM    4  C   LIG     1      13.402  30.560  15.495  1.00  0.00     0.000 C 
BRANCH   4   5
HETATM    5  C   LIG     1      14.557  29.873  14.743  1.00  0.00     0.000 C 
BRANCH   5   6
HETATM    6  C   LIG     1      15.238  30.795  13.716  1.00  0.00     0.000 C 
BRANCH   6   7
HETATM    7  C   LIG     1      16.226  31.785  14.360  1.00  0.00     0.000 C 
BRANCH   7   8
HETATM    8  C   LIG     1      16.774  32.872  13.417  1.00  0.00    -0.000 C 
BRANCH   8   9
HETATM    9  C   LIG     1      17.916  33.688  14.039  1.00  0.00    -0.005 C 
HETATM   10  C   LIG     1      19.108  33.780  13.091  1.00  0.00     0.005 C 
ENDBRANCH   8   9
ENDBRANCH   7   8
ENDBRANCH   6   7
ENDBRANCH   5   6
ENDBRANCH   4   5
ENDBRANCH   3   4
ENDBRANCH   2   3
ENDBRANCH   1   2
BRANCH   1  11
HETATM   11  C   LIG     1      15.183  32.351  19.379  1.00  0.00     0.000 C 
BRANCH  11  12
HETATM   12  C   LIG     1      15.775  33.380  20.358  1.00  0.00     0.000 C 
BRANCH  12  13
HETATM   13  C   LIG     1      15.480  34.829  19.937  1.00  0.00     0.001 C 
BRANCH  13  14
HETATM   14  C   LIG     1      15.228  35.753  21.143  1.00  0.00     0.010 C 
BRANCH  14  15
HETATM   15  C   LIG     1      16.528  36.177  21.844  1.00  0.00     0.110 C 
BRANCH  15  16
HETATM   16  C   LIG     1      16.290  37.206  22.909  1.00  0.00     0.139 C 
HETATM   17  O   LIG     1      17.173  37.425  23.781  1.00  0.00    -0.650 OA
BRANCH  16  18
HETATM   18  O   LIG     1      15.109  37.941  22.922  1.00  0.00    -0.776 OA
HETATM   19  H   LIG     1      14.992  38.725  23.552  1.00  0.00     0.167 HD
ENDBRANCH  16  18
ENDBRANCH  15  16
ENDBRANCH  14  15
ENDBRANCH  13  14
ENDBRANCH  12  13
ENDBRANCH  11  12
ENDBRANCH   1  11
TORSDOF 15
ENDMDL
MODEL 20
REMARK VINA RESULT:      -5.6      4.862      8.272
REMARK  15 active torsions:
REMARK  status: ('A' for Active; 'I' for Inactive)
REMARK    1  A    between atoms: C_2  and  C_3 
REMARK    2  A    between atoms: C_3  and  C_4 
REMARK    3  A    between atoms: C_4  and  C_5 
REMARK    4  A    between atoms: C_5  and  C_6 
REMARK    5  A    between atoms: C_6  and  C_7 
REMARK    6  A    between atoms: C_7  and  C_8 
REMARK    7  A    between atoms: C_8  and  C_9 
REMARK    8  A    between atoms: C_9  and  C_10 
REMARK    9  A    between atoms: C_10  and  C_11 
REMARK   10  A    between atoms: C_11  and  C_12 
REMARK   11  A    between atoms: C_12  and  C_13 
REMARK   12  A    between atoms: C_13  and  C_14 
REMARK   13  A    between atoms: C_14  and  C_15 
REMARK   14  A    between atoms: C_15  and  C_16 
REMARK   15  A    between atoms: C_16  and  O_17 
ROOT
HETATM    1  C   LIG     1      15.395  30.562  14.633  1.00  0.00     0.000 C 
ENDROOT
BRANCH   1   2
HETATM    2  C   LIG     1      13.893  30.572  14.979  1.00  0.00     0.000 C 
BRANCH   2   3
HETATM    3  C   LIG     1      13.626  30.677  16.490  1.00  0.00     0.000 C 
BRANCH   3   4
HETATM    4  C   LIG     1      13.572  32.133  16.993  1.00  0.00     0.000 C 
BRANCH   4   5
HETATM    5  C   LIG     1      14.788  32.596  17.816  1.00  0.00     0.000 C 
BRANCH   5   6
HETATM    6  C   LIG     1      14.883  31.906  19.188  1.00  0.00     0.000 C 
BRANCH   6   7
HETATM    7  C   LIG     1      15.731  32.697  20.201  1.00  0.00     0.000 C 
BRANCH   7   8
HETATM    8  C   LIG     1      15.053  33.947  20.792  1.00  0.00    -0.000 C 
BRANCH   8   9
HETATM    9  C   LIG     1      15.929  35.204  20.706  1.00  0.00    -0.005 C 
HETATM   10  C   LIG     1      17.036  35.177  21.755  1.00  0.00     0.005 C 
ENDBRANCH   8   9
ENDBRANCH   7   8
ENDBRANCH   6   7
ENDBRANCH   5   6
ENDBRANCH   4   5
ENDBRANCH   3   4
ENDBRANCH   2   3
ENDBRANCH   1   2
BRANCH   1  11
HETATM   11  C   LIG     1      15.969  31.906  14.147  1.00  0.00     0.000 C 
BRANCH  11  12
HETATM   12  C   LIG     1      17.073  32.456  15.066  1.00  0.00     0.000 C 
BRANCH  12  13
HETATM   13  C   LIG     1      17.581  33.834  14.615  1.00  0.00     0.001 C 
BRANCH  13  14
HETATM   14  C   LIG     1      17.896  33.882  13.109  1.00  0.00     0.010 C 
BRANCH  14  15
HETATM   15  C   LIG     1      19.403  33.985  12.823  1.00  0.00     0.110 C 
BRANCH  15  16
HETATM   16  C   LIG     1      19.829  33.098  11.692  1.00  0.00     0.139 C 
HETATM   17  O   LIG     1      19.068  32.177  11.292  1.00  0.00    -0.650 OA
BRANCH  16  18
HETATM   18  O   LIG     1      21.052  33.306  11.061  1.00  0.00    -0.776 OA
HETATM   19  H   LIG     1      21.111  33.854  10.211  1.00  0.00     0.167 HD
ENDBRANCH  16  18
ENDBRANCH  15  16
ENDBRANCH  14  15
ENDBRANCH  13  14
ENDBRANCH  12  13
ENDBRANCH  11  12
ENDBRANCH   1  11
TORSDOF 15
ENDMDL
