MODEL 1
REMARK VINA RESULT:      -7.3      0.000      0.000
REMARK  17 active torsions:
REMARK  status: ('A' for Active; 'I' for Inactive)
REMARK    1  A    between atoms: C_2  and  C_3 
REMARK    2  A    between atoms: C_3  and  C_4 
REMARK    3  A    between atoms: C_4  and  C_5 
REMARK    4  A    between atoms: C_5  and  C_6 
REMARK    5  A    between atoms: C_6  and  C_7 
REMARK    6  A    between atoms: C_7  and  C_8 
REMARK    7  A    between atoms: C_8  and  C_9 
REMARK    8  A    between atoms: C_9  and  C_10 
REMARK    9  A    between atoms: C_10  and  C_11 
REMARK   10  A    between atoms: C_11  and  C_12 
REMARK   11  A    between atoms: C_12  and  C_13 
REMARK   12  A    between atoms: C_13  and  C_14 
REMARK   13  A    between atoms: C_14  and  C_15 
REMARK   14  A    between atoms: C_15  and  C_16 
REMARK   15  A    between atoms: C_16  and  C_17 
REMARK   16  A    between atoms: C_17  and  C_18 
REMARK   17  A    between atoms: C_18  and  O_19 
ROOT
HETATM    1  C   LIG     1      19.724  37.192  19.496  1.00  0.00     0.000 C 
ENDROOT
BRANCH   1   2
HETATM    2  C   LIG     1      19.931  38.673  19.854  1.00  0.00     0.000 C 
BRANCH   2   3
HETATM    3  C   LIG     1      18.653  39.332  20.398  1.00  0.00     0.000 C 
BRANCH   3   4
HETATM    4  C   LIG     1      18.599  39.327  21.936  1.00  0.00     0.000 C 
BRANCH   4   5
HETATM    5  C   LIG     1      17.162  39.287  22.477  1.00  0.00     0.000 C 
BRANCH   5   6
HETATM    6  C   LIG     1      16.942  38.160  23.497  1.00  0.00     0.000 C 
BRANCH   6   7
HETATM    7  C   LIG     1      18.030  38.176  24.577  1.00  0.00     0.000 C 
BRANCH   7   8
HETATM    8  C   LIG     1      17.533  37.514  25.870  1.00  0.00     0.000 C 
BRANCH   8   9
HETATM    9  C   LIG     1      18.599  36.628  26.536  1.00  0.00    -0.000 C 
BRANCH   9  10
HETATM   10  C   LIG     1      18.335  35.115  26.371  1.00  0.00    -0.005 C 
HETATM   11  C   LIG     1      17.315  34.820  25.272  1.00  0.00     0.005 C 
ENDBRANCH   9  10
ENDBRANCH   8   9
ENDBRANCH   7   8
ENDBRANCH   6   7
ENDBRANCH   5   6
ENDBRANCH   4   5
ENDBRANCH   3   4
ENDBRANCH   2   3
ENDBRANCH   1   2
BRANCH   1  12
HETATM   12  C   LIG     1      18.241  36.782  19.476  1.00  0.00     0.000 C 
BRANCH  12  13
HETATM   13  C   LIG     1      17.833  35.874  20.656  1.00  0.00     0.000 C 
BRANCH  13  14
HETATM   14  C   LIG     1      16.315  35.892  20.903  1.00  0.00     0.000 C 
BRANCH  14  15
HETATM   15  C   LIG     1      15.825  34.677  21.712  1.00  0.00     0.001 C 
BRANCH  15  16
HETATM   16  C   LIG     1      14.887  33.726  20.948  1.00  0.00     0.010 C 
BRANCH  16  17
HETATM   17  C   LIG     1      15.632  32.837  19.940  1.00  0.00     0.110 C 
BRANCH  17  18
HETATM   18  C   LIG     1      14.836  31.603  19.630  1.00  0.00     0.139 C 
HETATM   19  O   LIG     1      14.135  31.555  18.585  1.00  0.00    -0.650 OA
BRANCH  18  20
HETATM   20  O   LIG     1      14.852  30.512  20.493  1.00  0.00    -0.776 OA
HETATM   21  H   LIG     1      14.211  29.738  20.373  1.00  0.00     0.167 HD
ENDBRANCH  18  20
ENDBRANCH  17  18
ENDBRANCH  16  17
ENDBRANCH  15  16
ENDBRANCH  14  15
ENDBRANCH  13  14
ENDBRANCH  12  13
ENDBRANCH   1  12
TORSDOF 17
ENDMDL
MODEL 2
REMARK VINA RESULT:      -7.1      1.057      4.476
REMARK  17 active torsions:
REMARK  status: ('A' for Active; 'I' for Inactive)
REMARK    1  A    between atoms: C_2  and  C_3 
REMARK    2  A    between atoms: C_3  and  C_4 
REMARK    3  A    between atoms: C_4  and  C_5 
REMARK    4  A    between atoms: C_5  and  C_6 
REMARK    5  A    between atoms: C_6  and  C_7 
REMARK    6  A    between atoms: C_7  and  C_8 
REMARK    7  A    between atoms: C_8  and  C_9 
REMARK    8  A    between atoms: C_9  and  C_10 
REMARK    9  A    between atoms: C_10  and  C_11 
REMARK   10  A    between atoms: C_11  and  C_12 
REMARK   11  A    between atoms: C_12  and  C_13 
REMARK   12  A    between atoms: C_13  and  C_14 
REMARK   13  A    between atoms: C_14  and  C_15 
REMARK   14  A    between atoms: C_15  and  C_16 
REMARK   15  A    between atoms: C_16  and  C_17 
REMARK   16  A    between atoms: C_17  and  C_18 
REMARK   17  A    between atoms: C_18  and  O_19 
ROOT
HETATM    1  C   LIG     1      17.075  34.809  25.381  1.00  0.00     0.000 C 
ENDROOT
BRANCH   1   2
HETATM    2  C   LIG     1      18.112  35.390  26.356  1.00  0.00     0.000 C 
BRANCH   2   3
HETATM    3  C   LIG     1      18.581  36.797  25.949  1.00  0.00     0.000 C 
BRANCH   3   4
HETATM    4  C   LIG     1      17.460  37.844  26.060  1.00  0.00     0.000 C 
BRANCH   4   5
HETATM    5  C   LIG     1      17.103  38.476  24.705  1.00  0.00     0.000 C 
BRANCH   5   6
HETATM    6  C   LIG     1      18.273  38.444  23.709  1.00  0.00     0.000 C 
BRANCH   6   7
HETATM    7  C   LIG     1      17.783  38.698  22.278  1.00  0.00     0.000 C 
BRANCH   7   8
HETATM    8  C   LIG     1      18.798  39.539  21.491  1.00  0.00     0.000 C 
BRANCH   8   9
HETATM    9  C   LIG     1      18.753  39.266  19.978  1.00  0.00    -0.000 C 
BRANCH   9  10
HETATM   10  C   LIG     1      19.787  38.219  19.509  1.00  0.00    -0.005 C 
HETATM   11  C   LIG     1      19.203  36.807  19.466  1.00  0.00     0.005 C 
ENDBRANCH   9  10
ENDBRANCH   8   9
ENDBRANCH   7   8
ENDBRANCH   6   7
ENDBRANCH   5   6
ENDBRANCH   4   5
ENDBRANCH   3   4
ENDBRANCH   2   3
ENDBRANCH   1   2
BRANCH   1  12
HETATM   12  C   LIG     1      17.560  34.812  23.920  1.00  0.00     0.000 C 
BRANCH  12  13
HETATM   13  C   LIG     1      16.506  35.330  22.918  1.00  0.00     0.000 C 
BRANCH  13  14
HETATM   14  C   LIG     1      16.864  34.974  21.465  1.00  0.00     0.000 C 
BRANCH  14  15
HETATM   15  C   LIG     1      15.624  34.752  20.580  1.00  0.00     0.001 C 
BRANCH  15  16
HETATM   16  C   LIG     1      14.978  33.361  20.707  1.00  0.00     0.010 C 
BRANCH  16  17
HETATM   17  C   LIG     1      15.617  32.320  19.776  1.00  0.00     0.110 C 
BRANCH  17  18
HETATM   18  C   LIG     1      15.032  32.410  18.398  1.00  0.00     0.139 C 
HETATM   19  O   LIG     1      15.720  32.882  17.454  1.00  0.00    -0.650 OA
BRANCH  18  20
HETATM   20  O   LIG     1      13.729  31.991  18.150  1.00  0.00    -0.776 OA
HETATM   21  H   LIG     1      13.004  32.650  17.894  1.00  0.00     0.167 HD
ENDBRANCH  18  20
ENDBRANCH  17  18
ENDBRANCH  16  17
ENDBRANCH  15  16
ENDBRANCH  14  15
ENDBRANCH  13  14
ENDBRANCH  12  13
ENDBRANCH   1  12
TORSDOF 17
ENDMDL
MODEL 3
REMARK VINA RESULT:      -6.9      3.454      5.668
REMARK  17 active torsions:
REMARK  status: ('A' for Active; 'I' for Inactive)
REMARK    1  A    between atoms: C_2  and  C_3 
REMARK    2  A    between atoms: C_3  and  C_4 
REMARK    3  A    between atoms: C_4  and  C_5 
REMARK    4  A    between atoms: C_5  and  C_6 
REMARK    5  A    between atoms: C_6  and  C_7 
REMARK    6  A    between atoms: C_7  and  C_8 
REMARK    7  A    between atoms: C_8  and  C_9 
REMARK    8  A    between atoms: C_9  and  C_10 
REMARK    9  A    between atoms: C_10  and  C_11 
REMARK   10  A    between atoms: C_11  and  C_12 
REMARK   11  A    between atoms: C_12  and  C_13 
REMARK   12  A    between atoms: C_13  and  C_14 
REMARK   13  A    between atoms: C_14  and  C_15 
REMARK   14  A    between atoms: C_15  and  C_16 
REMARK   15  A    between atoms: C_16  and  C_17 
REMARK   16  A    between atoms: C_17  and  C_18 
REMARK   17  A    between atoms: C_18  and  O_19 
ROOT
HETATM    1  C   LIG     1      15.126  32.838  18.568  1.00  0.00     0.000 C 
ENDROOT
BRANCH   1   2
HETATM    2  C   LIG     1      15.580  32.679  20.028  1.00  0.00     0.000 C 
BRANCH   2   3
HETATM    3  C   LIG     1      15.304  33.934  20.872  1.00  0.00     0.000 C 
BRANCH   3   4
HETATM    4  C   LIG     1      16.455  34.952  20.802  1.00  0.00     0.000 C 
BRANCH   4   5
HETATM    5  C   LIG     1      16.887  35.454  22.189  1.00  0.00     0.000 C 
BRANCH   5   6
HETATM    6  C   LIG     1      17.117  36.973  22.226  1.00  0.00     0.000 C 
BRANCH   6   7
HETATM    7  C   LIG     1      16.626  37.571  23.550  1.00  0.00     0.000 C 
BRANCH   7   8
HETATM    8  C   LIG     1      17.806  37.903  24.474  1.00  0.00     0.000 C 
BRANCH   8   9
HETATM    9  C   LIG     1      17.597  37.403  25.914  1.00  0.00    -0.000 C 
BRANCH   9  10
HETATM   10  C   LIG     1      18.408  36.133  26.250  1.00  0.00    -0.005 C 
HETATM   11  C   LIG     1      17.640  34.851  25.925  1.00  0.00     0.005 C 
ENDBRANCH   9  10
ENDBRANCH   8   9
ENDBRANCH   7   8
ENDBRANCH   6   7
ENDBRANCH   5   6
ENDBRANCH   4   5
ENDBRANCH   3   4
ENDBRANCH   2   3
ENDBRANCH   1   2
BRANCH   1  12
HETATM   12  C   LIG     1      14.282  31.651  18.071  1.00  0.00     0.000 C 
BRANCH  12  13
HETATM   13  C   LIG     1      13.543  31.929  16.744  1.00  0.00     0.000 C 
BRANCH  13  14
HETATM   14  C   LIG     1      12.901  30.657  16.161  1.00  0.00     0.000 C 
BRANCH  14  15
HETATM   15  C   LIG     1      13.685  30.085  14.967  1.00  0.00     0.001 C 
BRANCH  15  16
HETATM   16  C   LIG     1      15.134  30.588  14.841  1.00  0.00     0.010 C 
BRANCH  16  17
HETATM   17  C   LIG     1      15.451  31.151  13.447  1.00  0.00     0.110 C 
BRANCH  17  18
HETATM   18  C   LIG     1      16.380  32.324  13.546  1.00  0.00     0.139 C 
HETATM   19  O   LIG     1      16.183  33.210  14.419  1.00  0.00    -0.650 OA
BRANCH  18  20
HETATM   20  O   LIG     1      17.455  32.455  12.673  1.00  0.00    -0.776 OA
HETATM   21  H   LIG     1      17.391  33.031  11.842  1.00  0.00     0.167 HD
ENDBRANCH  18  20
ENDBRANCH  17  18
ENDBRANCH  16  17
ENDBRANCH  15  16
ENDBRANCH  14  15
ENDBRANCH  13  14
ENDBRANCH  12  13
ENDBRANCH   1  12
TORSDOF 17
ENDMDL
MODEL 4
REMARK VINA RESULT:      -6.7      2.733      4.418
REMARK  17 active torsions:
REMARK  status: ('A' for Active; 'I' for Inactive)
REMARK    1  A    between atoms: C_2  and  C_3 
REMARK    2  A    between atoms: C_3  and  C_4 
REMARK    3  A    between atoms: C_4  and  C_5 
REMARK    4  A    between atoms: C_5  and  C_6 
REMARK    5  A    between atoms: C_6  and  C_7 
REMARK    6  A    between atoms: C_7  and  C_8 
REMARK    7  A    between atoms: C_8  and  C_9 
REMARK    8  A    between atoms: C_9  and  C_10 
REMARK    9  A    between atoms: C_10  and  C_11 
REMARK   10  A    between atoms: C_11  and  C_12 
REMARK   11  A    between atoms: C_12  and  C_13 
REMARK   12  A    between atoms: C_13  and  C_14 
REMARK   13  A    between atoms: C_14  and  C_15 
REMARK   14  A    between atoms: C_15  and  C_16 
REMARK   15  A    between atoms: C_16  and  C_17 
REMARK   16  A    between atoms: C_17  and  C_18 
REMARK   17  A    between atoms: C_18  and  O_19 
ROOT
HETATM    1  C   LIG     1      14.916  34.211  21.336  1.00  0.00     0.000 C 
ENDROOT
BRANCH   1   2
HETATM    2  C   LIG     1      15.545  35.540  21.784  1.00  0.00     0.000 C 
BRANCH   2   3
HETATM    3  C   LIG     1      17.073  35.558  21.610  1.00  0.00     0.000 C 
BRANCH   3   4
HETATM    4  C   LIG     1      17.546  36.707  20.702  1.00  0.00     0.000 C 
BRANCH   4   5
HETATM    5  C   LIG     1      18.311  37.794  21.473  1.00  0.00     0.000 C 
BRANCH   5   6
HETATM    6  C   LIG     1      17.425  38.990  21.849  1.00  0.00     0.000 C 
BRANCH   6   7
HETATM    7  C   LIG     1      16.916  38.865  23.290  1.00  0.00     0.000 C 
BRANCH   7   8
HETATM    8  C   LIG     1      17.929  38.118  24.169  1.00  0.00     0.000 C 
BRANCH   8   9
HETATM    9  C   LIG     1      17.272  37.060  25.071  1.00  0.00    -0.000 C 
BRANCH   9  10
HETATM   10  C   LIG     1      18.194  36.556  26.203  1.00  0.00    -0.005 C 
HETATM   11  C   LIG     1      18.295  35.031  26.233  1.00  0.00     0.005 C 
ENDBRANCH   9  10
ENDBRANCH   8   9
ENDBRANCH   7   8
ENDBRANCH   6   7
ENDBRANCH   5   6
ENDBRANCH   4   5
ENDBRANCH   3   4
ENDBRANCH   2   3
ENDBRANCH   1   2
BRANCH   1  12
HETATM   12  C   LIG     1      15.776  33.460  20.304  1.00  0.00     0.000 C 
BRANCH  12  13
HETATM   13  C   LIG     1      15.049  32.270  19.641  1.00  0.00     0.000 C 
BRANCH  13  14
HETATM   14  C   LIG     1      15.125  32.328  18.105  1.00  0.00     0.000 C 
BRANCH  14  15
HETATM   15  C   LIG     1      13.942  31.620  17.420  1.00  0.00     0.001 C 
BRANCH  15  16
HETATM   16  C   LIG     1      14.213  31.154  15.979  1.00  0.00     0.010 C 
BRANCH  16  17
HETATM   17  C   LIG     1      13.025  30.399  15.363  1.00  0.00     0.110 C 
BRANCH  17  18
HETATM   18  C   LIG     1      13.501  29.360  14.391  1.00  0.00     0.139 C 
HETATM   19  O   LIG     1      14.689  29.389  13.973  1.00  0.00    -0.650 OA
BRANCH  18  20
HETATM   20  O   LIG     1      12.639  28.369  13.932  1.00  0.00    -0.776 OA
HETATM   21  H   LIG     1      11.635  28.495  13.954  1.00  0.00     0.167 HD
ENDBRANCH  18  20
ENDBRANCH  17  18
ENDBRANCH  16  17
ENDBRANCH  15  16
ENDBRANCH  14  15
ENDBRANCH  13  14
ENDBRANCH  12  13
ENDBRANCH   1  12
TORSDOF 17
ENDMDL
MODEL 5
REMARK VINA RESULT:      -6.7      2.139      4.535
REMARK  17 active torsions:
REMARK  status: ('A' for Active; 'I' for Inactive)
REMARK    1  A    between atoms: C_2  and  C_3 
REMARK    2  A    between atoms: C_3  and  C_4 
REMARK    3  A    between atoms: C_4  and  C_5 
REMARK    4  A    between atoms: C_5  and  C_6 
REMARK    5  A    between atoms: C_6  and  C_7 
REMARK    6  A    between atoms: C_7  and  C_8 
REMARK    7  A    between atoms: C_8  and  C_9 
REMARK    8  A    between atoms: C_9  and  C_10 
REMARK    9  A    between atoms: C_10  and  C_11 
REMARK   10  A    between atoms: C_11  and  C_12 
REMARK   11  A    between atoms: C_12  and  C_13 
REMARK   12  A    between atoms: C_13  and  C_14 
REMARK   13  A    between atoms: C_14  and  C_15 
REMARK   14  A    between atoms: C_15  and  C_16 
REMARK   15  A    between atoms: C_16  and  C_17 
REMARK   16  A    between atoms: C_17  and  C_18 
REMARK   17  A    between atoms: C_18  and  O_19 
ROOT
HETATM    1  C   LIG     1      16.194  35.188  22.329  1.00  0.00     0.000 C 
ENDROOT
BRANCH   1   2
HETATM    2  C   LIG     1      17.336  34.933  23.327  1.00  0.00     0.000 C 
BRANCH   2   3
HETATM    3  C   LIG     1      16.856  34.946  24.788  1.00  0.00     0.000 C 
BRANCH   3   4
HETATM    4  C   LIG     1      18.024  34.998  25.788  1.00  0.00     0.000 C 
BRANCH   4   5
HETATM    5  C   LIG     1      18.542  36.425  26.021  1.00  0.00     0.000 C 
BRANCH   5   6
HETATM    6  C   LIG     1      17.484  37.497  25.721  1.00  0.00     0.000 C 
BRANCH   6   7
HETATM    7  C   LIG     1      17.888  38.344  24.508  1.00  0.00     0.000 C 
BRANCH   7   8
HETATM    8  C   LIG     1      16.713  38.505  23.533  1.00  0.00     0.000 C 
BRANCH   8   9
HETATM    9  C   LIG     1      17.156  38.965  22.134  1.00  0.00    -0.000 C 
BRANCH   9  10
HETATM   10  C   LIG     1      18.688  39.079  21.977  1.00  0.00    -0.005 C 
HETATM   11  C   LIG     1      19.150  38.775  20.552  1.00  0.00     0.005 C 
ENDBRANCH   9  10
ENDBRANCH   8   9
ENDBRANCH   7   8
ENDBRANCH   6   7
ENDBRANCH   5   6
ENDBRANCH   4   5
ENDBRANCH   3   4
ENDBRANCH   2   3
ENDBRANCH   1   2
BRANCH   1  12
HETATM   12  C   LIG     1      16.698  35.444  20.897  1.00  0.00     0.000 C 
BRANCH  12  13
HETATM   13  C   LIG     1      15.860  34.737  19.810  1.00  0.00     0.000 C 
BRANCH  13  14
HETATM   14  C   LIG     1      15.535  33.281  20.185  1.00  0.00     0.000 C 
BRANCH  14  15
HETATM   15  C   LIG     1      15.220  32.403  18.961  1.00  0.00     0.001 C 
BRANCH  15  16
HETATM   16  C   LIG     1      14.986  33.178  17.651  1.00  0.00     0.010 C 
BRANCH  16  17
HETATM   17  C   LIG     1      15.137  32.297  16.402  1.00  0.00     0.110 C 
BRANCH  17  18
HETATM   18  C   LIG     1      16.311  32.740  15.579  1.00  0.00     0.139 C 
HETATM   19  O   LIG     1      16.973  31.894  14.923  1.00  0.00    -0.650 OA
BRANCH  18  20
HETATM   20  O   LIG     1      16.687  34.079  15.542  1.00  0.00    -0.776 OA
HETATM   21  H   LIG     1      16.762  34.580  14.665  1.00  0.00     0.167 HD
ENDBRANCH  18  20
ENDBRANCH  17  18
ENDBRANCH  16  17
ENDBRANCH  15  16
ENDBRANCH  14  15
ENDBRANCH  13  14
ENDBRANCH  12  13
ENDBRANCH   1  12
TORSDOF 17
ENDMDL
MODEL 6
REMARK VINA RESULT:      -6.6      3.060      4.951
REMARK  17 active torsions:
REMARK  status: ('A' for Active; 'I' for Inactive)
REMARK    1  A    between atoms: C_2  and  C_3 
REMARK    2  A    between atoms: C_3  and  C_4 
REMARK    3  A    between atoms: C_4  and  C_5 
REMARK    4  A    between atoms: C_5  and  C_6 
REMARK    5  A    between atoms: C_6  and  C_7 
REMARK    6  A    between atoms: C_7  and  C_8 
REMARK    7  A    between atoms: C_8  and  C_9 
REMARK    8  A    between atoms: C_9  and  C_10 
REMARK    9  A    between atoms: C_10  and  C_11 
REMARK   10  A    between atoms: C_11  and  C_12 
REMARK   11  A    between atoms: C_12  and  C_13 
REMARK   12  A    between atoms: C_13  and  C_14 
REMARK   13  A    between atoms: C_14  and  C_15 
REMARK   14  A    between atoms: C_15  and  C_16 
REMARK   15  A    between atoms: C_16  and  C_17 
REMARK   16  A    between atoms: C_17  and  C_18 
REMARK   17  A    between atoms: C_18  and  O_19 
ROOT
HETATM    1  C   LIG     1      15.699  33.341  20.049  1.00  0.00     0.000 C 
ENDROOT
BRANCH   1   2
HETATM    2  C   LIG     1      14.877  34.004  21.167  1.00  0.00     0.000 C 
BRANCH   2   3
HETATM    3  C   LIG     1      15.239  35.485  21.367  1.00  0.00     0.000 C 
BRANCH   3   4
HETATM    4  C   LIG     1      16.705  35.678  21.792  1.00  0.00     0.000 C 
BRANCH   4   5
HETATM    5  C   LIG     1      17.446  36.701  20.917  1.00  0.00     0.000 C 
BRANCH   5   6
HETATM    6  C   LIG     1      17.992  37.888  21.725  1.00  0.00     0.000 C 
BRANCH   6   7
HETATM    7  C   LIG     1      17.140  38.141  22.974  1.00  0.00     0.000 C 
BRANCH   7   8
HETATM    8  C   LIG     1      18.011  38.167  24.238  1.00  0.00     0.000 C 
BRANCH   8   9
HETATM    9  C   LIG     1      17.347  37.466  25.436  1.00  0.00    -0.000 C 
BRANCH   9  10
HETATM   10  C   LIG     1      18.344  36.708  26.338  1.00  0.00    -0.005 C 
HETATM   11  C   LIG     1      18.176  35.192  26.243  1.00  0.00     0.005 C 
ENDBRANCH   9  10
ENDBRANCH   8   9
ENDBRANCH   7   8
ENDBRANCH   6   7
ENDBRANCH   5   6
ENDBRANCH   4   5
ENDBRANCH   3   4
ENDBRANCH   2   3
ENDBRANCH   1   2
BRANCH   1  12
HETATM   12  C   LIG     1      15.209  31.923  19.708  1.00  0.00     0.000 C 
BRANCH  12  13
HETATM   13  C   LIG     1      14.425  31.840  18.380  1.00  0.00     0.000 C 
BRANCH  13  14
HETATM   14  C   LIG     1      15.211  32.450  17.206  1.00  0.00     0.000 C 
BRANCH  14  15
HETATM   15  C   LIG     1      14.958  31.721  15.874  1.00  0.00     0.001 C 
BRANCH  15  16
HETATM   16  C   LIG     1      15.894  32.130  14.723  1.00  0.00     0.010 C 
BRANCH  16  17
HETATM   17  C   LIG     1      17.251  32.653  15.217  1.00  0.00     0.110 C 
BRANCH  17  18
HETATM   18  C   LIG     1      17.466  34.072  14.778  1.00  0.00     0.139 C 
HETATM   19  O   LIG     1      18.078  34.311  13.704  1.00  0.00    -0.650 OA
BRANCH  18  20
HETATM   20  O   LIG     1      17.008  35.132  15.553  1.00  0.00    -0.776 OA
HETATM   21  H   LIG     1      16.076  35.129  15.949  1.00  0.00     0.167 HD
ENDBRANCH  18  20
ENDBRANCH  17  18
ENDBRANCH  16  17
ENDBRANCH  15  16
ENDBRANCH  14  15
ENDBRANCH  13  14
ENDBRANCH  12  13
ENDBRANCH   1  12
TORSDOF 17
ENDMDL
MODEL 7
REMARK VINA RESULT:      -6.5      2.163      5.899
REMARK  17 active torsions:
REMARK  status: ('A' for Active; 'I' for Inactive)
REMARK    1  A    between atoms: C_2  and  C_3 
REMARK    2  A    between atoms: C_3  and  C_4 
REMARK    3  A    between atoms: C_4  and  C_5 
REMARK    4  A    between atoms: C_5  and  C_6 
REMARK    5  A    between atoms: C_6  and  C_7 
REMARK    6  A    between atoms: C_7  and  C_8 
REMARK    7  A    between atoms: C_8  and  C_9 
REMARK    8  A    between atoms: C_9  and  C_10 
REMARK    9  A    between atoms: C_10  and  C_11 
REMARK   10  A    between atoms: C_11  and  C_12 
REMARK   11  A    between atoms: C_12  and  C_13 
REMARK   12  A    between atoms: C_13  and  C_14 
REMARK   13  A    between atoms: C_14  and  C_15 
REMARK   14  A    between atoms: C_15  and  C_16 
REMARK   15  A    between atoms: C_16  and  C_17 
REMARK   16  A    between atoms: C_17  and  C_18 
REMARK   17  A    between atoms: C_18  and  O_19 
ROOT
HETATM    1  C   LIG     1      17.289  37.814  25.803  1.00  0.00     0.000 C 
ENDROOT
BRANCH   1   2
HETATM    2  C   LIG     1      17.316  38.575  24.467  1.00  0.00     0.000 C 
BRANCH   2   3
HETATM    3  C   LIG     1      18.676  38.475  23.759  1.00  0.00     0.000 C 
BRANCH   3   4
HETATM    4  C   LIG     1      18.648  39.083  22.345  1.00  0.00     0.000 C 
BRANCH   4   5
HETATM    5  C   LIG     1      17.923  38.187  21.329  1.00  0.00     0.000 C 
BRANCH   5   6
HETATM    6  C   LIG     1      18.788  37.858  20.103  1.00  0.00     0.000 C 
BRANCH   6   7
HETATM    7  C   LIG     1      19.908  38.891  19.928  1.00  0.00     0.000 C 
BRANCH   7   8
HETATM    8  C   LIG     1      19.982  39.382  18.475  1.00  0.00     0.000 C 
BRANCH   8   9
HETATM    9  C   LIG     1      18.744  38.994  17.650  1.00  0.00    -0.000 C 
BRANCH   9  10
HETATM   10  C   LIG     1      17.993  40.206  17.057  1.00  0.00    -0.005 C 
HETATM   11  C   LIG     1      18.909  41.112  16.236  1.00  0.00     0.005 C 
ENDBRANCH   9  10
ENDBRANCH   8   9
ENDBRANCH   7   8
ENDBRANCH   6   7
ENDBRANCH   5   6
ENDBRANCH   4   5
ENDBRANCH   3   4
ENDBRANCH   2   3
ENDBRANCH   1   2
BRANCH   1  12
HETATM   12  C   LIG     1      18.538  36.942  26.021  1.00  0.00     0.000 C 
BRANCH  12  13
HETATM   13  C   LIG     1      18.216  35.471  26.357  1.00  0.00     0.000 C 
BRANCH  13  14
HETATM   14  C   LIG     1      17.113  34.897  25.450  1.00  0.00     0.000 C 
BRANCH  14  15
HETATM   15  C   LIG     1      17.537  34.812  23.973  1.00  0.00     0.001 C 
BRANCH  15  16
HETATM   16  C   LIG     1      16.481  35.304  22.967  1.00  0.00     0.010 C 
BRANCH  16  17
HETATM   17  C   LIG     1      16.676  34.712  21.562  1.00  0.00     0.110 C 
BRANCH  17  18
HETATM   18  C   LIG     1      15.594  35.181  20.634  1.00  0.00     0.139 C 
HETATM   19  O   LIG     1      15.784  35.164  19.389  1.00  0.00    -0.650 OA
BRANCH  18  20
HETATM   20  O   LIG     1      14.384  35.649  21.133  1.00  0.00    -0.776 OA
HETATM   21  H   LIG     1      13.706  35.020  21.546  1.00  0.00     0.167 HD
ENDBRANCH  18  20
ENDBRANCH  17  18
ENDBRANCH  16  17
ENDBRANCH  15  16
ENDBRANCH  14  15
ENDBRANCH  13  14
ENDBRANCH  12  13
ENDBRANCH   1  12
TORSDOF 17
ENDMDL
MODEL 8
REMARK VINA RESULT:      -6.1      2.475      4.438
REMARK  17 active torsions:
REMARK  status: ('A' for Active; 'I' for Inactive)
REMARK    1  A    between atoms: C_2  and  C_3 
REMARK    2  A    between atoms: C_3  and  C_4 
REMARK    3  A    between atoms: C_4  and  C_5 
REMARK    4  A    between atoms: C_5  and  C_6 
REMARK    5  A    between atoms: C_6  and  C_7 
REMARK    6  A    between atoms: C_7  and  C_8 
REMARK    7  A    between atoms: C_8  and  C_9 
REMARK    8  A    between atoms: C_9  and  C_10 
REMARK    9  A    between atoms: C_10  and  C_11 
REMARK   10  A    between atoms: C_11  and  C_12 
REMARK   11  A    between atoms: C_12  and  C_13 
REMARK   12  A    between atoms: C_13  and  C_14 
REMARK   13  A    between atoms: C_14  and  C_15 
REMARK   14  A    between atoms: C_15  and  C_16 
REMARK   15  A    between atoms: C_16  and  C_17 
REMARK   16  A    between atoms: C_17  and  C_18 
REMARK   17  A    between atoms: C_18  and  O_19 
ROOT
HETATM    1  C   LIG     1      14.941  34.357  21.271  1.00  0.00     0.000 C 
ENDROOT
BRANCH   1   2
HETATM    2  C   LIG     1      15.665  35.705  21.421  1.00  0.00     0.000 C 
BRANCH   2   3
HETATM    3  C   LIG     1      17.177  35.595  21.168  1.00  0.00     0.000 C 
BRANCH   3   4
HETATM    4  C   LIG     1      17.620  36.365  19.912  1.00  0.00     0.000 C 
BRANCH   4   5
HETATM    5  C   LIG     1      18.720  37.397  20.207  1.00  0.00     0.000 C 
BRANCH   5   6
HETATM    6  C   LIG     1      18.162  38.720  20.753  1.00  0.00     0.000 C 
BRANCH   6   7
HETATM    7  C   LIG     1      19.088  39.305  21.826  1.00  0.00     0.000 C 
BRANCH   7   8
HETATM    8  C   LIG     1      18.650  38.864  23.230  1.00  0.00     0.000 C 
BRANCH   8   9
HETATM    9  C   LIG     1      17.146  38.553  23.317  1.00  0.00    -0.000 C 
BRANCH   9  10
HETATM   10  C   LIG     1      16.782  37.580  24.459  1.00  0.00    -0.005 C 
HETATM   11  C   LIG     1      17.976  37.271  25.362  1.00  0.00     0.005 C 
ENDBRANCH   9  10
ENDBRANCH   8   9
ENDBRANCH   7   8
ENDBRANCH   6   7
ENDBRANCH   5   6
ENDBRANCH   4   5
ENDBRANCH   3   4
ENDBRANCH   2   3
ENDBRANCH   1   2
BRANCH   1  12
HETATM   12  C   LIG     1      15.558  33.466  20.178  1.00  0.00     0.000 C 
BRANCH  12  13
HETATM   13  C   LIG     1      14.961  32.043  20.130  1.00  0.00     0.000 C 
BRANCH  13  14
HETATM   14  C   LIG     1      14.617  31.608  18.695  1.00  0.00     0.000 C 
BRANCH  14  15
HETATM   15  C   LIG     1      14.998  32.663  17.641  1.00  0.00     0.001 C 
BRANCH  15  16
HETATM   16  C   LIG     1      14.413  32.420  16.239  1.00  0.00     0.010 C 
BRANCH  16  17
HETATM   17  C   LIG     1      15.405  31.728  15.291  1.00  0.00     0.110 C 
BRANCH  17  18
HETATM   18  C   LIG     1      16.626  32.576  15.089  1.00  0.00     0.139 C 
HETATM   19  O   LIG     1      16.521  33.713  14.559  1.00  0.00    -0.650 OA
BRANCH  18  20
HETATM   20  O   LIG     1      17.882  32.114  15.470  1.00  0.00    -0.776 OA
HETATM   21  H   LIG     1      18.060  31.792  16.413  1.00  0.00     0.167 HD
ENDBRANCH  18  20
ENDBRANCH  17  18
ENDBRANCH  16  17
ENDBRANCH  15  16
ENDBRANCH  14  15
ENDBRANCH  13  14
ENDBRANCH  12  13
ENDBRANCH   1  12
TORSDOF 17
ENDMDL
MODEL 9
REMARK VINA RESULT:      -6.0      2.703      5.328
REMARK  17 active torsions:
REMARK  status: ('A' for Active; 'I' for Inactive)
REMARK    1  A    between atoms: C_2  and  C_3 
REMARK    2  A    between atoms: C_3  and  C_4 
REMARK    3  A    between atoms: C_4  and  C_5 
REMARK    4  A    between atoms: C_5  and  C_6 
REMARK    5  A    between atoms: C_6  and  C_7 
REMARK    6  A    between atoms: C_7  and  C_8 
REMARK    7  A    between atoms: C_8  and  C_9 
REMARK    8  A    between atoms: C_9  and  C_10 
REMARK    9  A    between atoms: C_10  and  C_11 
REMARK   10  A    between atoms: C_11  and  C_12 
REMARK   11  A    between atoms: C_12  and  C_13 
REMARK   12  A    between atoms: C_13  and  C_14 
REMARK   13  A    between atoms: C_14  and  C_15 
REMARK   14  A    between atoms: C_15  and  C_16 
REMARK   15  A    between atoms: C_16  and  C_17 
REMARK   16  A    between atoms: C_17  and  C_18 
REMARK   17  A    between atoms: C_18  and  O_19 
ROOT
HETATM    1  C   LIG     1      15.015  33.922  21.172  1.00  0.00     0.000 C 
ENDROOT
BRANCH   1   2
HETATM    2  C   LIG     1      15.984  34.807  21.973  1.00  0.00     0.000 C 
BRANCH   2   3
HETATM    3  C   LIG     1      16.048  36.246  21.437  1.00  0.00     0.000 C 
BRANCH   3   4
HETATM    4  C   LIG     1      15.355  37.252  22.373  1.00  0.00     0.000 C 
BRANCH   4   5
HETATM    5  C   LIG     1      16.353  38.135  23.138  1.00  0.00     0.000 C 
BRANCH   5   6
HETATM    6  C   LIG     1      17.779  38.043  22.575  1.00  0.00     0.000 C 
BRANCH   6   7
HETATM    7  C   LIG     1      18.206  39.373  21.940  1.00  0.00     0.000 C 
BRANCH   7   8
HETATM    8  C   LIG     1      19.332  39.159  20.919  1.00  0.00     0.000 C 
BRANCH   8   9
HETATM    9  C   LIG     1      18.847  39.268  19.463  1.00  0.00    -0.000 C 
BRANCH   9  10
HETATM   10  C   LIG     1      18.784  37.911  18.730  1.00  0.00    -0.005 C 
HETATM   11  C   LIG     1      19.268  36.755  19.606  1.00  0.00     0.005 C 
ENDBRANCH   9  10
ENDBRANCH   8   9
ENDBRANCH   7   8
ENDBRANCH   6   7
ENDBRANCH   5   6
ENDBRANCH   4   5
ENDBRANCH   3   4
ENDBRANCH   2   3
ENDBRANCH   1   2
BRANCH   1  12
HETATM   12  C   LIG     1      15.618  33.421  19.847  1.00  0.00     0.000 C 
BRANCH  12  13
HETATM   13  C   LIG     1      15.222  31.970  19.496  1.00  0.00     0.000 C 
BRANCH  13  14
HETATM   14  C   LIG     1      14.345  31.899  18.234  1.00  0.00     0.000 C 
BRANCH  14  15
HETATM   15  C   LIG     1      15.004  32.556  17.008  1.00  0.00     0.001 C 
BRANCH  15  16
HETATM   16  C   LIG     1      15.093  31.658  15.761  1.00  0.00     0.010 C 
BRANCH  16  17
HETATM   17  C   LIG     1      15.820  32.336  14.590  1.00  0.00     0.110 C 
BRANCH  17  18
HETATM   18  C   LIG     1      17.043  33.061  15.071  1.00  0.00     0.139 C 
HETATM   19  O   LIG     1      18.085  32.415  15.356  1.00  0.00    -0.650 OA
BRANCH  18  20
HETATM   20  O   LIG     1      17.034  34.444  15.220  1.00  0.00    -0.776 OA
HETATM   21  H   LIG     1      16.168  34.954  15.343  1.00  0.00     0.167 HD
ENDBRANCH  18  20
ENDBRANCH  17  18
ENDBRANCH  16  17
ENDBRANCH  15  16
ENDBRANCH  14  15
ENDBRANCH  13  14
ENDBRANCH  12  13
ENDBRANCH   1  12
TORSDOF 17
ENDMDL
MODEL 10
REMARK VINA RESULT:      -5.8      2.536      5.535
REMARK  17 active torsions:
REMARK  status: ('A' for Active; 'I' for Inactive)
REMARK    1  A    between atoms: C_2  and  C_3 
REMARK    2  A    between atoms: C_3  and  C_4 
REMARK    3  A    between atoms: C_4  and  C_5 
REMARK    4  A    between atoms: C_5  and  C_6 
REMARK    5  A    between atoms: C_6  and  C_7 
REMARK    6  A    between atoms: C_7  and  C_8 
REMARK    7  A    between atoms: C_8  and  C_9 
REMARK    8  A    between atoms: C_9  and  C_10 
REMARK    9  A    between atoms: C_10  and  C_11 
REMARK   10  A    between atoms: C_11  and  C_12 
REMARK   11  A    between atoms: C_12  and  C_13 
REMARK   12  A    between atoms: C_13  and  C_14 
REMARK   13  A    between atoms: C_14  and  C_15 
REMARK   14  A    between atoms: C_15  and  C_16 
REMARK   15  A    between atoms: C_16  and  C_17 
REMARK   16  A    between atoms: C_17  and  C_18 
REMARK   17  A    between atoms: C_18  and  O_19 
ROOT
HETATM    1  C   LIG     1      16.446  34.946  22.226  1.00  0.00     0.000 C 
ENDROOT
BRANCH   1   2
HETATM    2  C   LIG     1      17.018  36.088  23.081  1.00  0.00     0.000 C 
BRANCH   2   3
HETATM    3  C   LIG     1      16.769  37.472  22.460  1.00  0.00     0.000 C 
BRANCH   3   4
HETATM    4  C   LIG     1      17.629  38.571  23.110  1.00  0.00     0.000 C 
BRANCH   4   5
HETATM    5  C   LIG     1      18.368  39.434  22.076  1.00  0.00     0.000 C 
BRANCH   5   6
HETATM    6  C   LIG     1      18.517  38.735  20.716  1.00  0.00     0.000 C 
BRANCH   6   7
HETATM    7  C   LIG     1      19.949  38.866  20.185  1.00  0.00     0.000 C 
BRANCH   7   8
HETATM    8  C   LIG     1      19.953  39.325  18.720  1.00  0.00     0.000 C 
BRANCH   8   9
HETATM    9  C   LIG     1      18.763  38.772  17.917  1.00  0.00    -0.000 C 
BRANCH   9  10
HETATM   10  C   LIG     1      18.588  39.438  16.535  1.00  0.00    -0.005 C 
HETATM   11  C   LIG     1      18.649  40.963  16.614  1.00  0.00     0.005 C 
ENDBRANCH   9  10
ENDBRANCH   8   9
ENDBRANCH   7   8
ENDBRANCH   6   7
ENDBRANCH   5   6
ENDBRANCH   4   5
ENDBRANCH   3   4
ENDBRANCH   2   3
ENDBRANCH   1   2
BRANCH   1  12
HETATM   12  C   LIG     1      16.593  35.199  20.715  1.00  0.00     0.000 C 
BRANCH  12  13
HETATM   13  C   LIG     1      15.510  34.504  19.862  1.00  0.00     0.000 C 
BRANCH  13  14
HETATM   14  C   LIG     1      15.440  32.991  20.135  1.00  0.00     0.000 C 
BRANCH  14  15
HETATM   15  C   LIG     1      14.987  32.181  18.907  1.00  0.00     0.001 C 
BRANCH  15  16
HETATM   16  C   LIG     1      15.211  32.878  17.553  1.00  0.00     0.010 C 
BRANCH  16  17
HETATM   17  C   LIG     1      14.819  31.997  16.357  1.00  0.00     0.110 C 
BRANCH  17  18
HETATM   18  C   LIG     1      15.801  32.156  15.235  1.00  0.00     0.139 C 
HETATM   19  O   LIG     1      16.221  33.302  14.926  1.00  0.00    -0.650 OA
BRANCH  18  20
HETATM   20  O   LIG     1      16.246  31.050  14.518  1.00  0.00    -0.776 OA
HETATM   21  H   LIG     1      16.647  30.247  14.986  1.00  0.00     0.167 HD
ENDBRANCH  18  20
ENDBRANCH  17  18
ENDBRANCH  16  17
ENDBRANCH  15  16
ENDBRANCH  14  15
ENDBRANCH  13  14
ENDBRANCH  12  13
ENDBRANCH   1  12
TORSDOF 17
ENDMDL
MODEL 11
REMARK VINA RESULT:      -5.3      3.328      5.904
REMARK  17 active torsions:
REMARK  status: ('A' for Active; 'I' for Inactive)
REMARK    1  A    between atoms: C_2  and  C_3 
REMARK    2  A    between atoms: C_3  and  C_4 
REMARK    3  A    between atoms: C_4  and  C_5 
REMARK    4  A    between atoms: C_5  and  C_6 
REMARK    5  A    between atoms: C_6  and  C_7 
REMARK    6  A    between atoms: C_7  and  C_8 
REMARK    7  A    between atoms: C_8  and  C_9 
REMARK    8  A    between atoms: C_9  and  C_10 
REMARK    9  A    between atoms: C_10  and  C_11 
REMARK   10  A    between atoms: C_11  and  C_12 
REMARK   11  A    between atoms: C_12  and  C_13 
REMARK   12  A    between atoms: C_13  and  C_14 
REMARK   13  A    between atoms: C_14  and  C_15 
REMARK   14  A    between atoms: C_15  and  C_16 
REMARK   15  A    between atoms: C_16  and  C_17 
REMARK   16  A    between atoms: C_17  and  C_18 
REMARK   17  A    between atoms: C_18  and  O_19 
ROOT
HETATM    1  C   LIG     1      14.202  32.250  20.634  1.00  0.00     0.000 C 
ENDROOT
BRANCH   1   2
HETATM    2  C   LIG     1      14.788  33.511  21.289  1.00  0.00     0.000 C 
BRANCH   2   3
HETATM    3  C   LIG     1      16.149  33.908  20.693  1.00  0.00     0.000 C 
BRANCH   3   4
HETATM    4  C   LIG     1      16.117  35.296  20.031  1.00  0.00     0.000 C 
BRANCH   4   5
HETATM    5  C   LIG     1      16.931  36.342  20.809  1.00  0.00     0.000 C 
BRANCH   5   6
HETATM    6  C   LIG     1      16.129  36.992  21.947  1.00  0.00     0.000 C 
BRANCH   6   7
HETATM    7  C   LIG     1      17.039  37.341  23.131  1.00  0.00     0.000 C 
BRANCH   7   8
HETATM    8  C   LIG     1      17.434  38.824  23.103  1.00  0.00     0.000 C 
BRANCH   8   9
HETATM    9  C   LIG     1      18.787  39.070  22.415  1.00  0.00    -0.000 C 
BRANCH   9  10
HETATM   10  C   LIG     1      18.660  39.458  20.926  1.00  0.00    -0.005 C 
HETATM   11  C   LIG     1      19.850  38.973  20.097  1.00  0.00     0.005 C 
ENDBRANCH   9  10
ENDBRANCH   8   9
ENDBRANCH   7   8
ENDBRANCH   6   7
ENDBRANCH   5   6
ENDBRANCH   4   5
ENDBRANCH   3   4
ENDBRANCH   2   3
ENDBRANCH   1   2
BRANCH   1  12
HETATM   12  C   LIG     1      15.009  31.781  19.410  1.00  0.00     0.000 C 
BRANCH  12  13
HETATM   13  C   LIG     1      14.132  31.261  18.251  1.00  0.00     0.000 C 
BRANCH  13  14
HETATM   14  C   LIG     1      13.957  32.311  17.140  1.00  0.00     0.000 C 
BRANCH  14  15
HETATM   15  C   LIG     1      15.296  32.897  16.655  1.00  0.00     0.001 C 
BRANCH  15  16
HETATM   16  C   LIG     1      15.722  32.455  15.243  1.00  0.00     0.010 C 
BRANCH  16  17
HETATM   17  C   LIG     1      17.145  32.905  14.882  1.00  0.00     0.110 C 
BRANCH  17  18
HETATM   18  C   LIG     1      17.287  33.083  13.399  1.00  0.00     0.139 C 
HETATM   19  O   LIG     1      18.417  32.964  12.858  1.00  0.00    -0.650 OA
BRANCH  18  20
HETATM   20  O   LIG     1      16.182  33.393  12.613  1.00  0.00    -0.776 OA
HETATM   21  H   LIG     1      15.932  32.827  11.811  1.00  0.00     0.167 HD
ENDBRANCH  18  20
ENDBRANCH  17  18
ENDBRANCH  16  17
ENDBRANCH  15  16
ENDBRANCH  14  15
ENDBRANCH  13  14
ENDBRANCH  12  13
ENDBRANCH   1  12
TORSDOF 17
ENDMDL
MODEL 12
REMARK VINA RESULT:      -5.1      2.119      4.606
REMARK  17 active torsions:
REMARK  status: ('A' for Active; 'I' for Inactive)
REMARK    1  A    between atoms: C_2  and  C_3 
REMARK    2  A    between atoms: C_3  and  C_4 
REMARK    3  A    between atoms: C_4  and  C_5 
REMARK    4  A    between atoms: C_5  and  C_6 
REMARK    5  A    between atoms: C_6  and  C_7 
REMARK    6  A    between atoms: C_7  and  C_8 
REMARK    7  A    between atoms: C_8  and  C_9 
REMARK    8  A    between atoms: C_9  and  C_10 
REMARK    9  A    between atoms: C_10  and  C_11 
REMARK   10  A    between atoms: C_11  and  C_12 
REMARK   11  A    between atoms: C_12  and  C_13 
REMARK   12  A    between atoms: C_13  and  C_14 
REMARK   13  A    between atoms: C_14  and  C_15 
REMARK   14  A    between atoms: C_15  and  C_16 
REMARK   15  A    between atoms: C_16  and  C_17 
REMARK   16  A    between atoms: C_17  and  C_18 
REMARK   17  A    between atoms: C_18  and  O_19 
ROOT
HETATM    1  C   LIG     1      16.900  34.656  23.051  1.00  0.00     0.000 C 
ENDROOT
BRANCH   1   2
HETATM    2  C   LIG     1      17.574  35.063  24.372  1.00  0.00     0.000 C 
BRANCH   2   3
HETATM    3  C   LIG     1      16.992  36.360  24.956  1.00  0.00     0.000 C 
BRANCH   3   4
HETATM    4  C   LIG     1      18.079  37.406  25.260  1.00  0.00     0.000 C 
BRANCH   4   5
HETATM    5  C   LIG     1      17.828  38.745  24.549  1.00  0.00     0.000 C 
BRANCH   5   6
HETATM    6  C   LIG     1      17.374  38.568  23.092  1.00  0.00     0.000 C 
BRANCH   6   7
HETATM    7  C   LIG     1      18.052  39.595  22.177  1.00  0.00     0.000 C 
BRANCH   7   8
HETATM    8  C   LIG     1      18.284  39.013  20.775  1.00  0.00     0.000 C 
BRANCH   8   9
HETATM    9  C   LIG     1      19.734  39.181  20.291  1.00  0.00    -0.000 C 
BRANCH   9  10
HETATM   10  C   LIG     1      20.182  38.092  19.292  1.00  0.00    -0.005 C 
HETATM   11  C   LIG     1      19.463  36.762  19.523  1.00  0.00     0.005 C 
ENDBRANCH   9  10
ENDBRANCH   8   9
ENDBRANCH   7   8
ENDBRANCH   6   7
ENDBRANCH   5   6
ENDBRANCH   4   5
ENDBRANCH   3   4
ENDBRANCH   2   3
ENDBRANCH   1   2
BRANCH   1  12
HETATM   12  C   LIG     1      16.552  35.862  22.160  1.00  0.00     0.000 C 
BRANCH  12  13
HETATM   13  C   LIG     1      16.549  35.537  20.651  1.00  0.00     0.000 C 
BRANCH  13  14
HETATM   14  C   LIG     1      15.233  34.878  20.203  1.00  0.00     0.000 C 
BRANCH  14  15
HETATM   15  C   LIG     1      15.454  33.661  19.286  1.00  0.00     0.001 C 
BRANCH  15  16
HETATM   16  C   LIG     1      15.272  33.941  17.784  1.00  0.00     0.010 C 
BRANCH  16  17
HETATM   17  C   LIG     1      15.361  32.670  16.926  1.00  0.00     0.110 C 
BRANCH  17  18
HETATM   18  C   LIG     1      16.279  32.880  15.758  1.00  0.00     0.139 C 
HETATM   19  O   LIG     1      16.641  34.044  15.445  1.00  0.00    -0.650 OA
BRANCH  18  20
HETATM   20  O   LIG     1      16.727  31.800  15.004  1.00  0.00    -0.776 OA
HETATM   21  H   LIG     1      17.180  31.006  15.440  1.00  0.00     0.167 HD
ENDBRANCH  18  20
ENDBRANCH  17  18
ENDBRANCH  16  17
ENDBRANCH  15  16
ENDBRANCH  14  15
ENDBRANCH  13  14
ENDBRANCH  12  13
ENDBRANCH   1  12
TORSDOF 17
ENDMDL
MODEL 13
REMARK VINA RESULT:      -4.4      3.095      6.080
REMARK  17 active torsions:
REMARK  status: ('A' for Active; 'I' for Inactive)
REMARK    1  A    between atoms: C_2  and  C_3 
REMARK    2  A    between atoms: C_3  and  C_4 
REMARK    3  A    between atoms: C_4  and  C_5 
REMARK    4  A    between atoms: C_5  and  C_6 
REMARK    5  A    between atoms: C_6  and  C_7 
REMARK    6  A    between atoms: C_7  and  C_8 
REMARK    7  A    between atoms: C_8  and  C_9 
REMARK    8  A    between atoms: C_9  and  C_10 
REMARK    9  A    between atoms: C_10  and  C_11 
REMARK   10  A    between atoms: C_11  and  C_12 
REMARK   11  A    between atoms: C_12  and  C_13 
REMARK   12  A    between atoms: C_13  and  C_14 
REMARK   13  A    between atoms: C_14  and  C_15 
REMARK   14  A    between atoms: C_15  and  C_16 
REMARK   15  A    between atoms: C_16  and  C_17 
REMARK   16  A    between atoms: C_17  and  C_18 
REMARK   17  A    between atoms: C_18  and  O_19 
ROOT
HETATM    1  C   LIG     1      14.199  32.572  20.718  1.00  0.00     0.000 C 
ENDROOT
BRANCH   1   2
HETATM    2  C   LIG     1      14.820  33.689  21.573  1.00  0.00     0.000 C 
BRANCH   2   3
HETATM    3  C   LIG     1      16.161  34.187  21.010  1.00  0.00     0.000 C 
BRANCH   3   4
HETATM    4  C   LIG     1      15.997  35.421  20.106  1.00  0.00     0.000 C 
BRANCH   4   5
HETATM    5  C   LIG     1      16.907  36.586  20.524  1.00  0.00     0.000 C 
BRANCH   5   6
HETATM    6  C   LIG     1      18.400  36.258  20.369  1.00  0.00     0.000 C 
BRANCH   6   7
HETATM    7  C   LIG     1      19.065  37.193  19.352  1.00  0.00     0.000 C 
BRANCH   7   8
HETATM    8  C   LIG     1      19.741  38.380  20.054  1.00  0.00     0.000 C 
BRANCH   8   9
HETATM    9  C   LIG     1      18.810  39.595  20.201  1.00  0.00    -0.000 C 
BRANCH   9  10
HETATM   10  C   LIG     1      18.391  39.879  21.660  1.00  0.00    -0.005 C 
HETATM   11  C   LIG     1      18.863  38.789  22.622  1.00  0.00     0.005 C 
ENDBRANCH   9  10
ENDBRANCH   8   9
ENDBRANCH   7   8
ENDBRANCH   6   7
ENDBRANCH   5   6
ENDBRANCH   4   5
ENDBRANCH   3   4
ENDBRANCH   2   3
ENDBRANCH   1   2
BRANCH   1  12
HETATM   12  C   LIG     1      15.238  31.827  19.861  1.00  0.00     0.000 C 
BRANCH  12  13
HETATM   13  C   LIG     1      14.624  31.058  18.672  1.00  0.00     0.000 C 
BRANCH  13  14
HETATM   14  C   LIG     1      14.075  32.005  17.591  1.00  0.00     0.000 C 
BRANCH  14  15
HETATM   15  C   LIG     1      14.618  31.689  16.186  1.00  0.00     0.001 C 
BRANCH  15  16
HETATM   16  C   LIG     1      13.811  30.640  15.401  1.00  0.00     0.010 C 
BRANCH  16  17
HETATM   17  C   LIG     1      14.662  29.884  14.369  1.00  0.00     0.110 C 
BRANCH  17  18
HETATM   18  C   LIG     1      14.001  28.596  13.975  1.00  0.00     0.139 C 
HETATM   19  O   LIG     1      14.702  27.617  13.609  1.00  0.00    -0.650 OA
BRANCH  18  20
HETATM   20  O   LIG     1      12.615  28.474  13.997  1.00  0.00    -0.776 OA
HETATM   21  H   LIG     1      12.161  27.731  14.514  1.00  0.00     0.167 HD
ENDBRANCH  18  20
ENDBRANCH  17  18
ENDBRANCH  16  17
ENDBRANCH  15  16
ENDBRANCH  14  15
ENDBRANCH  13  14
ENDBRANCH  12  13
ENDBRANCH   1  12
TORSDOF 17
ENDMDL
