REMARK  0 active torsions:
REMARK  status: ('A' for Active; 'I' for Inactive)
REMARK       I    between atoms: C_2  and  N_3 
REMARK       I    between atoms: C_2  and  N_4 
ROOT
HETATM    1  O   LIG     1       0.429   1.305   1.110  1.00  0.00    -0.248 OA
HETATM    2  C   LIG     1       0.123   0.374   0.319  1.00  0.00     0.311 C 
HETATM    3  N   LIG     1       1.146  -0.307  -0.406  1.00  0.00    -0.352 N 
HETATM    4  N   LIG     1      -1.245   0.006   0.150  1.00  0.00    -0.352 N 
HETATM    5  H   LIG     1       0.904  -1.080  -1.065  1.00  0.00     0.160 HD
HETATM    6  H   LIG     1       2.147  -0.039  -0.284  1.00  0.00     0.160 HD
HETATM    7  H   LIG     1      -1.994   0.504   0.680  1.00  0.00     0.160 HD
HETATM    8  H   LIG     1      -1.510  -0.763  -0.503  1.00  0.00     0.160 HD
ENDROOT
TORSDOF 0
