MODEL 1
REMARK VINA RESULT:      -3.5      0.000      0.000
REMARK  0 active torsions:
REMARK  status: ('A' for Active; 'I' for Inactive)
REMARK       I    between atoms: C_2  and  N_3 
REMARK       I    between atoms: C_2  and  N_4 
ROOT
HETATM    1  O   LIG     1      14.127  30.981  28.385  1.00  0.00    -0.248 OA
HETATM    2  C   LIG     1      13.246  31.212  27.514  1.00  0.00     0.311 C 
HETATM    3  N   LIG     1      12.734  30.142  26.722  1.00  0.00    -0.352 N 
HETATM    4  N   LIG     1      12.767  32.542  27.323  1.00  0.00    -0.352 N 
HETATM    5  H   LIG     1      12.004  30.321  25.996  1.00  0.00     0.160 HD
HETATM    6  H   LIG     1      13.083  29.168  26.860  1.00  0.00     0.160 HD
HETATM    7  H   LIG     1      13.142  33.325  27.903  1.00  0.00     0.160 HD
HETATM    8  H   LIG     1      12.039  32.745  26.605  1.00  0.00     0.160 HD
ENDROOT
TORSDOF 0
ENDMDL
MODEL 2
REMARK VINA RESULT:      -3.4      1.692      2.288
REMARK  0 active torsions:
REMARK  status: ('A' for Active; 'I' for Inactive)
REMARK       I    between atoms: C_2  and  N_3 
REMARK       I    between atoms: C_2  and  N_4 
ROOT
HETATM    1  O   LIG     1      12.517  30.565  25.953  1.00  0.00    -0.248 OA
HETATM    2  C   LIG     1      12.815  31.084  27.061  1.00  0.00     0.311 C 
HETATM    3  N   LIG     1      12.582  32.475  27.279  1.00  0.00    -0.352 N 
HETATM    4  N   LIG     1      13.386  30.281  28.093  1.00  0.00    -0.352 N 
HETATM    5  H   LIG     1      12.825  32.917  28.194  1.00  0.00     0.160 HD
HETATM    6  H   LIG     1      12.165  33.065  26.526  1.00  0.00     0.160 HD
HETATM    7  H   LIG     1      13.557  29.263  27.934  1.00  0.00     0.160 HD
HETATM    8  H   LIG     1      13.637  30.701  29.014  1.00  0.00     0.160 HD
ENDROOT
TORSDOF 0
ENDMDL
MODEL 3
REMARK VINA RESULT:      -3.0      8.029      8.122
REMARK  0 active torsions:
REMARK  status: ('A' for Active; 'I' for Inactive)
REMARK       I    between atoms: C_2  and  N_3 
REMARK       I    between atoms: C_2  and  N_4 
ROOT
HETATM    1  O   LIG     1      17.173  36.535  24.183  1.00  0.00    -0.248 OA
HETATM    2  C   LIG     1      16.700  37.689  24.361  1.00  0.00     0.311 C 
HETATM    3  N   LIG     1      15.619  38.146  23.550  1.00  0.00    -0.352 N 
HETATM    4  N   LIG     1      17.249  38.534  25.370  1.00  0.00    -0.352 N 
HETATM    5  H   LIG     1      15.219  39.101  23.688  1.00  0.00     0.160 HD
HETATM    6  H   LIG     1      15.216  37.529  22.811  1.00  0.00     0.160 HD
HETATM    7  H   LIG     1      18.041  38.200  25.964  1.00  0.00     0.160 HD
HETATM    8  H   LIG     1      16.866  39.492  25.526  1.00  0.00     0.160 HD
ENDROOT
TORSDOF 0
ENDMDL
MODEL 4
REMARK VINA RESULT:      -3.0      8.033      8.195
REMARK  0 active torsions:
REMARK  status: ('A' for Active; 'I' for Inactive)
REMARK       I    between atoms: C_2  and  N_3 
REMARK       I    between atoms: C_2  and  N_4 
ROOT
HETATM    1  O   LIG     1      17.198  36.542  24.180  1.00  0.00    -0.248 OA
HETATM    2  C   LIG     1      16.715  37.692  24.356  1.00  0.00     0.311 C 
HETATM    3  N   LIG     1      17.258  38.543  25.365  1.00  0.00    -0.352 N 
HETATM    4  N   LIG     1      15.627  38.137  23.548  1.00  0.00    -0.352 N 
HETATM    5  H   LIG     1      16.865  39.498  25.521  1.00  0.00     0.160 HD
HETATM    6  H   LIG     1      18.053  38.219  25.957  1.00  0.00     0.160 HD
HETATM    7  H   LIG     1      15.230  37.515  22.810  1.00  0.00     0.160 HD
HETATM    8  H   LIG     1      15.219  39.087  23.686  1.00  0.00     0.160 HD
ENDROOT
TORSDOF 0
ENDMDL
MODEL 5
REMARK VINA RESULT:      -3.0      7.996      8.053
REMARK  0 active torsions:
REMARK  status: ('A' for Active; 'I' for Inactive)
REMARK       I    between atoms: C_2  and  N_3 
REMARK       I    between atoms: C_2  and  N_4 
ROOT
HETATM    1  O   LIG     1      17.198  36.475  24.841  1.00  0.00    -0.248 OA
HETATM    2  C   LIG     1      17.711  37.372  25.560  1.00  0.00     0.311 C 
HETATM    3  N   LIG     1      18.791  37.049  26.436  1.00  0.00    -0.352 N 
HETATM    4  N   LIG     1      17.211  38.706  25.498  1.00  0.00    -0.352 N 
HETATM    5  H   LIG     1      19.224  37.784  27.037  1.00  0.00     0.160 HD
HETATM    6  H   LIG     1      19.158  36.073  26.484  1.00  0.00     0.160 HD
HETATM    7  H   LIG     1      16.421  38.943  24.857  1.00  0.00     0.160 HD
HETATM    8  H   LIG     1      17.628  39.457  26.090  1.00  0.00     0.160 HD
ENDROOT
TORSDOF 0
ENDMDL
MODEL 6
REMARK VINA RESULT:      -3.0      7.970      8.134
REMARK  0 active torsions:
REMARK  status: ('A' for Active; 'I' for Inactive)
REMARK       I    between atoms: C_2  and  N_3 
REMARK       I    between atoms: C_2  and  N_4 
ROOT
HETATM    1  O   LIG     1      17.204  36.439  24.890  1.00  0.00    -0.248 OA
HETATM    2  C   LIG     1      17.720  37.345  25.596  1.00  0.00     0.311 C 
HETATM    3  N   LIG     1      17.235  38.684  25.498  1.00  0.00    -0.352 N 
HETATM    4  N   LIG     1      18.788  37.031  26.488  1.00  0.00    -0.352 N 
HETATM    5  H   LIG     1      17.656  39.444  26.078  1.00  0.00     0.160 HD
HETATM    6  H   LIG     1      16.454  38.916  24.846  1.00  0.00     0.160 HD
HETATM    7  H   LIG     1      19.144  36.052  26.559  1.00  0.00     0.160 HD
HETATM    8  H   LIG     1      19.223  37.774  27.076  1.00  0.00     0.160 HD
ENDROOT
TORSDOF 0
ENDMDL
MODEL 7
REMARK VINA RESULT:      -3.0      9.159      9.263
REMARK  0 active torsions:
REMARK  status: ('A' for Active; 'I' for Inactive)
REMARK       I    between atoms: C_2  and  N_3 
REMARK       I    between atoms: C_2  and  N_4 
ROOT
HETATM    1  O   LIG     1      15.620  32.570  18.068  1.00  0.00    -0.248 OA
HETATM    2  C   LIG     1      14.550  32.038  18.466  1.00  0.00     0.311 C 
HETATM    3  N   LIG     1      13.432  31.945  17.584  1.00  0.00    -0.352 N 
HETATM    4  N   LIG     1      14.459  31.533  19.797  1.00  0.00    -0.352 N 
HETATM    5  H   LIG     1      12.540  31.507  17.903  1.00  0.00     0.160 HD
HETATM    6  H   LIG     1      13.497  32.314  16.610  1.00  0.00     0.160 HD
HETATM    7  H   LIG     1      15.276  31.601  20.443  1.00  0.00     0.160 HD
HETATM    8  H   LIG     1      13.577  31.092  20.138  1.00  0.00     0.160 HD
ENDROOT
TORSDOF 0
ENDMDL
MODEL 8
REMARK VINA RESULT:      -2.9     10.883     10.978
REMARK  0 active torsions:
REMARK  status: ('A' for Active; 'I' for Inactive)
REMARK       I    between atoms: C_2  and  N_3 
REMARK       I    between atoms: C_2  and  N_4 
ROOT
HETATM    1  O   LIG     1      15.855  34.557  16.287  1.00  0.00    -0.248 OA
HETATM    2  C   LIG     1      15.142  34.157  17.245  1.00  0.00     0.311 C 
HETATM    3  N   LIG     1      15.432  34.587  18.575  1.00  0.00    -0.352 N 
HETATM    4  N   LIG     1      14.048  33.276  16.997  1.00  0.00    -0.352 N 
HETATM    5  H   LIG     1      14.848  34.262  19.377  1.00  0.00     0.160 HD
HETATM    6  H   LIG     1      16.232  35.232  18.758  1.00  0.00     0.160 HD
HETATM    7  H   LIG     1      13.835  32.961  16.025  1.00  0.00     0.160 HD
HETATM    8  H   LIG     1      13.451  32.938  17.783  1.00  0.00     0.160 HD
ENDROOT
TORSDOF 0
ENDMDL
MODEL 9
REMARK VINA RESULT:      -2.8      7.500      7.688
REMARK  0 active torsions:
REMARK  status: ('A' for Active; 'I' for Inactive)
REMARK       I    between atoms: C_2  and  N_3 
REMARK       I    between atoms: C_2  and  N_4 
ROOT
HETATM    1  O   LIG     1      15.979  33.392  19.909  1.00  0.00    -0.248 OA
HETATM    2  C   LIG     1      14.929  32.942  20.439  1.00  0.00     0.311 C 
HETATM    3  N   LIG     1      14.258  33.704  21.442  1.00  0.00    -0.352 N 
HETATM    4  N   LIG     1      14.416  31.673  20.036  1.00  0.00    -0.352 N 
HETATM    5  H   LIG     1      13.386  33.341  21.889  1.00  0.00     0.160 HD
HETATM    6  H   LIG     1      14.631  34.632  21.738  1.00  0.00     0.160 HD
HETATM    7  H   LIG     1      14.907  31.116  19.303  1.00  0.00     0.160 HD
HETATM    8  H   LIG     1      13.548  31.291  20.469  1.00  0.00     0.160 HD
ENDROOT
TORSDOF 0
ENDMDL
MODEL 10
REMARK VINA RESULT:      -2.8     10.120     10.247
REMARK  0 active torsions:
REMARK  status: ('A' for Active; 'I' for Inactive)
REMARK       I    between atoms: C_2  and  N_3 
REMARK       I    between atoms: C_2  and  N_4 
ROOT
HETATM    1  O   LIG     1      14.743  31.971  16.520  1.00  0.00    -0.248 OA
HETATM    2  C   LIG     1      13.858  31.859  17.409  1.00  0.00     0.311 C 
HETATM    3  N   LIG     1      14.226  31.892  18.787  1.00  0.00    -0.352 N 
HETATM    4  N   LIG     1      12.491  31.698  17.033  1.00  0.00    -0.352 N 
HETATM    5  H   LIG     1      13.501  31.799  19.532  1.00  0.00     0.160 HD
HETATM    6  H   LIG     1      15.226  32.009  19.063  1.00  0.00     0.160 HD
HETATM    7  H   LIG     1      12.220  31.674  16.025  1.00  0.00     0.160 HD
HETATM    8  H   LIG     1      11.749  31.604  17.761  1.00  0.00     0.160 HD
ENDROOT
TORSDOF 0
ENDMDL
MODEL 11
REMARK VINA RESULT:      -2.8      7.445      7.459
REMARK  0 active torsions:
REMARK  status: ('A' for Active; 'I' for Inactive)
REMARK       I    between atoms: C_2  and  N_3 
REMARK       I    between atoms: C_2  and  N_4 
ROOT
HETATM    1  O   LIG     1      16.455  34.626  21.449  1.00  0.00    -0.248 OA
HETATM    2  C   LIG     1      15.240  34.533  21.132  1.00  0.00     0.311 C 
HETATM    3  N   LIG     1      14.720  33.288  20.668  1.00  0.00    -0.352 N 
HETATM    4  N   LIG     1      14.389  35.674  21.236  1.00  0.00    -0.352 N 
HETATM    5  H   LIG     1      13.714  33.199  20.402  1.00  0.00     0.160 HD
HETATM    6  H   LIG     1      15.341  32.453  20.591  1.00  0.00     0.160 HD
HETATM    7  H   LIG     1      14.769  36.585  21.575  1.00  0.00     0.160 HD
HETATM    8  H   LIG     1      13.382  35.609  20.975  1.00  0.00     0.160 HD
ENDROOT
TORSDOF 0
ENDMDL
MODEL 12
REMARK VINA RESULT:      -2.6     11.803     12.109
REMARK  0 active torsions:
REMARK  status: ('A' for Active; 'I' for Inactive)
REMARK       I    between atoms: C_2  and  N_3 
REMARK       I    between atoms: C_2  and  N_4 
ROOT
HETATM    1  O   LIG     1      18.592  37.724  20.318  1.00  0.00    -0.248 OA
HETATM    2  C   LIG     1      19.180  38.833  20.425  1.00  0.00     0.311 C 
HETATM    3  N   LIG     1      20.119  39.237  19.429  1.00  0.00    -0.352 N 
HETATM    4  N   LIG     1      18.906  39.678  21.541  1.00  0.00    -0.352 N 
HETATM    5  H   LIG     1      20.613  40.154  19.507  1.00  0.00     0.160 HD
HETATM    6  H   LIG     1      20.321  38.620  18.612  1.00  0.00     0.160 HD
HETATM    7  H   LIG     1      18.219  39.383  22.269  1.00  0.00     0.160 HD
HETATM    8  H   LIG     1      19.387  40.598  21.639  1.00  0.00     0.160 HD
ENDROOT
TORSDOF 0
ENDMDL
MODEL 13
REMARK VINA RESULT:      -2.6     12.455     12.746
REMARK  0 active torsions:
REMARK  status: ('A' for Active; 'I' for Inactive)
REMARK       I    between atoms: C_2  and  N_3 
REMARK       I    between atoms: C_2  and  N_4 
ROOT
HETATM    1  O   LIG     1      18.960  39.656  20.576  1.00  0.00    -0.248 OA
HETATM    2  C   LIG     1      19.521  38.889  19.749  1.00  0.00     0.311 C 
HETATM    3  N   LIG     1      20.525  39.399  18.873  1.00  0.00    -0.352 N 
HETATM    4  N   LIG     1      19.149  37.513  19.692  1.00  0.00    -0.352 N 
HETATM    5  H   LIG     1      20.996  38.772  18.184  1.00  0.00     0.160 HD
HETATM    6  H   LIG     1      20.798  40.405  18.913  1.00  0.00     0.160 HD
HETATM    7  H   LIG     1      18.414  37.138  20.333  1.00  0.00     0.160 HD
HETATM    8  H   LIG     1      19.606  36.868  19.012  1.00  0.00     0.160 HD
ENDROOT
TORSDOF 0
ENDMDL
MODEL 14
REMARK VINA RESULT:      -2.6      8.317      8.349
REMARK  0 active torsions:
REMARK  status: ('A' for Active; 'I' for Inactive)
REMARK       I    between atoms: C_2  and  N_3 
REMARK       I    between atoms: C_2  and  N_4 
ROOT
HETATM    1  O   LIG     1      15.984  34.903  19.599  1.00  0.00    -0.248 OA
HETATM    2  C   LIG     1      15.721  35.164  20.803  1.00  0.00     0.311 C 
HETATM    3  N   LIG     1      14.421  35.631  21.161  1.00  0.00    -0.352 N 
HETATM    4  N   LIG     1      16.725  34.993  21.802  1.00  0.00    -0.352 N 
HETATM    5  H   LIG     1      14.192  35.850  22.156  1.00  0.00     0.160 HD
HETATM    6  H   LIG     1      13.686  35.756  20.432  1.00  0.00     0.160 HD
HETATM    7  H   LIG     1      17.676  34.652  21.541  1.00  0.00     0.160 HD
HETATM    8  H   LIG     1      16.519  35.207  22.802  1.00  0.00     0.160 HD
ENDROOT
TORSDOF 0
ENDMDL
MODEL 15
REMARK VINA RESULT:      -2.6      7.978      8.124
REMARK  0 active torsions:
REMARK  status: ('A' for Active; 'I' for Inactive)
REMARK       I    between atoms: C_2  and  N_3 
REMARK       I    between atoms: C_2  and  N_4 
ROOT
HETATM    1  O   LIG     1      15.596  33.060  19.416  1.00  0.00    -0.248 OA
HETATM    2  C   LIG     1      15.501  33.849  20.393  1.00  0.00     0.311 C 
HETATM    3  N   LIG     1      16.487  34.862  20.587  1.00  0.00    -0.352 N 
HETATM    4  N   LIG     1      14.408  33.726  21.302  1.00  0.00    -0.352 N 
HETATM    5  H   LIG     1      16.418  35.522  21.394  1.00  0.00     0.160 HD
HETATM    6  H   LIG     1      17.287  34.954  19.923  1.00  0.00     0.160 HD
HETATM    7  H   LIG     1      13.686  32.985  21.161  1.00  0.00     0.160 HD
HETATM    8  H   LIG     1      14.319  34.373  22.115  1.00  0.00     0.160 HD
ENDROOT
TORSDOF 0
ENDMDL
MODEL 16
REMARK VINA RESULT:      -2.5     12.581     12.903
REMARK  0 active torsions:
REMARK  status: ('A' for Active; 'I' for Inactive)
REMARK       I    between atoms: C_2  and  N_3 
REMARK       I    between atoms: C_2  and  N_4 
ROOT
HETATM    1  O   LIG     1      19.788  37.722  19.479  1.00  0.00    -0.248 OA
HETATM    2  C   LIG     1      19.383  38.909  19.355  1.00  0.00     0.311 C 
HETATM    3  N   LIG     1      19.205  39.722  20.514  1.00  0.00    -0.352 N 
HETATM    4  N   LIG     1      19.104  39.433  18.058  1.00  0.00    -0.352 N 
HETATM    5  H   LIG     1      18.870  40.707  20.424  1.00  0.00     0.160 HD
HETATM    6  H   LIG     1      19.408  39.341  21.463  1.00  0.00     0.160 HD
HETATM    7  H   LIG     1      19.234  38.838  17.210  1.00  0.00     0.160 HD
HETATM    8  H   LIG     1      18.768  40.414  17.944  1.00  0.00     0.160 HD
ENDROOT
TORSDOF 0
ENDMDL
MODEL 17
REMARK VINA RESULT:      -2.5      8.711      8.779
REMARK  0 active torsions:
REMARK  status: ('A' for Active; 'I' for Inactive)
REMARK       I    between atoms: C_2  and  N_3 
REMARK       I    between atoms: C_2  and  N_4 
ROOT
HETATM    1  O   LIG     1      17.210  38.480  22.007  1.00  0.00    -0.248 OA
HETATM    2  C   LIG     1      16.470  37.723  22.689  1.00  0.00     0.311 C 
HETATM    3  N   LIG     1      16.912  36.408  23.022  1.00  0.00    -0.352 N 
HETATM    4  N   LIG     1      15.192  38.184  23.126  1.00  0.00    -0.352 N 
HETATM    5  H   LIG     1      16.307  35.772  23.586  1.00  0.00     0.160 HD
HETATM    6  H   LIG     1      17.846  36.069  22.703  1.00  0.00     0.160 HD
HETATM    7  H   LIG     1      14.868  39.147  22.883  1.00  0.00     0.160 HD
HETATM    8  H   LIG     1      14.571  37.566  23.691  1.00  0.00     0.160 HD
ENDROOT
TORSDOF 0
ENDMDL
MODEL 18
REMARK VINA RESULT:      -2.4     11.024     11.024
REMARK  0 active torsions:
REMARK  status: ('A' for Active; 'I' for Inactive)
REMARK       I    between atoms: C_2  and  N_3 
REMARK       I    between atoms: C_2  and  N_4 
ROOT
HETATM    1  O   LIG     1      13.932  32.707  16.948  1.00  0.00    -0.248 OA
HETATM    2  C   LIG     1      15.049  33.289  16.928  1.00  0.00     0.311 C 
HETATM    3  N   LIG     1      16.132  32.723  16.192  1.00  0.00    -0.352 N 
HETATM    4  N   LIG     1      15.226  34.511  17.644  1.00  0.00    -0.352 N 
HETATM    5  H   LIG     1      17.063  33.197  16.169  1.00  0.00     0.160 HD
HETATM    6  H   LIG     1      16.004  31.830  15.668  1.00  0.00     0.160 HD
HETATM    7  H   LIG     1      14.434  34.925  18.183  1.00  0.00     0.160 HD
HETATM    8  H   LIG     1      16.147  35.001  17.636  1.00  0.00     0.160 HD
ENDROOT
TORSDOF 0
ENDMDL
MODEL 19
REMARK VINA RESULT:      -2.4      7.810      8.024
REMARK  0 active torsions:
REMARK  status: ('A' for Active; 'I' for Inactive)
REMARK       I    between atoms: C_2  and  N_3 
REMARK       I    between atoms: C_2  and  N_4 
ROOT
HETATM    1  O   LIG     1      16.546  34.862  21.506  1.00  0.00    -0.248 OA
HETATM    2  C   LIG     1      15.711  35.794  21.655  1.00  0.00     0.311 C 
HETATM    3  N   LIG     1      16.097  36.993  22.326  1.00  0.00    -0.352 N 
HETATM    4  N   LIG     1      14.384  35.646  21.154  1.00  0.00    -0.352 N 
HETATM    5  H   LIG     1      15.414  37.771  22.455  1.00  0.00     0.160 HD
HETATM    6  H   LIG     1      17.068  37.103  22.693  1.00  0.00     0.160 HD
HETATM    7  H   LIG     1      14.101  34.769  20.663  1.00  0.00     0.160 HD
HETATM    8  H   LIG     1      13.684  36.410  21.272  1.00  0.00     0.160 HD
ENDROOT
TORSDOF 0
ENDMDL
MODEL 20
REMARK VINA RESULT:      -2.4     16.545     16.608
REMARK  0 active torsions:
REMARK  status: ('A' for Active; 'I' for Inactive)
REMARK       I    between atoms: C_2  and  N_3 
REMARK       I    between atoms: C_2  and  N_4 
ROOT
HETATM    1  O   LIG     1      19.563  34.468  12.848  1.00  0.00    -0.248 OA
HETATM    2  C   LIG     1      18.582  34.142  12.129  1.00  0.00     0.311 C 
HETATM    3  N   LIG     1      18.399  34.758  10.855  1.00  0.00    -0.352 N 
HETATM    4  N   LIG     1      17.657  33.159  12.592  1.00  0.00    -0.352 N 
HETATM    5  H   LIG     1      17.588  34.496  10.251  1.00  0.00     0.160 HD
HETATM    6  H   LIG     1      19.074  35.477  10.515  1.00  0.00     0.160 HD
HETATM    7  H   LIG     1      17.790  32.708  13.525  1.00  0.00     0.160 HD
HETATM    8  H   LIG     1      16.840  32.882  12.006  1.00  0.00     0.160 HD
ENDROOT
TORSDOF 0
ENDMDL
