REMARK  15 active torsions:
REMARK  status: ('A' for Active; 'I' for Inactive)
REMARK    1  A    between atoms: C_2  and  C_3 
REMARK    2  A    between atoms: C_3  and  C_4 
REMARK    3  A    between atoms: C_4  and  C_5 
REMARK    4  A    between atoms: C_5  and  C_6 
REMARK    5  A    between atoms: C_6  and  C_7 
REMARK    6  A    between atoms: C_7  and  C_8 
REMARK    7  A    between atoms: C_8  and  C_9 
REMARK    8  A    between atoms: C_9  and  C_10 
REMARK    9  A    between atoms: C_10  and  C_11 
REMARK   10  A    between atoms: C_11  and  C_12 
REMARK   11  A    between atoms: C_12  and  C_13 
REMARK   12  A    between atoms: C_13  and  C_14 
REMARK   13  A    between atoms: C_14  and  C_15 
REMARK   14  A    between atoms: C_15  and  C_16 
REMARK   15  A    between atoms: C_16  and  O_17 
ROOT
HETATM    1  C   LIG     1      -1.184  -1.597  -1.006  1.00  0.00     0.000 C 
ENDROOT
BRANCH   1   2
HETATM    2  C   LIG     1      -0.233  -0.385  -0.981  1.00  0.00     0.000 C 
BRANCH   2   3
HETATM    3  C   LIG     1       0.435  -0.174   0.388  1.00  0.00     0.000 C 
BRANCH   3   4
HETATM    4  C   LIG     1       1.383   1.040   0.415  1.00  0.00     0.000 C 
BRANCH   4   5
HETATM    5  C   LIG     1       2.590   0.961  -0.538  1.00  0.00     0.000 C 
BRANCH   5   6
HETATM    6  C   LIG     1       3.520  -0.226  -0.233  1.00  0.00     0.000 C 
BRANCH   6   7
HETATM    7  C   LIG     1       4.751  -0.278  -1.157  1.00  0.00     0.000 C 
BRANCH   7   8
HETATM    8  C   LIG     1       5.723   0.909  -1.024  1.00  0.00    -0.000 C 
BRANCH   8   9
HETATM    9  C   LIG     1       6.307   1.053   0.388  1.00  0.00    -0.005 C 
HETATM   10  C   LIG     1       7.410   2.106   0.424  1.00  0.00     0.005 C 
ENDBRANCH   8   9
ENDBRANCH   7   8
ENDBRANCH   6   7
ENDBRANCH   5   6
ENDBRANCH   4   5
ENDBRANCH   3   4
ENDBRANCH   2   3
ENDBRANCH   1   2
BRANCH   1  11
HETATM   11  C   LIG     1      -2.390  -1.509  -0.053  1.00  0.00     0.000 C 
BRANCH  11  12
HETATM   12  C   LIG     1      -3.300  -0.303  -0.344  1.00  0.00     0.000 C 
BRANCH  12  13
HETATM   13  C   LIG     1      -4.570  -0.302   0.522  1.00  0.00     0.001 C 
BRANCH  13  14
HETATM   14  C   LIG     1      -5.646  -1.266  -0.009  1.00  0.00     0.010 C 
BRANCH  14  15
HETATM   15  C   LIG     1      -6.890  -1.318   0.892  1.00  0.00     0.110 C 
BRANCH  15  16
HETATM   16  C   LIG     1      -7.737  -0.087   0.765  1.00  0.00     0.139 C 
HETATM   17  O   LIG     1      -8.825  -0.134   0.131  1.00  0.00    -0.650 OA
BRANCH  16  18
HETATM   18  O   LIG     1      -7.341   1.101   1.371  1.00  0.00    -0.776 OA
HETATM   19  H   LIG     1      -7.909   1.936   1.298  1.00  0.00     0.167 HD
ENDBRANCH  16  18
ENDBRANCH  15  16
ENDBRANCH  14  15
ENDBRANCH  13  14
ENDBRANCH  12  13
ENDBRANCH  11  12
ENDBRANCH   1  11
TORSDOF 15
