REMARK  0 active torsions:
REMARK  status: ('A' for Active; 'I' for Inactive)
ROOT
HETATM    1  O   LIG     1       1.807   3.780  -0.298  1.00  0.00    -0.273 OA
HETATM    2  C   LIG     1       0.970   2.857  -0.116  1.00  0.00     0.227 C 
HETATM    3  C   LIG     1      -0.458   3.174   0.366  1.00  0.00     0.135 C 
HETATM    4  N   LIG     1       1.343   1.476  -0.298  1.00  0.00    -0.311 N 
HETATM    5  C   LIG     1       0.454   0.529   0.291  1.00  0.00     0.115 C 
HETATM    6  C   LIG     1       0.920  -0.899  -0.050  1.00  0.00     0.043 C 
HETATM    7  C   LIG     1       0.769  -1.316  -1.526  1.00  0.00     0.049 C 
HETATM    8  C   LIG     1      -0.485  -2.176  -1.639  1.00  0.00     0.274 C 
HETATM    9  C   LIG     1      -0.018  -1.919   0.715  1.00  0.00     0.239 C 
HETATM   10  N   LIG     1      -0.962  -2.517  -0.289  1.00  0.00     0.098 N 
HETATM   11  C   LIG     1      -2.446  -2.262  -0.125  1.00  0.00     0.307 C 
HETATM   12  C   LIG     1      -0.857  -1.228   1.815  1.00  0.00     0.046 C 
HETATM   13  C   LIG     1      -1.739  -0.144   1.099  1.00  0.00     0.026 C 
HETATM   14  C   LIG     1      -2.781  -0.824   0.309  1.00  0.00    -0.049 C 
HETATM   15  C   LIG     1      -3.714  -0.056  -0.319  1.00  0.00     0.004 C 
HETATM   16  C   LIG     1      -3.780   1.500  -0.316  1.00  0.00     0.196 C 
HETATM   17  O   LIG     1      -2.782   2.235   0.423  1.00  0.00    -0.381 OA
HETATM   18  C   LIG     1      -1.491   2.132  -0.174  1.00  0.00     0.137 C 
HETATM   19  C   LIG     1      -0.985   0.698   0.006  1.00  0.00     0.048 C 
HETATM   20  C   LIG     1       2.586   0.775  -0.101  1.00  0.00     0.044 A 
HETATM   21  C   LIG     1       2.378  -0.591   0.174  1.00  0.00    -0.018 A 
HETATM   22  C   LIG     1       3.447  -1.450   0.414  1.00  0.00     0.010 A 
HETATM   23  C   LIG     1       4.742  -0.908   0.436  1.00  0.00     0.001 A 
HETATM   24  C   LIG     1       4.951   0.467   0.196  1.00  0.00     0.002 A 
HETATM   25  C   LIG     1       3.869   1.322  -0.076  1.00  0.00     0.030 A 
ENDROOT
TORSDOF 0
