REMARK  2 active torsions:
REMARK  status: ('A' for Active; 'I' for Inactive)
REMARK    1  A    between atoms: O_1  and  C_2 
REMARK    2  A    between atoms: C_18  and  O_21 
ROOT
HETATM    1  C   LIG     1       3.168  -1.558  -0.169  1.00  0.00     0.099 C 
HETATM    2  C   LIG     1       2.298  -0.569   0.290  1.00  0.00     0.110 A 
HETATM    3  C   LIG     1       0.947  -0.729   0.203  1.00  0.00    -0.003 A 
HETATM    4  C   LIG     1       0.379  -1.715  -0.609  1.00  0.00    -0.046 C 
HETATM    5  C   LIG     1       1.225  -2.740  -1.075  1.00  0.00     0.011 C 
HETATM    6  C   LIG     1       2.613  -2.682  -0.818  1.00  0.00     0.040 C 
HETATM    7  C   LIG     1      -1.025  -1.510  -1.177  1.00  0.00     0.075 C 
HETATM    8  C   LIG     1      -1.671  -0.102  -0.847  1.00  0.00     0.235 C 
HETATM    9  C   LIG     1      -0.556   0.950  -0.623  1.00  0.00     0.057 C 
HETATM   10  O   LIG     1       2.631   0.701   0.734  1.00  0.00    -0.338 OA
HETATM   11  C   LIG     1       1.446   1.476   0.964  1.00  0.00     0.175 A 
HETATM   12  C   LIG     1       0.258   0.512   0.610  1.00  0.00     0.030 A 
HETATM   13  C   LIG     1      -0.647   0.284   1.853  1.00  0.00     0.048 C 
HETATM   14  C   LIG     1      -1.868  -0.595   1.555  1.00  0.00     0.273 C 
HETATM   15  N   LIG     1      -2.559  -0.125   0.341  1.00  0.00     0.089 N 
HETATM   16  C   LIG     1      -3.808  -0.870   0.112  1.00  0.00     0.310 C 
HETATM   17  C   LIG     1       1.419   2.795   0.141  1.00  0.00     0.171 C 
HETATM   18  C   LIG     1      -0.020   3.262  -0.069  1.00  0.00     0.004 C 
HETATM   19  C   LIG     1      -0.972   2.382  -0.437  1.00  0.00    -0.020 C 
ENDROOT
BRANCH   1  20
HETATM   20  O   LIG     1       4.545  -1.412  -0.019  1.00  0.00    -0.358 OA
HETATM   21  H   LIG     1       5.189  -2.116  -0.360  1.00  0.00     0.217 HD
ENDBRANCH   1  20
BRANCH  17  22
HETATM   22  O   LIG     1       2.038   2.595  -1.103  1.00  0.00    -0.389 OA
HETATM   23  H   LIG     1       2.196   3.495  -1.492  1.00  0.00     0.210 HD
ENDBRANCH  17  22
TORSDOF 2
