MODEL 1
REMARK VINA RESULT:      -6.3      0.000      0.000
REMARK  0 active torsions:
REMARK  status: ('A' for Active; 'I' for Inactive)
ROOT
HETATM    1  O   LIG     1      25.545  21.362  23.209  1.00  0.00    -0.273 OA
HETATM    2  C   LIG     1      26.057  22.253  22.482  1.00  0.00     0.227 C 
HETATM    3  C   LIG     1      26.784  23.458  23.108  1.00  0.00     0.135 C 
HETATM    4  N   LIG     1      25.927  22.200  21.047  1.00  0.00    -0.311 N 
HETATM    5  C   LIG     1      26.203  23.424  20.370  1.00  0.00     0.115 C 
HETATM    6  C   LIG     1      26.112  23.206  18.848  1.00  0.00     0.043 C 
HETATM    7  C   LIG     1      27.224  22.336  18.230  1.00  0.00     0.049 C 
HETATM    8  C   LIG     1      28.241  23.271  17.587  1.00  0.00     0.274 C 
HETATM    9  C   LIG     1      26.308  24.607  18.137  1.00  0.00     0.239 C 
HETATM   10  N   LIG     1      27.691  24.636  17.553  1.00  0.00     0.098 N 
HETATM   11  C   LIG     1      28.674  25.662  18.077  1.00  0.00     0.307 C 
HETATM   12  C   LIG     1      26.176  25.787  19.127  1.00  0.00     0.046 C 
HETATM   13  C   LIG     1      27.293  25.593  20.215  1.00  0.00     0.026 C 
HETATM   14  C   LIG     1      28.606  25.860  19.601  1.00  0.00    -0.049 C 
HETATM   15  C   LIG     1      29.706  25.836  20.404  1.00  0.00     0.004 C 
HETATM   16  C   LIG     1      29.727  25.520  21.929  1.00  0.00     0.196 C 
HETATM   17  O   LIG     1      28.479  25.232  22.595  1.00  0.00    -0.381 OA
HETATM   18  C   LIG     1      27.928  23.984  22.181  1.00  0.00     0.137 C 
HETATM   19  C   LIG     1      27.456  24.117  20.731  1.00  0.00     0.048 C 
HETATM   20  C   LIG     1      24.886  21.695  20.187  1.00  0.00     0.044 A 
HETATM   21  C   LIG     1      24.878  22.346  18.938  1.00  0.00    -0.018 A 
HETATM   22  C   LIG     1      23.940  22.022  17.962  1.00  0.00     0.010 A 
HETATM   23  C   LIG     1      22.958  21.068  18.274  1.00  0.00     0.001 A 
HETATM   24  C   LIG     1      22.943  20.439  19.538  1.00  0.00     0.002 A 
HETATM   25  C   LIG     1      23.912  20.749  20.508  1.00  0.00     0.030 A 
ENDROOT
TORSDOF 0
ENDMDL
MODEL 2
REMARK VINA RESULT:      -6.2      2.541      6.150
REMARK  0 active torsions:
REMARK  status: ('A' for Active; 'I' for Inactive)
ROOT
HETATM    1  O   LIG     1      26.127  20.725  16.755  1.00  0.00    -0.273 OA
HETATM    2  C   LIG     1      25.464  20.764  17.824  1.00  0.00     0.227 C 
HETATM    3  C   LIG     1      24.249  19.841  18.030  1.00  0.00     0.135 C 
HETATM    4  N   LIG     1      25.789  21.713  18.860  1.00  0.00    -0.311 N 
HETATM    5  C   LIG     1      24.765  21.920  19.831  1.00  0.00     0.115 C 
HETATM    6  C   LIG     1      25.272  22.884  20.920  1.00  0.00     0.043 C 
HETATM    7  C   LIG     1      26.369  22.326  21.847  1.00  0.00     0.049 C 
HETATM    8  C   LIG     1      25.704  21.908  23.153  1.00  0.00     0.274 C 
HETATM    9  C   LIG     1      24.074  23.182  21.910  1.00  0.00     0.239 C 
HETATM   10  N   LIG     1      24.320  22.409  23.175  1.00  0.00     0.098 N 
HETATM   11  C   LIG     1      23.328  21.334  23.568  1.00  0.00     0.307 C 
HETATM   12  C   LIG     1      22.712  22.737  21.329  1.00  0.00     0.046 C 
HETATM   13  C   LIG     1      22.809  21.190  21.079  1.00  0.00     0.026 C 
HETATM   14  C   LIG     1      22.822  20.497  22.379  1.00  0.00    -0.049 C 
HETATM   15  C   LIG     1      22.810  19.135  22.381  1.00  0.00     0.004 C 
HETATM   16  C   LIG     1      22.814  18.212  21.127  1.00  0.00     0.196 C 
HETATM   17  O   LIG     1      22.818  18.820  19.818  1.00  0.00    -0.381 OA
HETATM   18  C   LIG     1      24.053  19.476  19.538  1.00  0.00     0.137 C 
HETATM   19  C   LIG     1      24.161  20.714  20.431  1.00  0.00     0.048 C 
HETATM   20  C   LIG     1      26.335  23.045  18.816  1.00  0.00     0.044 A 
HETATM   21  C   LIG     1      25.951  23.805  19.938  1.00  0.00    -0.018 A 
HETATM   22  C   LIG     1      26.355  25.129  20.087  1.00  0.00     0.010 A 
HETATM   23  C   LIG     1      27.109  25.712  19.056  1.00  0.00     0.001 A 
HETATM   24  C   LIG     1      27.466  24.964  17.913  1.00  0.00     0.002 A 
HETATM   25  C   LIG     1      27.080  23.619  17.785  1.00  0.00     0.030 A 
ENDROOT
TORSDOF 0
ENDMDL
MODEL 3
REMARK VINA RESULT:      -6.1      1.434      1.846
REMARK  0 active torsions:
REMARK  status: ('A' for Active; 'I' for Inactive)
ROOT
HETATM    1  O   LIG     1      26.999  23.211  24.718  1.00  0.00    -0.273 OA
HETATM    2  C   LIG     1      27.239  23.699  23.582  1.00  0.00     0.227 C 
HETATM    3  C   LIG     1      28.192  24.898  23.426  1.00  0.00     0.135 C 
HETATM    4  N   LIG     1      26.582  23.185  22.405  1.00  0.00    -0.311 N 
HETATM    5  C   LIG     1      26.636  24.040  21.264  1.00  0.00     0.115 C 
HETATM    6  C   LIG     1      25.977  23.338  20.062  1.00  0.00     0.043 C 
HETATM    7  C   LIG     1      26.744  22.130  19.491  1.00  0.00     0.049 C 
HETATM    8  C   LIG     1      27.486  22.599  18.244  1.00  0.00     0.274 C 
HETATM    9  C   LIG     1      25.949  24.358  18.851  1.00  0.00     0.239 C 
HETATM   10  N   LIG     1      27.016  23.945  17.878  1.00  0.00     0.098 N 
HETATM   11  C   LIG     1      28.163  24.900  17.617  1.00  0.00     0.307 C 
HETATM   12  C   LIG     1      26.241  25.807  19.303  1.00  0.00     0.046 C 
HETATM   13  C   LIG     1      27.673  25.802  19.948  1.00  0.00     0.026 C 
HETATM   14  C   LIG     1      28.674  25.611  18.883  1.00  0.00    -0.049 C 
HETATM   15  C   LIG     1      29.991  25.669  19.223  1.00  0.00     0.004 C 
HETATM   16  C   LIG     1      30.565  25.890  20.653  1.00  0.00     0.196 C 
HETATM   17  O   LIG     1      29.644  26.068  21.750  1.00  0.00    -0.381 OA
HETATM   18  C   LIG     1      28.930  24.870  22.048  1.00  0.00     0.137 C 
HETATM   19  C   LIG     1      27.959  24.584  20.900  1.00  0.00     0.048 C 
HETATM   20  C   LIG     1      25.278  22.609  22.198  1.00  0.00     0.044 A 
HETATM   21  C   LIG     1      24.832  22.789  20.874  1.00  0.00    -0.018 A 
HETATM   22  C   LIG     1      23.586  22.323  20.462  1.00  0.00     0.010 A 
HETATM   23  C   LIG     1      22.755  21.718  21.418  1.00  0.00     0.001 A 
HETATM   24  C   LIG     1      23.185  21.568  22.754  1.00  0.00     0.002 A 
HETATM   25  C   LIG     1      24.456  22.014  23.155  1.00  0.00     0.030 A 
ENDROOT
TORSDOF 0
ENDMDL
MODEL 4
REMARK VINA RESULT:      -5.9      1.994      6.115
REMARK  0 active torsions:
REMARK  status: ('A' for Active; 'I' for Inactive)
ROOT
HETATM    1  O   LIG     1      27.966  25.075  18.775  1.00  0.00    -0.273 OA
HETATM    2  C   LIG     1      27.022  24.337  19.164  1.00  0.00     0.227 C 
HETATM    3  C   LIG     1      25.810  24.066  18.255  1.00  0.00     0.135 C 
HETATM    4  N   LIG     1      27.025  23.774  20.492  1.00  0.00    -0.311 N 
HETATM    5  C   LIG     1      25.763  23.287  20.942  1.00  0.00     0.115 C 
HETATM    6  C   LIG     1      25.924  22.638  22.330  1.00  0.00     0.043 C 
HETATM    7  C   LIG     1      26.714  21.316  22.361  1.00  0.00     0.049 C 
HETATM    8  C   LIG     1      25.706  20.174  22.436  1.00  0.00     0.274 C 
HETATM    9  C   LIG     1      24.489  22.218  22.847  1.00  0.00     0.239 C 
HETATM   10  N   LIG     1      24.369  20.727  22.709  1.00  0.00     0.098 N 
HETATM   11  C   LIG     1      23.318  20.171  21.770  1.00  0.00     0.307 C 
HETATM   12  C   LIG     1      23.356  22.871  22.021  1.00  0.00     0.046 C 
HETATM   13  C   LIG     1      23.539  22.388  20.539  1.00  0.00     0.026 C 
HETATM   14  C   LIG     1      23.185  20.960  20.456  1.00  0.00    -0.049 C 
HETATM   15  C   LIG     1      23.187  20.368  19.230  1.00  0.00     0.004 C 
HETATM   16  C   LIG     1      23.563  21.047  17.879  1.00  0.00     0.196 C 
HETATM   17  O   LIG     1      23.937  22.441  17.885  1.00  0.00    -0.381 OA
HETATM   18  C   LIG     1      25.193  22.655  18.525  1.00  0.00     0.137 C 
HETATM   19  C   LIG     1      25.025  22.396  20.024  1.00  0.00     0.048 C 
HETATM   20  C   LIG     1      27.545  24.254  21.746  1.00  0.00     0.044 A 
HETATM   21  C   LIG     1      26.846  23.714  22.843  1.00  0.00    -0.018 A 
HETATM   22  C   LIG     1      27.176  24.061  24.151  1.00  0.00     0.010 A 
HETATM   23  C   LIG     1      28.188  25.013  24.350  1.00  0.00     0.001 A 
HETATM   24  C   LIG     1      28.866  25.583  23.252  1.00  0.00     0.002 A 
HETATM   25  C   LIG     1      28.549  25.205  21.936  1.00  0.00     0.030 A 
ENDROOT
TORSDOF 0
ENDMDL
MODEL 5
REMARK VINA RESULT:      -5.9      2.203      6.067
REMARK  0 active torsions:
REMARK  status: ('A' for Active; 'I' for Inactive)
ROOT
HETATM    1  O   LIG     1      28.223  24.823  21.507  1.00  0.00    -0.273 OA
HETATM    2  C   LIG     1      27.249  24.066  21.252  1.00  0.00     0.227 C 
HETATM    3  C   LIG     1      26.636  24.022  19.840  1.00  0.00     0.135 C 
HETATM    4  N   LIG     1      26.645  23.266  22.289  1.00  0.00    -0.311 N 
HETATM    5  C   LIG     1      25.349  22.758  21.979  1.00  0.00     0.115 C 
HETATM    6  C   LIG     1      24.860  21.855  23.128  1.00  0.00     0.043 C 
HETATM    7  C   LIG     1      25.608  20.518  23.291  1.00  0.00     0.049 C 
HETATM    8  C   LIG     1      24.748  19.427  22.661  1.00  0.00     0.274 C 
HETATM    9  C   LIG     1      23.377  21.407  22.805  1.00  0.00     0.239 C 
HETATM   10  N   LIG     1      23.417  19.975  22.355  1.00  0.00     0.098 N 
HETATM   11  C   LIG     1      22.975  19.649  20.943  1.00  0.00     0.307 C 
HETATM   12  C   LIG     1      22.745  22.251  21.673  1.00  0.00     0.046 C 
HETATM   13  C   LIG     1      23.642  22.046  20.400  1.00  0.00     0.026 C 
HETATM   14  C   LIG     1      23.446  20.674  19.897  1.00  0.00    -0.049 C 
HETATM   15  C   LIG     1      24.068  20.322  18.737  1.00  0.00     0.004 C 
HETATM   16  C   LIG     1      25.007  21.224  17.884  1.00  0.00     0.196 C 
HETATM   17  O   LIG     1      25.259  22.576  18.325  1.00  0.00    -0.381 OA
HETATM   18  C   LIG     1      26.041  22.613  19.516  1.00  0.00     0.137 C 
HETATM   19  C   LIG     1      25.189  22.086  20.674  1.00  0.00     0.048 C 
HETATM   20  C   LIG     1      26.474  23.481  23.703  1.00  0.00     0.044 A 
HETATM   21  C   LIG     1      25.364  22.776  24.209  1.00  0.00    -0.018 A 
HETATM   22  C   LIG     1      25.009  22.859  25.552  1.00  0.00     0.010 A 
HETATM   23  C   LIG     1      25.749  23.713  26.384  1.00  0.00     0.001 A 
HETATM   24  C   LIG     1      26.840  24.448  25.872  1.00  0.00     0.002 A 
HETATM   25  C   LIG     1      27.212  24.336  24.522  1.00  0.00     0.030 A 
ENDROOT
TORSDOF 0
ENDMDL
MODEL 6
REMARK VINA RESULT:      -5.6      1.835      4.176
REMARK  0 active torsions:
REMARK  status: ('A' for Active; 'I' for Inactive)
ROOT
HETATM    1  O   LIG     1      25.761  24.682  17.879  1.00  0.00    -0.273 OA
HETATM    2  C   LIG     1      26.184  24.356  19.020  1.00  0.00     0.227 C 
HETATM    3  C   LIG     1      27.538  24.879  19.536  1.00  0.00     0.135 C 
HETATM    4  N   LIG     1      25.441  23.439  19.848  1.00  0.00    -0.311 N 
HETATM    5  C   LIG     1      26.181  22.860  20.920  1.00  0.00     0.115 C 
HETATM    6  C   LIG     1      25.252  21.973  21.771  1.00  0.00     0.043 C 
HETATM    7  C   LIG     1      24.185  22.721  22.594  1.00  0.00     0.049 C 
HETATM    8  C   LIG     1      24.684  22.808  24.032  1.00  0.00     0.274 C 
HETATM    9  C   LIG     1      26.130  21.258  22.876  1.00  0.00     0.239 C 
HETATM   10  N   LIG     1      25.864  21.941  24.188  1.00  0.00     0.098 N 
HETATM   11  C   LIG     1      27.010  22.653  24.876  1.00  0.00     0.307 C 
HETATM   12  C   LIG     1      27.643  21.360  22.577  1.00  0.00     0.046 C 
HETATM   13  C   LIG     1      27.996  22.890  22.540  1.00  0.00     0.026 C 
HETATM   14  C   LIG     1      27.924  23.428  23.910  1.00  0.00    -0.049 C 
HETATM   15  C   LIG     1      28.287  24.725  24.110  1.00  0.00     0.004 C 
HETATM   16  C   LIG     1      28.751  25.731  23.015  1.00  0.00     0.196 C 
HETATM   17  O   LIG     1      28.830  25.280  21.647  1.00  0.00    -0.381 OA
HETATM   18  C   LIG     1      27.541  25.025  21.093  1.00  0.00     0.137 C 
HETATM   19  C   LIG     1      26.955  23.785  21.772  1.00  0.00     0.048 C 
HETATM   20  C   LIG     1      24.588  22.322  19.531  1.00  0.00     0.044 A 
HETATM   21  C   LIG     1      24.551  21.379  20.577  1.00  0.00    -0.018 A 
HETATM   22  C   LIG     1      23.798  20.212  20.471  1.00  0.00     0.010 A 
HETATM   23  C   LIG     1      23.122  19.966  19.265  1.00  0.00     0.001 A 
HETATM   24  C   LIG     1      23.186  20.892  18.202  1.00  0.00     0.002 A 
HETATM   25  C   LIG     1      23.923  22.082  18.328  1.00  0.00     0.030 A 
ENDROOT
TORSDOF 0
ENDMDL
MODEL 7
REMARK VINA RESULT:      -5.5      2.561      6.195
REMARK  0 active torsions:
REMARK  status: ('A' for Active; 'I' for Inactive)
ROOT
HETATM    1  O   LIG     1      29.228  21.996  16.227  1.00  0.00    -0.273 OA
HETATM    2  C   LIG     1      28.138  21.656  16.757  1.00  0.00     0.227 C 
HETATM    3  C   LIG     1      27.327  20.472  16.197  1.00  0.00     0.135 C 
HETATM    4  N   LIG     1      27.591  22.400  17.865  1.00  0.00    -0.311 N 
HETATM    5  C   LIG     1      26.208  22.164  18.125  1.00  0.00     0.115 C 
HETATM    6  C   LIG     1      25.777  22.950  19.378  1.00  0.00     0.043 C 
HETATM    7  C   LIG     1      26.360  22.449  20.714  1.00  0.00     0.049 C 
HETATM    8  C   LIG     1      25.284  21.620  21.407  1.00  0.00     0.274 C 
HETATM    9  C   LIG     1      24.217  22.759  19.566  1.00  0.00     0.239 C 
HETATM   10  N   LIG     1      24.006  21.797  20.700  1.00  0.00     0.098 N 
HETATM   11  C   LIG     1      23.326  20.475  20.408  1.00  0.00     0.307 C 
HETATM   12  C   LIG     1      23.545  22.173  18.303  1.00  0.00     0.046 C 
HETATM   13  C   LIG     1      24.213  20.776  18.040  1.00  0.00     0.026 C 
HETATM   14  C   LIG     1      23.771  19.833  19.082  1.00  0.00    -0.049 C 
HETATM   15  C   LIG     1      24.166  18.534  18.982  1.00  0.00     0.004 C 
HETATM   16  C   LIG     1      25.083  17.933  17.875  1.00  0.00     0.196 C 
HETATM   17  O   LIG     1      25.568  18.801  16.830  1.00  0.00    -0.381 OA
HETATM   18  C   LIG     1      26.513  19.750  17.320  1.00  0.00     0.137 C 
HETATM   19  C   LIG     1      25.776  20.755  18.210  1.00  0.00     0.048 C 
HETATM   20  C   LIG     1      27.656  23.794  18.220  1.00  0.00     0.044 A 
HETATM   21  C   LIG     1      26.548  24.188  18.997  1.00  0.00    -0.018 A 
HETATM   22  C   LIG     1      26.404  25.501  19.435  1.00  0.00     0.010 A 
HETATM   23  C   LIG     1      27.362  26.445  19.031  1.00  0.00     0.001 A 
HETATM   24  C   LIG     1      28.454  26.061  18.223  1.00  0.00     0.002 A 
HETATM   25  C   LIG     1      28.609  24.726  17.811  1.00  0.00     0.030 A 
ENDROOT
TORSDOF 0
ENDMDL
MODEL 8
REMARK VINA RESULT:      -5.5      2.202      5.920
REMARK  0 active torsions:
REMARK  status: ('A' for Active; 'I' for Inactive)
ROOT
HETATM    1  O   LIG     1      23.954  22.443  17.903  1.00  0.00    -0.273 OA
HETATM    2  C   LIG     1      24.126  22.129  19.110  1.00  0.00     0.227 C 
HETATM    3  C   LIG     1      23.052  21.333  19.876  1.00  0.00     0.135 C 
HETATM    4  N   LIG     1      25.305  22.554  19.822  1.00  0.00    -0.311 N 
HETATM    5  C   LIG     1      25.213  22.471  21.243  1.00  0.00     0.115 C 
HETATM    6  C   LIG     1      26.561  22.870  21.872  1.00  0.00     0.043 C 
HETATM    7  C   LIG     1      27.721  21.880  21.650  1.00  0.00     0.049 C 
HETATM    8  C   LIG     1      27.878  21.056  22.923  1.00  0.00     0.274 C 
HETATM    9  C   LIG     1      26.387  22.880  23.446  1.00  0.00     0.239 C 
HETATM   10  N   LIG     1      27.058  21.652  23.990  1.00  0.00     0.098 N 
HETATM   11  C   LIG     1      26.206  20.620  24.702  1.00  0.00     0.307 C 
HETATM   12  C   LIG     1      24.899  22.846  23.868  1.00  0.00     0.046 C 
HETATM   13  C   LIG     1      24.293  21.521  23.284  1.00  0.00     0.026 C 
HETATM   14  C   LIG     1      24.843  20.376  24.030  1.00  0.00    -0.049 C 
HETATM   15  C   LIG     1      24.371  19.132  23.739  1.00  0.00     0.004 C 
HETATM   16  C   LIG     1      23.309  18.781  22.655  1.00  0.00     0.196 C 
HETATM   17  O   LIG     1      22.737  19.850  21.872  1.00  0.00    -0.381 OA
HETATM   18  C   LIG     1      23.688  20.428  20.981  1.00  0.00     0.137 C 
HETATM   19  C   LIG     1      24.723  21.197  21.807  1.00  0.00     0.048 C 
HETATM   20  C   LIG     1      26.129  23.731  19.715  1.00  0.00     0.044 A 
HETATM   21  C   LIG     1      26.781  24.025  20.929  1.00  0.00    -0.018 A 
HETATM   22  C   LIG     1      27.614  25.134  21.051  1.00  0.00     0.010 A 
HETATM   23  C   LIG     1      27.743  25.991  19.947  1.00  0.00     0.001 A 
HETATM   24  C   LIG     1      27.064  25.719  18.741  1.00  0.00     0.002 A 
HETATM   25  C   LIG     1      26.248  24.581  18.616  1.00  0.00     0.030 A 
ENDROOT
TORSDOF 0
ENDMDL
MODEL 9
REMARK VINA RESULT:      -5.4      2.148      5.718
REMARK  0 active torsions:
REMARK  status: ('A' for Active; 'I' for Inactive)
ROOT
HETATM    1  O   LIG     1      29.101  25.325  22.662  1.00  0.00    -0.273 OA
HETATM    2  C   LIG     1      28.141  24.683  22.161  1.00  0.00     0.227 C 
HETATM    3  C   LIG     1      27.765  24.862  20.678  1.00  0.00     0.135 C 
HETATM    4  N   LIG     1      27.333  23.808  22.974  1.00  0.00    -0.311 N 
HETATM    5  C   LIG     1      26.078  23.443  22.403  1.00  0.00     0.115 C 
HETATM    6  C   LIG     1      25.360  22.444  23.330  1.00  0.00     0.043 C 
HETATM    7  C   LIG     1      25.996  21.043  23.423  1.00  0.00     0.049 C 
HETATM    8  C   LIG     1      25.191  20.108  22.527  1.00  0.00     0.274 C 
HETATM    9  C   LIG     1      23.926  22.154  22.724  1.00  0.00     0.239 C 
HETATM   10  N   LIG     1      23.960  20.790  22.097  1.00  0.00     0.098 N 
HETATM   11  C   LIG     1      23.736  20.678  20.603  1.00  0.00     0.307 C 
HETATM   12  C   LIG     1      23.535  23.179  21.634  1.00  0.00     0.046 C 
HETATM   13  C   LIG     1      24.614  23.066  20.498  1.00  0.00     0.026 C 
HETATM   14  C   LIG     1      24.427  21.787  19.790  1.00  0.00    -0.049 C 
HETATM   15  C   LIG     1      25.208  21.535  18.703  1.00  0.00     0.004 C 
HETATM   16  C   LIG     1      26.323  22.463  18.135  1.00  0.00     0.196 C 
HETATM   17  O   LIG     1      26.574  23.725  18.787  1.00  0.00    -0.381 OA
HETATM   18  C   LIG     1      27.153  23.554  20.079  1.00  0.00     0.137 C 
HETATM   19  C   LIG     1      26.096  22.953  21.010  1.00  0.00     0.048 C 
HETATM   20  C   LIG     1      26.947  23.858  24.361  1.00  0.00     0.044 A 
HETATM   21  C   LIG     1      25.732  23.182  24.590  1.00  0.00    -0.018 A 
HETATM   22  C   LIG     1      25.168  23.123  25.861  1.00  0.00     0.010 A 
HETATM   23  C   LIG     1      25.810  23.808  26.905  1.00  0.00     0.001 A 
HETATM   24  C   LIG     1      27.008  24.516  26.671  1.00  0.00     0.002 A 
HETATM   25  C   LIG     1      27.588  24.545  25.391  1.00  0.00     0.030 A 
ENDROOT
TORSDOF 0
ENDMDL
MODEL 10
REMARK VINA RESULT:      -5.3      2.453      5.947
REMARK  0 active torsions:
REMARK  status: ('A' for Active; 'I' for Inactive)
ROOT
HETATM    1  O   LIG     1      23.255  22.318  19.629  1.00  0.00    -0.273 OA
HETATM    2  C   LIG     1      23.707  22.183  20.797  1.00  0.00     0.227 C 
HETATM    3  C   LIG     1      22.810  21.655  21.932  1.00  0.00     0.135 C 
HETATM    4  N   LIG     1      25.058  22.574  21.114  1.00  0.00    -0.311 N 
HETATM    5  C   LIG     1      25.329  22.731  22.506  1.00  0.00     0.115 C 
HETATM    6  C   LIG     1      26.819  23.062  22.708  1.00  0.00     0.043 C 
HETATM    7  C   LIG     1      27.805  21.918  22.402  1.00  0.00     0.049 C 
HETATM    8  C   LIG     1      28.221  21.296  23.730  1.00  0.00     0.274 C 
HETATM    9  C   LIG     1      27.056  23.346  24.247  1.00  0.00     0.239 C 
HETATM   10  N   LIG     1      27.750  22.149  24.833  1.00  0.00     0.098 N 
HETATM   11  C   LIG     1      27.035  21.354  25.906  1.00  0.00     0.307 C 
HETATM   12  C   LIG     1      25.730  23.557  25.013  1.00  0.00     0.046 C 
HETATM   13  C   LIG     1      24.895  22.238  24.847  1.00  0.00     0.026 C 
HETATM   14  C   LIG     1      25.531  21.170  25.639  1.00  0.00    -0.049 C 
HETATM   15  C   LIG     1      24.907  19.961  25.705  1.00  0.00     0.004 C 
HETATM   16  C   LIG     1      23.579  19.570  24.992  1.00  0.00     0.196 C 
HETATM   17  O   LIG     1      22.907  20.560  24.185  1.00  0.00    -0.381 OA
HETATM   18  C   LIG     1      23.638  20.870  23.000  1.00  0.00     0.137 C 
HETATM   19  C   LIG     1      24.906  21.632  23.396  1.00  0.00     0.048 C 
HETATM   20  C   LIG     1      25.913  23.611  20.597  1.00  0.00     0.044 A 
HETATM   21  C   LIG     1      26.875  24.016  21.543  1.00  0.00    -0.018 A 
HETATM   22  C   LIG     1      27.793  25.022  21.254  1.00  0.00     0.010 A 
HETATM   23  C   LIG     1      27.699  25.670  20.012  1.00  0.00     0.001 A 
HETATM   24  C   LIG     1      26.713  25.291  19.075  1.00  0.00     0.002 A 
HETATM   25  C   LIG     1      25.809  24.253  19.363  1.00  0.00     0.030 A 
ENDROOT
TORSDOF 0
ENDMDL
MODEL 11
REMARK VINA RESULT:      -5.2     10.329     13.552
REMARK  0 active torsions:
REMARK  status: ('A' for Active; 'I' for Inactive)
ROOT
HETATM    1  O   LIG     1      30.215  32.050  31.648  1.00  0.00    -0.273 OA
HETATM    2  C   LIG     1      29.875  30.929  31.185  1.00  0.00     0.227 C 
HETATM    3  C   LIG     1      29.963  30.643  29.674  1.00  0.00     0.135 C 
HETATM    4  N   LIG     1      29.340  29.906  32.048  1.00  0.00    -0.311 N 
HETATM    5  C   LIG     1      28.651  28.852  31.379  1.00  0.00     0.115 C 
HETATM    6  C   LIG     1      28.210  27.790  32.403  1.00  0.00     0.043 C 
HETATM    7  C   LIG     1      29.345  26.965  33.041  1.00  0.00     0.049 C 
HETATM    8  C   LIG     1      29.394  25.617  32.330  1.00  0.00     0.274 C 
HETATM    9  C   LIG     1      27.349  26.700  31.643  1.00  0.00     0.239 C 
HETATM   10  N   LIG     1      28.202  25.474  31.478  1.00  0.00     0.098 N 
HETATM   11  C   LIG     1      28.552  25.022  30.076  1.00  0.00     0.307 C 
HETATM   12  C   LIG     1      26.913  27.177  30.239  1.00  0.00     0.046 C 
HETATM   13  C   LIG     1      28.226  27.463  29.428  1.00  0.00     0.026 C 
HETATM   14  C   LIG     1      28.884  26.181  29.119  1.00  0.00    -0.049 C 
HETATM   15  C   LIG     1      29.999  26.204  28.336  1.00  0.00     0.004 C 
HETATM   16  C   LIG     1      30.684  27.471  27.746  1.00  0.00     0.196 C 
HETATM   17  O   LIG     1      30.106  28.764  28.021  1.00  0.00    -0.381 OA
HETATM   18  C   LIG     1      30.246  29.132  29.392  1.00  0.00     0.137 C 
HETATM   19  C   LIG     1      29.341  28.227  30.232  1.00  0.00     0.048 C 
HETATM   20  C   LIG     1      28.548  29.969  33.250  1.00  0.00     0.044 A 
HETATM   21  C   LIG     1      27.774  28.805  33.428  1.00  0.00    -0.018 A 
HETATM   22  C   LIG     1      26.921  28.666  34.519  1.00  0.00     0.010 A 
HETATM   23  C   LIG     1      26.802  29.743  35.411  1.00  0.00     0.001 A 
HETATM   24  C   LIG     1      27.549  30.925  35.216  1.00  0.00     0.002 A 
HETATM   25  C   LIG     1      28.432  31.046  34.129  1.00  0.00     0.030 A 
ENDROOT
TORSDOF 0
ENDMDL
MODEL 12
REMARK VINA RESULT:      -5.1      4.298      6.348
REMARK  0 active torsions:
REMARK  status: ('A' for Active; 'I' for Inactive)
ROOT
HETATM    1  O   LIG     1      22.173  19.557  25.233  1.00  0.00    -0.273 OA
HETATM    2  C   LIG     1      23.114  20.278  25.657  1.00  0.00     0.227 C 
HETATM    3  C   LIG     1      23.293  20.531  27.166  1.00  0.00     0.135 C 
HETATM    4  N   LIG     1      24.014  20.932  24.740  1.00  0.00    -0.311 N 
HETATM    5  C   LIG     1      24.779  21.997  25.301  1.00  0.00     0.115 C 
HETATM    6  C   LIG     1      25.754  22.547  24.244  1.00  0.00     0.043 C 
HETATM    7  C   LIG     1      26.910  21.606  23.848  1.00  0.00     0.049 C 
HETATM    8  C   LIG     1      28.158  22.067  24.593  1.00  0.00     0.274 C 
HETATM    9  C   LIG     1      26.499  23.798  24.863  1.00  0.00     0.239 C 
HETATM   10  N   LIG     1      27.896  23.374  25.216  1.00  0.00     0.098 N 
HETATM   11  C   LIG     1      28.315  23.409  26.672  1.00  0.00     0.307 C 
HETATM   12  C   LIG     1      25.809  24.309  26.150  1.00  0.00     0.046 C 
HETATM   13  C   LIG     1      25.836  23.124  27.180  1.00  0.00     0.026 C 
HETATM   14  C   LIG     1      27.222  22.924  27.640  1.00  0.00    -0.049 C 
HETATM   15  C   LIG     1      27.448  21.997  28.613  1.00  0.00     0.004 C 
HETATM   16  C   LIG     1      26.378  21.085  29.283  1.00  0.00     0.196 C 
HETATM   17  O   LIG     1      25.001  21.213  28.870  1.00  0.00    -0.381 OA
HETATM   18  C   LIG     1      24.796  20.746  27.538  1.00  0.00     0.137 C 
HETATM   19  C   LIG     1      25.478  21.718  26.572  1.00  0.00     0.048 C 
HETATM   20  C   LIG     1      23.829  21.460  23.412  1.00  0.00     0.044 A 
HETATM   21  C   LIG     1      24.742  22.494  23.128  1.00  0.00    -0.018 A 
HETATM   22  C   LIG     1      24.725  23.156  21.904  1.00  0.00     0.010 A 
HETATM   23  C   LIG     1      23.732  22.808  20.975  1.00  0.00     0.001 A 
HETATM   24  C   LIG     1      22.793  21.797  21.270  1.00  0.00     0.002 A 
HETATM   25  C   LIG     1      22.835  21.112  22.497  1.00  0.00     0.030 A 
ENDROOT
TORSDOF 0
ENDMDL
MODEL 13
REMARK VINA RESULT:      -5.1      2.386      5.136
REMARK  0 active torsions:
REMARK  status: ('A' for Active; 'I' for Inactive)
ROOT
HETATM    1  O   LIG     1      25.071  23.339  18.249  1.00  0.00    -0.273 OA
HETATM    2  C   LIG     1      25.325  22.851  19.382  1.00  0.00     0.227 C 
HETATM    3  C   LIG     1      26.601  23.256  20.144  1.00  0.00     0.135 C 
HETATM    4  N   LIG     1      24.459  21.859  19.970  1.00  0.00    -0.311 N 
HETATM    5  C   LIG     1      25.033  21.120  21.046  1.00  0.00     0.115 C 
HETATM    6  C   LIG     1      23.980  20.161  21.634  1.00  0.00     0.043 C 
HETATM    7  C   LIG     1      22.820  20.831  22.396  1.00  0.00     0.049 C 
HETATM    8  C   LIG     1      23.114  20.710  23.887  1.00  0.00     0.274 C 
HETATM    9  C   LIG     1      24.683  19.277  22.742  1.00  0.00     0.239 C 
HETATM   10  N   LIG     1      24.247  19.791  24.085  1.00  0.00     0.098 N 
HETATM   11  C   LIG     1      25.296  20.367  25.013  1.00  0.00     0.307 C 
HETATM   12  C   LIG     1      26.225  19.367  22.669  1.00  0.00     0.046 C 
HETATM   13  C   LIG     1      26.603  20.875  22.887  1.00  0.00     0.026 C 
HETATM   14  C   LIG     1      26.348  21.231  24.294  1.00  0.00    -0.049 C 
HETATM   15  C   LIG     1      26.700  22.478  24.715  1.00  0.00     0.004 C 
HETATM   16  C   LIG     1      27.328  23.602  23.840  1.00  0.00     0.196 C 
HETATM   17  O   LIG     1      27.591  23.332  22.447  1.00  0.00    -0.381 OA
HETATM   18  C   LIG     1      26.388  23.197  21.692  1.00  0.00     0.137 C 
HETATM   19  C   LIG     1      25.694  21.898  22.112  1.00  0.00     0.048 C 
HETATM   20  C   LIG     1      23.642  20.823  19.391  1.00  0.00     0.044 A 
HETATM   21  C   LIG     1      23.444  19.753  20.286  1.00  0.00    -0.018 A 
HETATM   22  C   LIG     1      22.696  18.637  19.922  1.00  0.00     0.010 A 
HETATM   23  C   LIG     1      22.191  18.574  18.613  1.00  0.00     0.001 A 
HETATM   24  C   LIG     1      22.417  19.629  17.703  1.00  0.00     0.002 A 
HETATM   25  C   LIG     1      23.148  20.767  18.088  1.00  0.00     0.030 A 
ENDROOT
TORSDOF 0
ENDMDL
MODEL 14
REMARK VINA RESULT:      -5.0      2.498      4.843
REMARK  0 active torsions:
REMARK  status: ('A' for Active; 'I' for Inactive)
ROOT
HETATM    1  O   LIG     1      22.852  22.044  20.064  1.00  0.00    -0.273 OA
HETATM    2  C   LIG     1      23.945  22.359  20.604  1.00  0.00     0.227 C 
HETATM    3  C   LIG     1      25.093  22.953  19.767  1.00  0.00     0.135 C 
HETATM    4  N   LIG     1      24.171  22.118  22.008  1.00  0.00    -0.311 N 
HETATM    5  C   LIG     1      25.538  22.158  22.414  1.00  0.00     0.115 C 
HETATM    6  C   LIG     1      25.630  21.972  23.940  1.00  0.00     0.043 C 
HETATM    7  C   LIG     1      25.095  23.143  24.788  1.00  0.00     0.049 C 
HETATM    8  C   LIG     1      26.294  23.957  25.262  1.00  0.00     0.274 C 
HETATM    9  C   LIG     1      27.160  21.903  24.336  1.00  0.00     0.239 C 
HETATM   10  N   LIG     1      27.531  23.215  24.969  1.00  0.00     0.098 N 
HETATM   11  C   LIG     1      28.568  24.079  24.283  1.00  0.00     0.307 C 
HETATM   12  C   LIG     1      28.073  21.686  23.107  1.00  0.00     0.046 C 
HETATM   13  C   LIG     1      27.837  22.905  22.146  1.00  0.00     0.026 C 
HETATM   14  C   LIG     1      28.431  24.110  22.751  1.00  0.00    -0.049 C 
HETATM   15  C   LIG     1      28.416  25.265  22.029  1.00  0.00     0.004 C 
HETATM   16  C   LIG     1      27.797  25.458  20.613  1.00  0.00     0.196 C 
HETATM   17  O   LIG     1      27.182  24.326  19.965  1.00  0.00    -0.381 OA
HETATM   18  C   LIG     1      25.975  23.928  20.613  1.00  0.00     0.137 C 
HETATM   19  C   LIG     1      26.331  23.323  21.974  1.00  0.00     0.048 C 
HETATM   20  C   LIG     1      23.697  21.094  22.903  1.00  0.00     0.044 A 
HETATM   21  C   LIG     1      24.584  20.887  23.978  1.00  0.00    -0.018 A 
HETATM   22  C   LIG     1      24.326  19.928  24.953  1.00  0.00     0.010 A 
HETATM   23  C   LIG     1      23.184  19.125  24.808  1.00  0.00     0.001 A 
HETATM   24  C   LIG     1      22.311  19.305  23.713  1.00  0.00     0.002 A 
HETATM   25  C   LIG     1      22.563  20.297  22.749  1.00  0.00     0.030 A 
ENDROOT
TORSDOF 0
ENDMDL
MODEL 15
REMARK VINA RESULT:      -4.9     12.021     15.269
REMARK  0 active torsions:
REMARK  status: ('A' for Active; 'I' for Inactive)
ROOT
HETATM    1  O   LIG     1      30.017  31.822  33.080  1.00  0.00    -0.273 OA
HETATM    2  C   LIG     1      29.546  30.690  32.795  1.00  0.00     0.227 C 
HETATM    3  C   LIG     1      29.527  30.190  31.338  1.00  0.00     0.135 C 
HETATM    4  N   LIG     1      28.960  29.856  33.815  1.00  0.00    -0.311 N 
HETATM    5  C   LIG     1      28.137  28.797  33.329  1.00  0.00     0.115 C 
HETATM    6  C   LIG     1      27.648  27.938  34.510  1.00  0.00     0.043 C 
HETATM    7  C   LIG     1      28.729  27.096  35.216  1.00  0.00     0.049 C 
HETATM    8  C   LIG     1      28.610  25.665  34.704  1.00  0.00     0.274 C 
HETATM    9  C   LIG     1      26.648  26.849  33.946  1.00  0.00     0.239 C 
HETATM   10  N   LIG     1      27.368  25.530  33.926  1.00  0.00     0.098 N 
HETATM   11  C   LIG     1      27.599  24.855  32.590  1.00  0.00     0.307 C 
HETATM   12  C   LIG     1      26.187  27.170  32.505  1.00  0.00     0.046 C 
HETATM   13  C   LIG     1      27.479  27.204  31.613  1.00  0.00     0.026 C 
HETATM   14  C   LIG     1      27.992  25.830  31.466  1.00  0.00    -0.049 C 
HETATM   15  C   LIG     1      29.062  25.628  30.647  1.00  0.00     0.004 C 
HETATM   16  C   LIG     1      29.837  26.724  29.857  1.00  0.00     0.196 C 
HETATM   17  O   LIG     1      29.402  28.095  29.966  1.00  0.00    -0.381 OA
HETATM   18  C   LIG     1      29.647  28.633  31.264  1.00  0.00     0.137 C 
HETATM   19  C   LIG     1      28.703  27.951  32.258  1.00  0.00     0.048 C 
HETATM   20  C   LIG     1      28.240  30.167  35.024  1.00  0.00     0.044 A 
HETATM   21  C   LIG     1      27.367  29.125  35.395  1.00  0.00    -0.018 A 
HETATM   22  C   LIG     1      26.561  29.227  36.525  1.00  0.00     0.010 A 
HETATM   23  C   LIG     1      26.594  30.424  37.259  1.00  0.00     0.001 A 
HETATM   24  C   LIG     1      27.442  31.483  36.869  1.00  0.00     0.002 A 
HETATM   25  C   LIG     1      28.275  31.361  35.744  1.00  0.00     0.030 A 
ENDROOT
TORSDOF 0
ENDMDL
MODEL 16
REMARK VINA RESULT:      -4.9      7.783     11.143
REMARK  0 active torsions:
REMARK  status: ('A' for Active; 'I' for Inactive)
ROOT
HETATM    1  O   LIG     1      30.260  29.763  29.910  1.00  0.00    -0.273 OA
HETATM    2  C   LIG     1      29.834  28.709  29.369  1.00  0.00     0.227 C 
HETATM    3  C   LIG     1      29.936  28.509  27.846  1.00  0.00     0.135 C 
HETATM    4  N   LIG     1      29.189  27.686  30.154  1.00  0.00    -0.311 N 
HETATM    5  C   LIG     1      28.427  26.742  29.405  1.00  0.00     0.115 C 
HETATM    6  C   LIG     1      27.867  25.662  30.350  1.00  0.00     0.043 C 
HETATM    7  C   LIG     1      28.907  24.701  30.957  1.00  0.00     0.049 C 
HETATM    8  C   LIG     1      28.856  23.400  30.163  1.00  0.00     0.274 C 
HETATM    9  C   LIG     1      26.934  24.703  29.505  1.00  0.00     0.239 C 
HETATM   10  N   LIG     1      27.679  23.418  29.280  1.00  0.00     0.098 N 
HETATM   11  C   LIG     1      28.024  23.024  27.859  1.00  0.00     0.307 C 
HETATM   12  C   LIG     1      26.578  25.303  28.125  1.00  0.00     0.046 C 
HETATM   13  C   LIG     1      27.932  25.520  27.361  1.00  0.00     0.026 C 
HETATM   14  C   LIG     1      28.482  24.205  26.984  1.00  0.00    -0.049 C 
HETATM   15  C   LIG     1      29.614  24.175  26.228  1.00  0.00     0.004 C 
HETATM   16  C   LIG     1      30.425  25.410  25.734  1.00  0.00     0.196 C 
HETATM   17  O   LIG     1      29.956  26.731  26.079  1.00  0.00    -0.381 OA
HETATM   18  C   LIG     1      30.091  26.999  27.473  1.00  0.00     0.137 C 
HETATM   19  C   LIG     1      29.088  26.129  28.235  1.00  0.00     0.048 C 
HETATM   20  C   LIG     1      28.374  27.746  31.341  1.00  0.00     0.044 A 
HETATM   21  C   LIG     1      27.496  26.648  31.428  1.00  0.00    -0.018 A 
HETATM   22  C   LIG     1      26.605  26.518  32.490  1.00  0.00     0.010 A 
HETATM   23  C   LIG     1      26.559  27.545  33.447  1.00  0.00     0.001 A 
HETATM   24  C   LIG     1      27.413  28.664  33.343  1.00  0.00     0.002 A 
HETATM   25  C   LIG     1      28.331  28.773  32.284  1.00  0.00     0.030 A 
ENDROOT
TORSDOF 0
ENDMDL
MODEL 17
REMARK VINA RESULT:      -4.9      2.430      4.571
REMARK  0 active torsions:
REMARK  status: ('A' for Active; 'I' for Inactive)
ROOT
HETATM    1  O   LIG     1      24.268  22.099  22.302  1.00  0.00    -0.273 OA
HETATM    2  C   LIG     1      25.240  22.659  22.873  1.00  0.00     0.227 C 
HETATM    3  C   LIG     1      25.218  22.918  24.391  1.00  0.00     0.135 C 
HETATM    4  N   LIG     1      26.373  23.125  22.113  1.00  0.00    -0.311 N 
HETATM    5  C   LIG     1      27.211  24.058  22.792  1.00  0.00     0.115 C 
HETATM    6  C   LIG     1      28.422  24.405  21.905  1.00  0.00     0.043 C 
HETATM    7  C   LIG     1      29.446  23.272  21.700  1.00  0.00     0.049 C 
HETATM    8  C   LIG     1      30.621  23.532  22.636  1.00  0.00     0.274 C 
HETATM    9  C   LIG     1      29.264  25.528  22.638  1.00  0.00     0.239 C 
HETATM   10  N   LIG     1      30.493  24.881  23.211  1.00  0.00     0.098 N 
HETATM   11  C   LIG     1      30.675  24.883  24.714  1.00  0.00     0.307 C 
HETATM   12  C   LIG     1      28.478  26.183  23.798  1.00  0.00     0.046 C 
HETATM   13  C   LIG     1      28.136  25.038  24.817  1.00  0.00     0.026 C 
HETATM   14  C   LIG     1      29.375  24.617  25.494  1.00  0.00    -0.049 C 
HETATM   15  C   LIG     1      29.281  23.692  26.489  1.00  0.00     0.004 C 
HETATM   16  C   LIG     1      27.977  22.994  26.977  1.00  0.00     0.196 C 
HETATM   17  O   LIG     1      26.726  23.344  26.349  1.00  0.00    -0.381 OA
HETATM   18  C   LIG     1      26.657  22.883  25.001  1.00  0.00     0.137 C 
HETATM   19  C   LIG     1      27.642  23.699  24.158  1.00  0.00     0.048 C 
HETATM   20  C   LIG     1      26.495  23.641  20.774  1.00  0.00     0.044 A 
HETATM   21  C   LIG     1      27.606  24.497  20.642  1.00  0.00    -0.018 A 
HETATM   22  C   LIG     1      27.898  25.119  19.431  1.00  0.00     0.010 A 
HETATM   23  C   LIG     1      27.020  24.921  18.354  1.00  0.00     0.001 A 
HETATM   24  C   LIG     1      25.885  24.093  18.493  1.00  0.00     0.002 A 
HETATM   25  C   LIG     1      25.614  23.444  19.710  1.00  0.00     0.030 A 
ENDROOT
TORSDOF 0
ENDMDL
MODEL 18
REMARK VINA RESULT:      -4.8      2.149      3.868
REMARK  0 active torsions:
REMARK  status: ('A' for Active; 'I' for Inactive)
ROOT
HETATM    1  O   LIG     1      28.487  25.302  25.087  1.00  0.00    -0.273 OA
HETATM    2  C   LIG     1      28.228  25.074  23.876  1.00  0.00     0.227 C 
HETATM    3  C   LIG     1      28.687  26.049  22.776  1.00  0.00     0.135 C 
HETATM    4  N   LIG     1      27.446  23.924  23.492  1.00  0.00    -0.311 N 
HETATM    5  C   LIG     1      26.906  23.976  22.173  1.00  0.00     0.115 C 
HETATM    6  C   LIG     1      26.172  22.658  21.864  1.00  0.00     0.043 C 
HETATM    7  C   LIG     1      27.069  21.414  21.706  1.00  0.00     0.049 C 
HETATM    8  C   LIG     1      27.240  21.152  20.214  1.00  0.00     0.274 C 
HETATM    9  C   LIG     1      25.488  22.797  20.443  1.00  0.00     0.239 C 
HETATM   10  N   LIG     1      26.301  22.000  19.462  1.00  0.00     0.098 N 
HETATM   11  C   LIG     1      26.978  22.734  18.323  1.00  0.00     0.307 C 
HETATM   12  C   LIG     1      25.446  24.264  19.957  1.00  0.00     0.046 C 
HETATM   13  C   LIG     1      26.935  24.756  19.870  1.00  0.00     0.026 C 
HETATM   14  C   LIG     1      27.594  24.082  18.736  1.00  0.00    -0.049 C 
HETATM   15  C   LIG     1      28.871  24.442  18.431  1.00  0.00     0.004 C 
HETATM   16  C   LIG     1      29.740  25.490  19.187  1.00  0.00     0.196 C 
HETATM   17  O   LIG     1      29.167  26.178  20.319  1.00  0.00    -0.381 OA
HETATM   18  C   LIG     1      28.967  25.306  21.429  1.00  0.00     0.137 C 
HETATM   19  C   LIG     1      27.839  24.330  21.084  1.00  0.00     0.048 C 
HETATM   20  C   LIG     1      26.376  23.218  24.149  1.00  0.00     0.044 A 
HETATM   21  C   LIG     1      25.533  22.570  23.226  1.00  0.00    -0.018 A 
HETATM   22  C   LIG     1      24.424  21.842  23.648  1.00  0.00     0.010 A 
HETATM   23  C   LIG     1      24.128  21.820  25.020  1.00  0.00     0.001 A 
HETATM   24  C   LIG     1      24.950  22.498  25.945  1.00  0.00     0.002 A 
HETATM   25  C   LIG     1      26.086  23.205  25.514  1.00  0.00     0.030 A 
ENDROOT
TORSDOF 0
ENDMDL
MODEL 19
REMARK VINA RESULT:      -4.8      3.505      7.341
REMARK  0 active torsions:
REMARK  status: ('A' for Active; 'I' for Inactive)
ROOT
HETATM    1  O   LIG     1      25.611  22.712  21.412  1.00  0.00    -0.273 OA
HETATM    2  C   LIG     1      25.658  22.793  22.668  1.00  0.00     0.227 C 
HETATM    3  C   LIG     1      24.441  22.401  23.527  1.00  0.00     0.135 C 
HETATM    4  N   LIG     1      26.830  23.309  23.331  1.00  0.00    -0.311 N 
HETATM    5  C   LIG     1      26.630  23.703  24.687  1.00  0.00     0.115 C 
HETATM    6  C   LIG     1      27.972  24.151  25.297  1.00  0.00     0.043 C 
HETATM    7  C   LIG     1      29.008  23.033  25.524  1.00  0.00     0.049 C 
HETATM    8  C   LIG     1      28.970  22.657  27.001  1.00  0.00     0.274 C 
HETATM    9  C   LIG     1      27.692  24.690  26.759  1.00  0.00     0.239 C 
HETATM   10  N   LIG     1      28.161  23.647  27.732  1.00  0.00     0.098 N 
HETATM   11  C   LIG     1      27.138  22.993  28.638  1.00  0.00     0.307 C 
HETATM   12  C   LIG     1      26.187  24.943  27.010  1.00  0.00     0.046 C 
HETATM   13  C   LIG     1      25.457  23.566  26.813  1.00  0.00     0.026 C 
HETATM   14  C   LIG     1      25.805  22.679  27.937  1.00  0.00    -0.049 C 
HETATM   15  C   LIG     1      25.198  21.461  28.004  1.00  0.00     0.004 C 
HETATM   16  C   LIG     1      24.177  20.882  26.981  1.00  0.00     0.196 C 
HETATM   17  O   LIG     1      23.802  21.689  25.844  1.00  0.00    -0.381 OA
HETATM   18  C   LIG     1      24.878  21.848  24.922  1.00  0.00     0.137 C 
HETATM   19  C   LIG     1      25.944  22.738  25.568  1.00  0.00     0.048 C 
HETATM   20  C   LIG     1      27.802  24.299  22.946  1.00  0.00     0.044 A 
HETATM   21  C   LIG     1      28.401  24.907  24.067  1.00  0.00    -0.018 A 
HETATM   22  C   LIG     1      29.359  25.907  23.920  1.00  0.00     0.010 A 
HETATM   23  C   LIG     1      29.673  26.340  22.622  1.00  0.00     0.001 A 
HETATM   24  C   LIG     1      29.049  25.758  21.498  1.00  0.00     0.002 A 
HETATM   25  C   LIG     1      28.105  24.728  21.653  1.00  0.00     0.030 A 
ENDROOT
TORSDOF 0
ENDMDL
MODEL 20
REMARK VINA RESULT:      -4.7      2.471      4.873
REMARK  0 active torsions:
REMARK  status: ('A' for Active; 'I' for Inactive)
ROOT
HETATM    1  O   LIG     1      26.710  23.106  24.070  1.00  0.00    -0.273 OA
HETATM    2  C   LIG     1      26.332  22.742  22.926  1.00  0.00     0.227 C 
HETATM    3  C   LIG     1      26.694  23.569  21.678  1.00  0.00     0.135 C 
HETATM    4  N   LIG     1      25.503  21.574  22.759  1.00  0.00    -0.311 N 
HETATM    5  C   LIG     1      24.838  21.482  21.501  1.00  0.00     0.115 C 
HETATM    6  C   LIG     1      24.061  20.154  21.423  1.00  0.00     0.043 C 
HETATM    7  C   LIG     1      24.924  18.880  21.332  1.00  0.00     0.049 C 
HETATM    8  C   LIG     1      24.945  18.438  19.873  1.00  0.00     0.274 C 
HETATM    9  C   LIG     1      23.245  20.140  20.068  1.00  0.00     0.239 C 
HETATM   10  N   LIG     1      23.948  19.213  19.117  1.00  0.00     0.098 N 
HETATM   11  C   LIG     1      24.521  19.790  17.839  1.00  0.00     0.307 C 
HETATM   12  C   LIG     1      23.174  21.539  19.414  1.00  0.00     0.046 C 
HETATM   13  C   LIG     1      24.653  21.982  19.128  1.00  0.00     0.026 C 
HETATM   14  C   LIG     1      25.190  21.163  18.027  1.00  0.00    -0.049 C 
HETATM   15  C   LIG     1      26.436  21.453  17.560  1.00  0.00     0.004 C 
HETATM   16  C   LIG     1      27.386  22.563  18.099  1.00  0.00     0.196 C 
HETATM   17  O   LIG     1      26.935  23.394  19.188  1.00  0.00    -0.381 OA
HETATM   18  C   LIG     1      26.833  22.665  20.410  1.00  0.00     0.137 C 
HETATM   19  C   LIG     1      25.665  21.682  20.294  1.00  0.00     0.048 C 
HETATM   20  C   LIG     1      24.493  20.977  23.595  1.00  0.00     0.044 A 
HETATM   21  C   LIG     1      23.556  20.244  22.841  1.00  0.00    -0.018 A 
HETATM   22  C   LIG     1      22.485  19.598  23.451  1.00  0.00     0.010 A 
HETATM   23  C   LIG     1      22.323  19.746  24.838  1.00  0.00     0.001 A 
HETATM   24  C   LIG     1      23.240  20.509  25.592  1.00  0.00     0.002 A 
HETATM   25  C   LIG     1      24.337  21.132  24.973  1.00  0.00     0.030 A 
ENDROOT
TORSDOF 0
ENDMDL
