MODEL 1
REMARK VINA RESULT:      -6.6      0.000      0.000
REMARK  2 active torsions:
REMARK  status: ('A' for Active; 'I' for Inactive)
REMARK    1  A    between atoms: C_3  and  C_4 
REMARK    2  A    between atoms: C_3  and  C_6 
ROOT
HETATM    1  O   LIG     1      15.310  37.746  23.672  1.00  0.00    -0.272 OA
HETATM    2  C   LIG     1      16.277  37.647  22.868  1.00  0.00     0.243 C 
HETATM    3  C   LIG     1      16.423  36.393  22.007  1.00  0.00     0.121 C 
HETATM    4  C   LIG     1      17.371  36.629  20.832  1.00  0.00     0.243 C 
HETATM    5  N   LIG     1      18.224  37.776  20.764  1.00  0.00    -0.278 N 
HETATM    6  O   LIG     1      17.452  35.763  19.918  1.00  0.00    -0.272 OA
HETATM    7  N   LIG     1      17.233  38.708  22.819  1.00  0.00    -0.278 N 
HETATM    8  C   LIG     1      18.198  38.779  21.774  1.00  0.00     0.329 C 
HETATM    9  O   LIG     1      19.013  39.737  21.734  1.00  0.00    -0.247 OA
HETATM   10  H   LIG     1      18.896  37.869  19.970  1.00  0.00     0.173 HD
HETATM   11  H   LIG     1      17.178  39.483  23.517  1.00  0.00     0.173 HD
ENDROOT
BRANCH   3  12
HETATM   12  C   LIG     1      17.058  35.249  22.854  1.00  0.00     0.024 C 
HETATM   13  C   LIG     1      17.185  35.520  24.358  1.00  0.00     0.007 C 
ENDBRANCH   3  12
BRANCH   3  14
HETATM   14  C   LIG     1      15.028  35.962  21.456  1.00  0.00     0.024 C 
HETATM   15  C   LIG     1      14.828  34.442  21.394  1.00  0.00     0.007 C 
ENDBRANCH   3  14
TORSDOF 2
ENDMDL
MODEL 2
REMARK VINA RESULT:      -6.2      2.032      3.316
REMARK  2 active torsions:
REMARK  status: ('A' for Active; 'I' for Inactive)
REMARK    1  A    between atoms: C_3  and  C_4 
REMARK    2  A    between atoms: C_3  and  C_6 
ROOT
HETATM    1  O   LIG     1      17.188  34.547  22.917  1.00  0.00    -0.272 OA
HETATM    2  C   LIG     1      17.074  35.751  23.276  1.00  0.00     0.243 C 
HETATM    3  C   LIG     1      16.478  36.777  22.314  1.00  0.00     0.121 C 
HETATM    4  C   LIG     1      16.040  38.044  23.048  1.00  0.00     0.243 C 
HETATM    5  N   LIG     1      16.439  38.316  24.396  1.00  0.00    -0.278 N 
HETATM    6  O   LIG     1      15.353  38.908  22.438  1.00  0.00    -0.272 OA
HETATM    7  N   LIG     1      17.549  36.123  24.572  1.00  0.00    -0.278 N 
HETATM    8  C   LIG     1      17.232  37.392  25.133  1.00  0.00     0.329 C 
HETATM    9  O   LIG     1      17.638  37.689  26.287  1.00  0.00    -0.247 OA
HETATM   10  H   LIG     1      16.163  39.220  24.840  1.00  0.00     0.173 HD
HETATM   11  H   LIG     1      18.075  35.426  25.146  1.00  0.00     0.173 HD
ENDROOT
BRANCH   3  12
HETATM   12  C   LIG     1      17.563  37.224  21.288  1.00  0.00     0.024 C 
HETATM   13  C   LIG     1      18.311  38.519  21.624  1.00  0.00     0.007 C 
ENDBRANCH   3  12
BRANCH   3  14
HETATM   14  C   LIG     1      15.244  36.163  21.581  1.00  0.00     0.024 C 
HETATM   15  C   LIG     1      15.600  35.414  20.290  1.00  0.00     0.007 C 
ENDBRANCH   3  14
TORSDOF 2
ENDMDL
MODEL 3
REMARK VINA RESULT:      -5.8      1.726      3.507
REMARK  2 active torsions:
REMARK  status: ('A' for Active; 'I' for Inactive)
REMARK    1  A    between atoms: C_3  and  C_4 
REMARK    2  A    between atoms: C_3  and  C_6 
ROOT
HETATM    1  O   LIG     1      17.164  35.259  23.319  1.00  0.00    -0.272 OA
HETATM    2  C   LIG     1      17.394  36.170  22.477  1.00  0.00     0.243 C 
HETATM    3  C   LIG     1      17.400  37.631  22.921  1.00  0.00     0.121 C 
HETATM    4  C   LIG     1      18.094  38.525  21.895  1.00  0.00     0.243 C 
HETATM    5  N   LIG     1      18.399  38.067  20.573  1.00  0.00    -0.278 N 
HETATM    6  O   LIG     1      18.358  39.722  22.193  1.00  0.00    -0.272 OA
HETATM    7  N   LIG     1      17.603  35.798  21.112  1.00  0.00    -0.278 N 
HETATM    8  C   LIG     1      18.106  36.734  20.166  1.00  0.00     0.329 C 
HETATM    9  O   LIG     1      18.310  36.379  18.976  1.00  0.00    -0.247 OA
HETATM   10  H   LIG     1      18.823  38.729  19.886  1.00  0.00     0.173 HD
HETATM   11  H   LIG     1      17.455  34.806  20.821  1.00  0.00     0.173 HD
ENDROOT
BRANCH   3  12
HETATM   12  C   LIG     1      15.935  38.151  23.030  1.00  0.00     0.024 C 
HETATM   13  C   LIG     1      14.861  37.268  22.384  1.00  0.00     0.007 C 
ENDBRANCH   3  12
BRANCH   3  14
HETATM   14  C   LIG     1      18.136  37.766  24.291  1.00  0.00     0.024 C 
HETATM   15  C   LIG     1      17.202  38.075  25.469  1.00  0.00     0.007 C 
ENDBRANCH   3  14
TORSDOF 2
ENDMDL
MODEL 4
REMARK VINA RESULT:      -5.8      0.607      3.056
REMARK  2 active torsions:
REMARK  status: ('A' for Active; 'I' for Inactive)
REMARK    1  A    between atoms: C_3  and  C_4 
REMARK    2  A    between atoms: C_3  and  C_6 
ROOT
HETATM    1  O   LIG     1      17.881  35.516  20.628  1.00  0.00    -0.272 OA
HETATM    2  C   LIG     1      17.608  36.579  21.250  1.00  0.00     0.243 C 
HETATM    3  C   LIG     1      16.597  36.549  22.396  1.00  0.00     0.121 C 
HETATM    4  C   LIG     1      16.711  37.793  23.275  1.00  0.00     0.243 C 
HETATM    5  N   LIG     1      17.454  38.946  22.865  1.00  0.00    -0.278 N 
HETATM    6  O   LIG     1      16.088  37.837  24.371  1.00  0.00    -0.272 OA
HETATM    7  N   LIG     1      18.231  37.795  20.830  1.00  0.00    -0.278 N 
HETATM    8  C   LIG     1      18.162  38.969  21.630  1.00  0.00     0.329 C 
HETATM    9  O   LIG     1      18.741  40.022  21.255  1.00  0.00    -0.247 OA
HETATM   10  H   LIG     1      17.459  39.795  23.473  1.00  0.00     0.173 HD
HETATM   11  H   LIG     1      18.808  37.802  19.959  1.00  0.00     0.173 HD
ENDROOT
BRANCH   3  12
HETATM   12  C   LIG     1      15.150  36.557  21.816  1.00  0.00     0.024 C 
HETATM   13  C   LIG     1      14.649  35.225  21.245  1.00  0.00     0.007 C 
ENDBRANCH   3  12
BRANCH   3  14
HETATM   14  C   LIG     1      16.831  35.281  23.276  1.00  0.00     0.024 C 
HETATM   15  C   LIG     1      17.470  35.582  24.639  1.00  0.00     0.007 C 
ENDBRANCH   3  14
TORSDOF 2
ENDMDL
MODEL 5
REMARK VINA RESULT:      -5.7      2.587      4.325
REMARK  2 active torsions:
REMARK  status: ('A' for Active; 'I' for Inactive)
REMARK    1  A    between atoms: C_3  and  C_4 
REMARK    2  A    between atoms: C_3  and  C_6 
ROOT
HETATM    1  O   LIG     1      16.310  35.107  22.268  1.00  0.00    -0.272 OA
HETATM    2  C   LIG     1      16.809  35.657  23.288  1.00  0.00     0.243 C 
HETATM    3  C   LIG     1      16.831  37.180  23.395  1.00  0.00     0.121 C 
HETATM    4  C   LIG     1      17.073  37.637  24.834  1.00  0.00     0.243 C 
HETATM    5  N   LIG     1      17.524  36.735  25.850  1.00  0.00    -0.278 N 
HETATM    6  O   LIG     1      16.928  38.854  25.130  1.00  0.00    -0.272 OA
HETATM    7  N   LIG     1      17.377  34.823  24.301  1.00  0.00    -0.278 N 
HETATM    8  C   LIG     1      17.728  35.353  25.575  1.00  0.00     0.329 C 
HETATM    9  O   LIG     1      18.202  34.596  26.463  1.00  0.00    -0.247 OA
HETATM   10  H   LIG     1      17.730  37.101  26.806  1.00  0.00     0.173 HD
HETATM   11  H   LIG     1      17.468  33.797  24.131  1.00  0.00     0.173 HD
ENDROOT
BRANCH   3  12
HETATM   12  C   LIG     1      18.016  37.746  22.556  1.00  0.00     0.024 C 
HETATM   13  C   LIG     1      18.049  37.333  21.079  1.00  0.00     0.007 C 
ENDBRANCH   3  12
BRANCH   3  14
HETATM   14  C   LIG     1      15.473  37.767  22.898  1.00  0.00     0.024 C 
HETATM   15  C   LIG     1      15.588  39.178  22.305  1.00  0.00     0.007 C 
ENDBRANCH   3  14
TORSDOF 2
ENDMDL
MODEL 6
REMARK VINA RESULT:      -5.6      1.855      3.277
REMARK  2 active torsions:
REMARK  status: ('A' for Active; 'I' for Inactive)
REMARK    1  A    between atoms: C_3  and  C_4 
REMARK    2  A    between atoms: C_3  and  C_6 
ROOT
HETATM    1  O   LIG     1      17.419  38.925  21.320  1.00  0.00    -0.272 OA
HETATM    2  C   LIG     1      17.186  38.250  22.360  1.00  0.00     0.243 C 
HETATM    3  C   LIG     1      16.917  36.750  22.247  1.00  0.00     0.121 C 
HETATM    4  C   LIG     1      17.076  36.050  23.596  1.00  0.00     0.243 C 
HETATM    5  N   LIG     1      17.155  36.780  24.825  1.00  0.00    -0.278 N 
HETATM    6  O   LIG     1      17.081  34.789  23.643  1.00  0.00    -0.272 OA
HETATM    7  N   LIG     1      17.143  38.928  23.618  1.00  0.00    -0.278 N 
HETATM    8  C   LIG     1      17.133  38.203  24.843  1.00  0.00     0.329 C 
HETATM    9  O   LIG     1      17.124  38.820  25.940  1.00  0.00    -0.247 OA
HETATM   10  H   LIG     1      17.208  36.258  25.728  1.00  0.00     0.173 HD
HETATM   11  H   LIG     1      17.195  39.971  23.641  1.00  0.00     0.173 HD
ENDROOT
BRANCH   3  12
HETATM   12  C   LIG     1      15.440  36.516  21.808  1.00  0.00     0.024 C 
HETATM   13  C   LIG     1      15.209  35.367  20.820  1.00  0.00     0.007 C 
ENDBRANCH   3  12
BRANCH   3  14
HETATM   14  C   LIG     1      17.905  36.110  21.223  1.00  0.00     0.024 C 
HETATM   15  C   LIG     1      18.346  37.065  20.106  1.00  0.00     0.007 C 
ENDBRANCH   3  14
TORSDOF 2
ENDMDL
MODEL 7
REMARK VINA RESULT:      -5.6      1.892      4.154
REMARK  2 active torsions:
REMARK  status: ('A' for Active; 'I' for Inactive)
REMARK    1  A    between atoms: C_3  and  C_4 
REMARK    2  A    between atoms: C_3  and  C_6 
ROOT
HETATM    1  O   LIG     1      18.540  36.378  20.456  1.00  0.00    -0.272 OA
HETATM    2  C   LIG     1      17.447  36.226  21.066  1.00  0.00     0.243 C 
HETATM    3  C   LIG     1      17.004  37.263  22.097  1.00  0.00     0.121 C 
HETATM    4  C   LIG     1      15.512  37.141  22.408  1.00  0.00     0.243 C 
HETATM    5  N   LIG     1      14.745  36.001  22.006  1.00  0.00    -0.278 N 
HETATM    6  O   LIG     1      14.945  38.040  23.087  1.00  0.00    -0.272 OA
HETATM    7  N   LIG     1      16.672  35.055  20.797  1.00  0.00    -0.278 N 
HETATM    8  C   LIG     1      15.330  34.942  21.256  1.00  0.00     0.329 C 
HETATM    9  O   LIG     1      14.656  33.914  20.984  1.00  0.00    -0.247 OA
HETATM   10  H   LIG     1      13.741  35.934  22.288  1.00  0.00     0.173 HD
HETATM   11  H   LIG     1      17.071  34.303  20.191  1.00  0.00     0.173 HD
ENDROOT
BRANCH   3  12
HETATM   12  C   LIG     1      17.749  37.013  23.444  1.00  0.00     0.024 C 
HETATM   13  C   LIG     1      17.277  35.801  24.256  1.00  0.00     0.007 C 
ENDBRANCH   3  12
BRANCH   3  14
HETATM   14  C   LIG     1      17.295  38.700  21.564  1.00  0.00     0.024 C 
HETATM   15  C   LIG     1      18.621  39.290  22.063  1.00  0.00     0.007 C 
ENDBRANCH   3  14
TORSDOF 2
ENDMDL
MODEL 8
REMARK VINA RESULT:      -5.5      4.796      6.487
REMARK  2 active torsions:
REMARK  status: ('A' for Active; 'I' for Inactive)
REMARK    1  A    between atoms: C_3  and  C_4 
REMARK    2  A    between atoms: C_3  and  C_6 
ROOT
HETATM    1  O   LIG     1      14.317  30.849  19.232  1.00  0.00    -0.272 OA
HETATM    2  C   LIG     1      14.797  31.992  18.998  1.00  0.00     0.243 C 
HETATM    3  C   LIG     1      14.759  32.555  17.578  1.00  0.00     0.121 C 
HETATM    4  C   LIG     1      14.988  34.066  17.569  1.00  0.00     0.243 C 
HETATM    5  N   LIG     1      15.480  34.765  18.718  1.00  0.00    -0.278 N 
HETATM    6  O   LIG     1      14.794  34.716  16.506  1.00  0.00    -0.272 OA
HETATM    7  N   LIG     1      15.404  32.709  20.075  1.00  0.00    -0.278 N 
HETATM    8  C   LIG     1      15.738  34.086  19.942  1.00  0.00     0.329 C 
HETATM    9  O   LIG     1      16.246  34.707  20.912  1.00  0.00    -0.247 OA
HETATM   10  H   LIG     1      15.674  35.789  18.650  1.00  0.00     0.173 HD
HETATM   11  H   LIG     1      15.535  32.237  20.997  1.00  0.00     0.173 HD
ENDROOT
BRANCH   3  12
HETATM   12  C   LIG     1      15.916  31.936  16.738  1.00  0.00     0.024 C 
HETATM   13  C   LIG     1      16.278  32.678  15.446  1.00  0.00     0.007 C 
ENDBRANCH   3  12
BRANCH   3  14
HETATM   14  C   LIG     1      13.376  32.247  16.923  1.00  0.00     0.024 C 
HETATM   15  C   LIG     1      13.327  30.906  16.179  1.00  0.00     0.007 C 
ENDBRANCH   3  14
TORSDOF 2
ENDMDL
MODEL 9
REMARK VINA RESULT:      -4.8      1.761      2.516
REMARK  2 active torsions:
REMARK  status: ('A' for Active; 'I' for Inactive)
REMARK    1  A    between atoms: C_3  and  C_4 
REMARK    2  A    between atoms: C_3  and  C_6 
ROOT
HETATM    1  O   LIG     1      17.284  39.569  22.073  1.00  0.00    -0.272 OA
HETATM    2  C   LIG     1      17.563  38.366  21.811  1.00  0.00     0.243 C 
HETATM    3  C   LIG     1      17.013  37.250  22.697  1.00  0.00     0.121 C 
HETATM    4  C   LIG     1      17.098  35.891  22.002  1.00  0.00     0.243 C 
HETATM    5  N   LIG     1      17.878  35.693  20.818  1.00  0.00    -0.278 N 
HETATM    6  O   LIG     1      16.512  34.897  22.511  1.00  0.00    -0.272 OA
HETATM    7  N   LIG     1      18.426  38.092  20.705  1.00  0.00    -0.278 N 
HETATM    8  C   LIG     1      18.581  36.769  20.206  1.00  0.00     0.329 C 
HETATM    9  O   LIG     1      19.324  36.553  19.213  1.00  0.00    -0.247 OA
HETATM   10  H   LIG     1      17.953  34.735  20.408  1.00  0.00     0.173 HD
HETATM   11  H   LIG     1      18.892  38.885  20.208  1.00  0.00     0.173 HD
ENDROOT
BRANCH   3  12
HETATM   12  C   LIG     1      17.879  37.132  23.988  1.00  0.00     0.024 C 
HETATM   13  C   LIG     1      17.292  37.775  25.249  1.00  0.00     0.007 C 
ENDBRANCH   3  12
BRANCH   3  14
HETATM   14  C   LIG     1      15.523  37.543  23.057  1.00  0.00     0.024 C 
HETATM   15  C   LIG     1      14.514  36.905  22.093  1.00  0.00     0.007 C 
ENDBRANCH   3  14
TORSDOF 2
ENDMDL
MODEL 10
REMARK VINA RESULT:      -4.5      2.278      3.785
REMARK  2 active torsions:
REMARK  status: ('A' for Active; 'I' for Inactive)
REMARK    1  A    between atoms: C_3  and  C_4 
REMARK    2  A    between atoms: C_3  and  C_6 
ROOT
HETATM    1  O   LIG     1      15.292  38.308  22.561  1.00  0.00    -0.272 OA
HETATM    2  C   LIG     1      16.382  38.139  23.173  1.00  0.00     0.243 C 
HETATM    3  C   LIG     1      17.706  38.352  22.440  1.00  0.00     0.121 C 
HETATM    4  C   LIG     1      18.868  38.515  23.419  1.00  0.00     0.243 C 
HETATM    5  N   LIG     1      18.740  38.190  24.808  1.00  0.00    -0.278 N 
HETATM    6  O   LIG     1      19.992  38.891  22.989  1.00  0.00    -0.272 OA
HETATM    7  N   LIG     1      16.338  37.711  24.536  1.00  0.00    -0.278 N 
HETATM    8  C   LIG     1      17.504  37.740  25.352  1.00  0.00     0.329 C 
HETATM    9  O   LIG     1      17.438  37.385  26.558  1.00  0.00    -0.247 OA
HETATM   10  H   LIG     1      19.576  38.264  25.430  1.00  0.00     0.173 HD
HETATM   11  H   LIG     1      15.423  37.443  24.962  1.00  0.00     0.173 HD
ENDROOT
BRANCH   3  12
HETATM   12  C   LIG     1      18.035  37.094  21.580  1.00  0.00     0.024 C 
HETATM   13  C   LIG     1      17.154  35.864  21.827  1.00  0.00     0.007 C 
ENDBRANCH   3  12
BRANCH   3  14
HETATM   14  C   LIG     1      17.616  39.626  21.542  1.00  0.00     0.024 C 
HETATM   15  C   LIG     1      18.478  39.553  20.275  1.00  0.00     0.007 C 
ENDBRANCH   3  14
TORSDOF 2
ENDMDL
MODEL 11
REMARK VINA RESULT:      -4.2      2.394      4.014
REMARK  2 active torsions:
REMARK  status: ('A' for Active; 'I' for Inactive)
REMARK    1  A    between atoms: C_3  and  C_4 
REMARK    2  A    between atoms: C_3  and  C_6 
ROOT
HETATM    1  O   LIG     1      15.067  38.577  22.691  1.00  0.00    -0.272 OA
HETATM    2  C   LIG     1      15.514  37.405  22.554  1.00  0.00     0.243 C 
HETATM    3  C   LIG     1      16.781  36.985  23.297  1.00  0.00     0.121 C 
HETATM    4  C   LIG     1      16.922  35.464  23.346  1.00  0.00     0.243 C 
HETATM    5  N   LIG     1      16.125  34.602  22.527  1.00  0.00    -0.278 N 
HETATM    6  O   LIG     1      17.804  34.947  24.086  1.00  0.00    -0.272 OA
HETATM    7  N   LIG     1      14.832  36.515  21.668  1.00  0.00    -0.278 N 
HETATM    8  C   LIG     1      15.128  35.123  21.655  1.00  0.00     0.329 C 
HETATM    9  O   LIG     1      14.496  34.352  20.887  1.00  0.00    -0.247 OA
HETATM   10  H   LIG     1      16.294  33.571  22.552  1.00  0.00     0.173 HD
HETATM   11  H   LIG     1      14.053  36.878  21.074  1.00  0.00     0.173 HD
ENDROOT
BRANCH   3  12
HETATM   12  C   LIG     1      18.034  37.512  22.534  1.00  0.00     0.024 C 
HETATM   13  C   LIG     1      17.986  37.396  21.006  1.00  0.00     0.007 C 
ENDBRANCH   3  12
BRANCH   3  14
HETATM   14  C   LIG     1      16.750  37.539  24.756  1.00  0.00     0.024 C 
HETATM   15  C   LIG     1      18.119  37.998  25.274  1.00  0.00     0.007 C 
ENDBRANCH   3  14
TORSDOF 2
ENDMDL
MODEL 12
REMARK VINA RESULT:      -4.0     17.661     19.194
REMARK  2 active torsions:
REMARK  status: ('A' for Active; 'I' for Inactive)
REMARK    1  A    between atoms: C_3  and  C_4 
REMARK    2  A    between atoms: C_3  and  C_6 
ROOT
HETATM    1  O   LIG     1      25.606  31.527  35.579  1.00  0.00    -0.272 OA
HETATM    2  C   LIG     1      26.385  30.534  35.568  1.00  0.00     0.243 C 
HETATM    3  C   LIG     1      27.632  30.539  36.450  1.00  0.00     0.121 C 
HETATM    4  C   LIG     1      28.202  29.131  36.621  1.00  0.00     0.243 C 
HETATM    5  N   LIG     1      27.781  28.038  35.797  1.00  0.00    -0.278 N 
HETATM    6  O   LIG     1      29.111  28.929  37.472  1.00  0.00    -0.272 OA
HETATM    7  N   LIG     1      26.089  29.446  34.690  1.00  0.00    -0.278 N 
HETATM    8  C   LIG     1      26.775  28.204  34.804  1.00  0.00     0.329 C 
HETATM    9  O   LIG     1      26.480  27.249  34.039  1.00  0.00    -0.247 OA
HETATM   10  H   LIG     1      28.237  27.105  35.911  1.00  0.00     0.173 HD
HETATM   11  H   LIG     1      25.307  29.537  34.004  1.00  0.00     0.173 HD
ENDROOT
BRANCH   3  12
HETATM   12  C   LIG     1      28.753  31.380  35.767  1.00  0.00     0.024 C 
HETATM   13  C   LIG     1      28.930  31.162  34.260  1.00  0.00     0.007 C 
ENDBRANCH   3  12
BRANCH   3  14
HETATM   14  C   LIG     1      27.286  31.120  37.857  1.00  0.00     0.024 C 
HETATM   15  C   LIG     1      27.907  32.497  38.129  1.00  0.00     0.007 C 
ENDBRANCH   3  14
TORSDOF 2
ENDMDL
MODEL 13
REMARK VINA RESULT:      -3.9     19.015     20.547
REMARK  2 active torsions:
REMARK  status: ('A' for Active; 'I' for Inactive)
REMARK    1  A    between atoms: C_3  and  C_4 
REMARK    2  A    between atoms: C_3  and  C_6 
ROOT
HETATM    1  O   LIG     1      22.143  20.360  34.173  1.00  0.00    -0.272 OA
HETATM    2  C   LIG     1      22.172  21.422  34.854  1.00  0.00     0.243 C 
HETATM    3  C   LIG     1      20.947  22.333  34.891  1.00  0.00     0.121 C 
HETATM    4  C   LIG     1      21.013  23.312  36.062  1.00  0.00     0.243 C 
HETATM    5  N   LIG     1      22.217  23.523  36.807  1.00  0.00    -0.278 N 
HETATM    6  O   LIG     1      19.996  24.000  36.353  1.00  0.00    -0.272 OA
HETATM    7  N   LIG     1      23.379  21.757  35.542  1.00  0.00    -0.278 N 
HETATM    8  C   LIG     1      23.405  22.794  36.516  1.00  0.00     0.329 C 
HETATM    9  O   LIG     1      24.472  23.055  37.131  1.00  0.00    -0.247 OA
HETATM   10  H   LIG     1      22.232  24.242  37.565  1.00  0.00     0.173 HD
HETATM   11  H   LIG     1      24.238  21.183  35.383  1.00  0.00     0.173 HD
ENDROOT
BRANCH   3  12
HETATM   12  C   LIG     1      20.905  23.205  33.599  1.00  0.00     0.024 C 
HETATM   13  C   LIG     1      19.634  23.083  32.749  1.00  0.00     0.007 C 
ENDBRANCH   3  12
BRANCH   3  14
HETATM   14  C   LIG     1      19.650  21.474  35.019  1.00  0.00     0.024 C 
HETATM   15  C   LIG     1      19.579  20.647  36.309  1.00  0.00     0.007 C 
ENDBRANCH   3  14
TORSDOF 2
ENDMDL
MODEL 14
REMARK VINA RESULT:      -3.9      6.606      8.715
REMARK  2 active torsions:
REMARK  status: ('A' for Active; 'I' for Inactive)
REMARK    1  A    between atoms: C_3  and  C_4 
REMARK    2  A    between atoms: C_3  and  C_6 
ROOT
HETATM    1  O   LIG     1      13.482  30.337  17.482  1.00  0.00    -0.272 OA
HETATM    2  C   LIG     1      14.133  30.934  16.580  1.00  0.00     0.243 C 
HETATM    3  C   LIG     1      14.802  32.272  16.886  1.00  0.00     0.121 C 
HETATM    4  C   LIG     1      15.861  32.621  15.841  1.00  0.00     0.243 C 
HETATM    5  N   LIG     1      15.958  31.919  14.597  1.00  0.00    -0.278 N 
HETATM    6  O   LIG     1      16.641  33.590  16.048  1.00  0.00    -0.272 OA
HETATM    7  N   LIG     1      14.186  30.348  15.277  1.00  0.00    -0.278 N 
HETATM    8  C   LIG     1      15.094  30.829  14.293  1.00  0.00     0.329 C 
HETATM    9  O   LIG     1      15.145  30.281  13.161  1.00  0.00    -0.247 OA
HETATM   10  H   LIG     1      16.661  32.227  13.889  1.00  0.00     0.173 HD
HETATM   11  H   LIG     1      13.604  29.506  15.069  1.00  0.00     0.173 HD
ENDROOT
BRANCH   3  12
HETATM   12  C   LIG     1      13.742  33.413  16.827  1.00  0.00     0.024 C 
HETATM   13  C   LIG     1      12.295  32.971  16.579  1.00  0.00     0.007 C 
ENDBRANCH   3  12
BRANCH   3  14
HETATM   14  C   LIG     1      15.476  32.219  18.294  1.00  0.00     0.024 C 
HETATM   15  C   LIG     1      15.173  33.440  19.173  1.00  0.00     0.007 C 
ENDBRANCH   3  14
TORSDOF 2
ENDMDL
MODEL 15
REMARK VINA RESULT:      -3.8     19.361     20.767
REMARK  2 active torsions:
REMARK  status: ('A' for Active; 'I' for Inactive)
REMARK    1  A    between atoms: C_3  and  C_4 
REMARK    2  A    between atoms: C_3  and  C_6 
ROOT
HETATM    1  O   LIG     1      21.015  24.381  36.242  1.00  0.00    -0.272 OA
HETATM    2  C   LIG     1      21.504  23.225  36.119  1.00  0.00     0.243 C 
HETATM    3  C   LIG     1      21.089  22.346  34.940  1.00  0.00     0.121 C 
HETATM    4  C   LIG     1      22.070  21.194  34.729  1.00  0.00     0.243 C 
HETATM    5  N   LIG     1      23.048  20.840  35.713  1.00  0.00    -0.278 N 
HETATM    6  O   LIG     1      21.985  20.491  33.684  1.00  0.00    -0.272 OA
HETATM    7  N   LIG     1      22.409  22.758  37.122  1.00  0.00    -0.278 N 
HETATM    8  C   LIG     1      23.180  21.579  36.923  1.00  0.00     0.329 C 
HETATM    9  O   LIG     1      23.992  21.200  37.807  1.00  0.00    -0.247 OA
HETATM   10  H   LIG     1      23.661  20.010  35.551  1.00  0.00     0.173 HD
HETATM   11  H   LIG     1      22.561  23.330  37.983  1.00  0.00     0.173 HD
ENDROOT
BRANCH   3  12
HETATM   12  C   LIG     1      19.706  21.691  35.236  1.00  0.00     0.024 C 
HETATM   13  C   LIG     1      19.684  20.658  36.369  1.00  0.00     0.007 C 
ENDBRANCH   3  12
BRANCH   3  14
HETATM   14  C   LIG     1      21.025  23.204  33.637  1.00  0.00     0.024 C 
HETATM   15  C   LIG     1      19.695  23.083  32.880  1.00  0.00     0.007 C 
ENDBRANCH   3  14
TORSDOF 2
ENDMDL
MODEL 16
REMARK VINA RESULT:      -3.8     17.613     19.167
REMARK  2 active torsions:
REMARK  status: ('A' for Active; 'I' for Inactive)
REMARK    1  A    between atoms: C_3  and  C_4 
REMARK    2  A    between atoms: C_3  and  C_6 
ROOT
HETATM    1  O   LIG     1      27.957  28.897  38.034  1.00  0.00    -0.272 OA
HETATM    2  C   LIG     1      27.522  29.011  36.855  1.00  0.00     0.243 C 
HETATM    3  C   LIG     1      27.390  30.396  36.226  1.00  0.00     0.121 C 
HETATM    4  C   LIG     1      27.259  30.310  34.706  1.00  0.00     0.243 C 
HETATM    5  N   LIG     1      26.986  29.074  34.037  1.00  0.00    -0.278 N 
HETATM    6  O   LIG     1      27.337  31.364  34.016  1.00  0.00    -0.272 OA
HETATM    7  N   LIG     1      27.126  27.828  36.158  1.00  0.00    -0.278 N 
HETATM    8  C   LIG     1      26.865  27.853  34.759  1.00  0.00     0.329 C 
HETATM    9  O   LIG     1      26.545  26.794  34.158  1.00  0.00    -0.247 OA
HETATM   10  H   LIG     1      26.850  29.071  33.002  1.00  0.00     0.173 HD
HETATM   11  H   LIG     1      27.100  26.915  36.666  1.00  0.00     0.173 HD
ENDROOT
BRANCH   3  12
HETATM   12  C   LIG     1      26.085  31.080  36.735  1.00  0.00     0.024 C 
HETATM   13  C   LIG     1      26.196  31.826  38.070  1.00  0.00     0.007 C 
ENDBRANCH   3  12
BRANCH   3  14
HETATM   14  C   LIG     1      28.640  31.261  36.580  1.00  0.00     0.024 C 
HETATM   15  C   LIG     1      29.949  30.737  35.975  1.00  0.00     0.007 C 
ENDBRANCH   3  14
TORSDOF 2
ENDMDL
MODEL 17
REMARK VINA RESULT:      -3.8     15.846     17.305
REMARK  2 active torsions:
REMARK  status: ('A' for Active; 'I' for Inactive)
REMARK    1  A    between atoms: C_3  and  C_4 
REMARK    2  A    between atoms: C_3  and  C_6 
ROOT
HETATM    1  O   LIG     1      23.899  19.925  21.989  1.00  0.00    -0.272 OA
HETATM    2  C   LIG     1      23.826  20.629  20.945  1.00  0.00     0.243 C 
HETATM    3  C   LIG     1      24.474  22.012  20.915  1.00  0.00     0.121 C 
HETATM    4  C   LIG     1      24.646  22.518  19.483  1.00  0.00     0.243 C 
HETATM    5  N   LIG     1      23.991  21.893  18.374  1.00  0.00    -0.278 N 
HETATM    6  O   LIG     1      25.338  23.551  19.270  1.00  0.00    -0.272 OA
HETATM    7  N   LIG     1      23.096  20.117  19.828  1.00  0.00    -0.278 N 
HETATM    8  C   LIG     1      23.179  20.737  18.550  1.00  0.00     0.329 C 
HETATM    9  O   LIG     1      22.550  20.253  17.573  1.00  0.00    -0.247 OA
HETATM   10  H   LIG     1      24.093  22.306  17.420  1.00  0.00     0.173 HD
HETATM   11  H   LIG     1      22.551  19.231  19.932  1.00  0.00     0.173 HD
ENDROOT
BRANCH   3  12
HETATM   12  C   LIG     1      23.545  23.040  21.630  1.00  0.00     0.024 C 
HETATM   13  C   LIG     1      22.051  22.937  21.300  1.00  0.00     0.007 C 
ENDBRANCH   3  12
BRANCH   3  14
HETATM   14  C   LIG     1      25.872  21.958  21.606  1.00  0.00     0.024 C 
HETATM   15  C   LIG     1      25.957  22.780  22.899  1.00  0.00     0.007 C 
ENDBRANCH   3  14
TORSDOF 2
ENDMDL
MODEL 18
REMARK VINA RESULT:      -3.7     15.612     16.821
REMARK  2 active torsions:
REMARK  status: ('A' for Active; 'I' for Inactive)
REMARK    1  A    between atoms: C_3  and  C_4 
REMARK    2  A    between atoms: C_3  and  C_6 
ROOT
HETATM    1  O   LIG     1      25.259  22.810  22.354  1.00  0.00    -0.272 OA
HETATM    2  C   LIG     1      25.109  22.633  21.113  1.00  0.00     0.243 C 
HETATM    3  C   LIG     1      24.104  21.599  20.610  1.00  0.00     0.121 C 
HETATM    4  C   LIG     1      23.762  21.821  19.137  1.00  0.00     0.243 C 
HETATM    5  N   LIG     1      24.536  22.689  18.302  1.00  0.00    -0.278 N 
HETATM    6  O   LIG     1      22.807  21.180  18.619  1.00  0.00    -0.272 OA
HETATM    7  N   LIG     1      25.923  23.389  20.214  1.00  0.00    -0.278 N 
HETATM    8  C   LIG     1      25.639  23.424  18.820  1.00  0.00     0.329 C 
HETATM    9  O   LIG     1      26.352  24.118  18.049  1.00  0.00    -0.247 OA
HETATM   10  H   LIG     1      24.300  22.768  17.288  1.00  0.00     0.173 HD
HETATM   11  H   LIG     1      26.693  23.984  20.595  1.00  0.00     0.173 HD
ENDROOT
BRANCH   3  12
HETATM   12  C   LIG     1      24.730  20.174  20.701  1.00  0.00     0.024 C 
HETATM   13  C   LIG     1      23.881  19.113  21.410  1.00  0.00     0.007 C 
ENDBRANCH   3  12
BRANCH   3  14
HETATM   14  C   LIG     1      22.792  21.679  21.453  1.00  0.00     0.024 C 
HETATM   15  C   LIG     1      22.048  23.014  21.317  1.00  0.00     0.007 C 
ENDBRANCH   3  14
TORSDOF 2
ENDMDL
