REMARK  4 active torsions:
REMARK  status: ('A' for Active; 'I' for Inactive)
REMARK    1  A    between atoms: C_6  and  C_12 
REMARK    2  A    between atoms: C_6  and  C_7 
REMARK    3  A    between atoms: C_7  and  C_8 
REMARK    4  A    between atoms: C_8  and  C_9 
ROOT
HETATM    1  O   LIG     1      -2.360  -4.223  -0.099  1.00  0.00    -0.247 OA
HETATM    2  C   LIG     1      -2.169  -2.990  -0.270  1.00  0.00     0.329 C 
HETATM    3  N   LIG     1      -1.374  -2.533  -1.359  1.00  0.00    -0.278 N 
HETATM    4  N   LIG     1      -2.775  -2.044   0.604  1.00  0.00    -0.278 N 
HETATM    5  C   LIG     1      -2.531  -0.642   0.450  1.00  0.00     0.243 C 
HETATM    6  C   LIG     1      -1.373  -0.132  -0.412  1.00  0.00     0.122 C 
HETATM    7  C   LIG     1      -1.107  -1.139  -1.536  1.00  0.00     0.243 C 
HETATM    8  O   LIG     1      -0.570  -0.763  -2.614  1.00  0.00    -0.272 OA
HETATM    9  O   LIG     1      -3.237   0.162   1.115  1.00  0.00    -0.272 OA
HETATM   10  H   LIG     1      -1.024  -3.220  -2.065  1.00  0.00     0.173 HD
HETATM   11  H   LIG     1      -3.447  -2.374   1.333  1.00  0.00     0.173 HD
ENDROOT
BRANCH   6  12
HETATM   12  C   LIG     1      -1.745   1.259  -1.042  1.00  0.00     0.024 C 
HETATM   13  C   LIG     1      -1.673   2.473  -0.101  1.00  0.00     0.007 C 
ENDBRANCH   6  12
BRANCH   6  14
HETATM   14  C   LIG     1      -0.111  -0.069   0.501  1.00  0.00     0.029 C 
BRANCH  14  15
HETATM   15  C   LIG     1       1.190   0.343  -0.223  1.00  0.00     0.005 C 
BRANCH  15  16
HETATM   16  C   LIG     1       2.338   0.673   0.758  1.00  0.00    -0.023 C 
HETATM   17  C   LIG     1       2.794  -0.564   1.546  1.00  0.00     0.009 C 
HETATM   18  C   LIG     1       3.527   1.272  -0.005  1.00  0.00     0.009 C 
ENDBRANCH  15  16
ENDBRANCH  14  15
ENDBRANCH   6  14
TORSDOF 4
