REMARK  2 active torsions:
REMARK  status: ('A' for Active; 'I' for Inactive)
REMARK    1  A    between atoms: C_3  and  C_4 
REMARK    2  A    between atoms: C_3  and  C_6 
ROOT
HETATM    1  O   LIG     1      -0.382   0.367  -2.173  1.00  0.00    -0.272 OA
HETATM    2  C   LIG     1      -0.623  -0.260  -1.105  1.00  0.00     0.243 C 
HETATM    3  C   LIG     1       0.211   0.020   0.144  1.00  0.00     0.121 C 
HETATM    4  C   LIG     1      -0.478  -0.500   1.405  1.00  0.00     0.243 C 
HETATM    5  N   LIG     1      -1.593  -1.396   1.345  1.00  0.00    -0.278 N 
HETATM    6  O   LIG     1      -0.022  -0.181   2.537  1.00  0.00    -0.272 OA
HETATM    7  N   LIG     1      -1.654  -1.250  -1.114  1.00  0.00    -0.278 N 
HETATM    8  C   LIG     1      -2.142  -1.812   0.099  1.00  0.00     0.329 C 
HETATM    9  O   LIG     1      -3.070  -2.662   0.071  1.00  0.00    -0.247 OA
HETATM   10  H   LIG     1      -1.998  -1.770   2.232  1.00  0.00     0.173 HD
HETATM   11  H   LIG     1      -2.108  -1.511  -2.018  1.00  0.00     0.173 HD
ENDROOT
BRANCH   3  12
HETATM   12  C   LIG     1       1.569  -0.739   0.047  1.00  0.00     0.024 C 
HETATM   13  C   LIG     1       2.455  -0.377  -1.151  1.00  0.00     0.007 C 
ENDBRANCH   3  12
BRANCH   3  14
HETATM   14  C   LIG     1       0.447   1.556   0.291  1.00  0.00     0.024 C 
HETATM   15  C   LIG     1      -0.839   2.362   0.518  1.00  0.00     0.007 C 
ENDBRANCH   3  14
TORSDOF 2
