REMARK  4 active torsions:
REMARK  status: ('A' for Active; 'I' for Inactive)
REMARK    1  A    between atoms: C_2  and  C_6 
REMARK    2  A    between atoms: C_2  and  O_3 
REMARK    3  A    between atoms: O_3  and  C_4 
REMARK    4  A    between atoms: C_6  and  C_7 
ROOT
HETATM    1  C   LIG     1      -0.021  -0.077   0.343  1.00  0.00     0.078 C 
HETATM    2  C   LIG     1      -0.414  -1.142  -0.732  1.00  0.00     0.055 C 
HETATM    3  C   LIG     1      -1.930  -1.379  -0.760  1.00  0.00     0.273 C 
HETATM    4  N   LIG     1      -2.406  -1.974   0.513  1.00  0.00     0.084 N 
HETATM    5  C   LIG     1      -3.852  -1.757   0.671  1.00  0.00     0.309 C 
HETATM    6  C   LIG     1      -1.655  -1.524   1.715  1.00  0.00     0.273 C 
HETATM    7  C   LIG     1      -1.033  -0.128   1.536  1.00  0.00     0.055 C 
ENDROOT
BRANCH   1   8
HETATM    8  C   LIG     1       1.387  -0.431   0.798  1.00  0.00     0.272 C 
HETATM    9  O   LIG     1       1.576  -1.085   1.861  1.00  0.00    -0.264 OA
BRANCH   8  10
HETATM   10  O   LIG     1       2.473  -0.084  -0.017  1.00  0.00    -0.321 OA
BRANCH  10  11
HETATM   11  C   LIG     1       3.819  -0.458   0.266  1.00  0.00     0.174 C 
HETATM   12  C   LIG     1       4.050  -1.926  -0.072  1.00  0.00     0.034 C 
ENDBRANCH  10  11
ENDBRANCH   8  10
ENDBRANCH   1   8
BRANCH   1  13
HETATM   13  C   LIG     1      -0.004   1.374  -0.182  1.00  0.00    -0.040 A 
HETATM   14  C   LIG     1      -0.548   1.757  -1.432  1.00  0.00     0.008 A 
HETATM   15  C   LIG     1      -0.526   3.094  -1.843  1.00  0.00     0.001 A 
HETATM   16  C   LIG     1       0.021   4.075  -1.017  1.00  0.00     0.000 A 
HETATM   17  C   LIG     1       0.541   3.725   0.228  1.00  0.00     0.001 A 
HETATM   18  C   LIG     1       0.523   2.392   0.646  1.00  0.00     0.008 A 
ENDBRANCH   1  13
TORSDOF 4
