MODEL 1
REMARK VINA RESULT:      -7.7      0.000      0.000
REMARK  4 active torsions:
REMARK  status: ('A' for Active; 'I' for Inactive)
REMARK    1  A    between atoms: C_6  and  C_12 
REMARK    2  A    between atoms: C_6  and  C_7 
REMARK    3  A    between atoms: C_7  and  C_8 
REMARK    4  A    between atoms: C_8  and  C_9 
ROOT
HETATM    1  O   LIG     1      19.049  39.610  21.829  1.00  0.00    -0.247 OA
HETATM    2  C   LIG     1      18.182  38.698  21.786  1.00  0.00     0.329 C 
HETATM    3  N   LIG     1      17.093  38.701  22.702  1.00  0.00    -0.278 N 
HETATM    4  N   LIG     1      18.267  37.677  20.797  1.00  0.00    -0.278 N 
HETATM    5  C   LIG     1      17.315  36.608  20.763  1.00  0.00     0.243 C 
HETATM    6  C   LIG     1      16.398  36.329  21.957  1.00  0.00     0.122 C 
HETATM    7  C   LIG     1      16.129  37.644  22.697  1.00  0.00     0.243 C 
HETATM    8  O   LIG     1      15.080  37.785  23.384  1.00  0.00    -0.272 OA
HETATM    9  O   LIG     1      17.313  35.844  19.762  1.00  0.00    -0.272 OA
HETATM   10  H   LIG     1      16.968  39.511  23.351  1.00  0.00     0.173 HD
HETATM   11  H   LIG     1      19.002  37.737  20.057  1.00  0.00     0.173 HD
ENDROOT
BRANCH   6  12
HETATM   12  C   LIG     1      15.034  35.730  21.457  1.00  0.00     0.024 C 
HETATM   13  C   LIG     1      14.951  34.196  21.387  1.00  0.00     0.007 C 
ENDBRANCH   6  12
BRANCH   6  14
HETATM   14  C   LIG     1      17.168  35.373  22.917  1.00  0.00     0.029 C 
BRANCH  14  15
HETATM   15  C   LIG     1      16.776  35.500  24.406  1.00  0.00     0.005 C 
BRANCH  15  16
HETATM   16  C   LIG     1      17.967  35.905  25.303  1.00  0.00    -0.023 C 
HETATM   17  C   LIG     1      17.738  37.263  25.984  1.00  0.00     0.009 C 
HETATM   18  C   LIG     1      18.219  34.826  26.365  1.00  0.00     0.009 C 
ENDBRANCH  15  16
ENDBRANCH  14  15
ENDBRANCH   6  14
TORSDOF 4
ENDMDL
MODEL 2
REMARK VINA RESULT:      -6.8      2.148      4.274
REMARK  4 active torsions:
REMARK  status: ('A' for Active; 'I' for Inactive)
REMARK    1  A    between atoms: C_6  and  C_12 
REMARK    2  A    between atoms: C_6  and  C_7 
REMARK    3  A    between atoms: C_7  and  C_8 
REMARK    4  A    between atoms: C_8  and  C_9 
ROOT
HETATM    1  O   LIG     1      18.052  37.457  26.420  1.00  0.00    -0.247 OA
HETATM    2  C   LIG     1      17.506  37.219  25.311  1.00  0.00     0.329 C 
HETATM    3  N   LIG     1      17.453  35.887  24.810  1.00  0.00    -0.278 N 
HETATM    4  N   LIG     1      16.908  38.275  24.567  1.00  0.00    -0.278 N 
HETATM    5  C   LIG     1      16.323  38.028  23.284  1.00  0.00     0.243 C 
HETATM    6  C   LIG     1      16.611  36.732  22.521  1.00  0.00     0.122 C 
HETATM    7  C   LIG     1      16.881  35.610  23.528  1.00  0.00     0.243 C 
HETATM    8  O   LIG     1      16.676  34.406  23.211  1.00  0.00    -0.272 OA
HETATM    9  O   LIG     1      15.638  38.943  22.755  1.00  0.00    -0.272 OA
HETATM   10  H   LIG     1      17.790  35.099  25.407  1.00  0.00     0.173 HD
HETATM   11  H   LIG     1      16.848  39.230  24.986  1.00  0.00     0.173 HD
ENDROOT
BRANCH   6  12
HETATM   12  C   LIG     1      15.372  36.344  21.635  1.00  0.00     0.024 C 
HETATM   13  C   LIG     1      15.660  35.448  20.419  1.00  0.00     0.007 C 
ENDBRANCH   6  12
BRANCH   6  14
HETATM   14  C   LIG     1      17.907  36.966  21.686  1.00  0.00     0.029 C 
BRANCH  14  15
HETATM   15  C   LIG     1      18.071  38.401  21.137  1.00  0.00     0.005 C 
BRANCH  15  16
HETATM   16  C   LIG     1      18.750  38.432  19.748  1.00  0.00    -0.023 C 
HETATM   17  C   LIG     1      20.167  39.021  19.815  1.00  0.00     0.009 C 
HETATM   18  C   LIG     1      18.800  37.018  19.155  1.00  0.00     0.009 C 
ENDBRANCH  15  16
ENDBRANCH  14  15
ENDBRANCH   6  14
TORSDOF 4
ENDMDL
MODEL 3
REMARK VINA RESULT:      -6.4      2.563      4.898
REMARK  4 active torsions:
REMARK  status: ('A' for Active; 'I' for Inactive)
REMARK    1  A    between atoms: C_6  and  C_12 
REMARK    2  A    between atoms: C_6  and  C_7 
REMARK    3  A    between atoms: C_7  and  C_8 
REMARK    4  A    between atoms: C_8  and  C_9 
ROOT
HETATM    1  O   LIG     1      18.581  34.647  26.471  1.00  0.00    -0.247 OA
HETATM    2  C   LIG     1      17.941  35.351  25.646  1.00  0.00     0.329 C 
HETATM    3  N   LIG     1      17.376  34.756  24.483  1.00  0.00    -0.278 N 
HETATM    4  N   LIG     1      17.749  36.741  25.888  1.00  0.00    -0.278 N 
HETATM    5  C   LIG     1      17.063  37.563  24.938  1.00  0.00     0.243 C 
HETATM    6  C   LIG     1      16.817  37.079  23.507  1.00  0.00     0.122 C 
HETATM    7  C   LIG     1      16.690  35.551  23.512  1.00  0.00     0.243 C 
HETATM    8  O   LIG     1      16.039  34.963  22.606  1.00  0.00    -0.272 OA
HETATM    9  O   LIG     1      16.747  38.733  25.282  1.00  0.00    -0.272 OA
HETATM   10  H   LIG     1      17.419  33.718  24.363  1.00  0.00     0.173 HD
HETATM   11  H   LIG     1      18.067  37.154  26.794  1.00  0.00     0.173 HD
ENDROOT
BRANCH   6  12
HETATM   12  C   LIG     1      15.488  37.705  22.949  1.00  0.00     0.024 C 
HETATM   13  C   LIG     1      15.601  39.115  22.347  1.00  0.00     0.007 C 
ENDBRANCH   6  12
BRANCH   6  14
HETATM   14  C   LIG     1      18.072  37.465  22.666  1.00  0.00     0.029 C 
BRANCH  14  15
HETATM   15  C   LIG     1      17.946  37.186  21.152  1.00  0.00     0.005 C 
BRANCH  15  16
HETATM   16  C   LIG     1      18.984  37.967  20.315  1.00  0.00    -0.023 C 
HETATM   17  C   LIG     1      18.801  37.733  18.808  1.00  0.00     0.009 C 
HETATM   18  C   LIG     1      18.888  39.467  20.624  1.00  0.00     0.009 C 
ENDBRANCH  15  16
ENDBRANCH  14  15
ENDBRANCH   6  14
TORSDOF 4
ENDMDL
MODEL 4
REMARK VINA RESULT:      -6.2      2.029      4.500
REMARK  4 active torsions:
REMARK  status: ('A' for Active; 'I' for Inactive)
REMARK    1  A    between atoms: C_6  and  C_12 
REMARK    2  A    between atoms: C_6  and  C_7 
REMARK    3  A    between atoms: C_7  and  C_8 
REMARK    4  A    between atoms: C_8  and  C_9 
ROOT
HETATM    1  O   LIG     1      15.132  34.560  20.554  1.00  0.00    -0.247 OA
HETATM    2  C   LIG     1      15.573  35.263  21.502  1.00  0.00     0.329 C 
HETATM    3  N   LIG     1      15.158  36.617  21.642  1.00  0.00    -0.278 N 
HETATM    4  N   LIG     1      16.462  34.697  22.459  1.00  0.00    -0.278 N 
HETATM    5  C   LIG     1      17.007  35.495  23.515  1.00  0.00     0.243 C 
HETATM    6  C   LIG     1      16.939  37.024  23.466  1.00  0.00     0.122 C 
HETATM    7  C   LIG     1      15.690  37.442  22.683  1.00  0.00     0.243 C 
HETATM    8  O   LIG     1      15.153  38.565  22.892  1.00  0.00    -0.272 OA
HETATM    9  O   LIG     1      17.626  34.911  24.444  1.00  0.00    -0.272 OA
HETATM   10  H   LIG     1      14.420  36.998  21.007  1.00  0.00     0.173 HD
HETATM   11  H   LIG     1      16.677  33.675  22.420  1.00  0.00     0.173 HD
ENDROOT
BRANCH   6  12
HETATM   12  C   LIG     1      16.853  37.604  24.924  1.00  0.00     0.024 C 
HETATM   13  C   LIG     1      18.168  37.642  25.719  1.00  0.00     0.007 C 
ENDBRANCH   6  12
BRANCH   6  14
HETATM   14  C   LIG     1      18.196  37.517  22.687  1.00  0.00     0.029 C 
BRANCH  14  15
HETATM   15  C   LIG     1      17.930  38.676  21.700  1.00  0.00     0.005 C 
BRANCH  15  16
HETATM   16  C   LIG     1      18.477  38.388  20.283  1.00  0.00    -0.023 C 
HETATM   17  C   LIG     1      19.847  39.043  20.052  1.00  0.00     0.009 C 
HETATM   18  C   LIG     1      18.578  36.874  20.055  1.00  0.00     0.009 C 
ENDBRANCH  15  16
ENDBRANCH  14  15
ENDBRANCH   6  14
TORSDOF 4
ENDMDL
