REMARK  8 active torsions:
REMARK  status: ('A' for Active; 'I' for Inactive)
REMARK    1  A    between atoms: C_2  and  C_8 
REMARK    2  A    between atoms: C_2  and  C_3 
REMARK    3  A    between atoms: C_2  and  C_11 
REMARK    4  A    between atoms: C_3  and  O_4 
REMARK    5  A    between atoms: O_4  and  C_5 
REMARK       I    between atoms: C_5  and  N_6 
REMARK    6  A    between atoms: C_8  and  C_9 
REMARK    7  A    between atoms: C_11  and  O_12 
REMARK    8  A    between atoms: O_12  and  C_13 
REMARK       I    between atoms: C_13  and  N_14 
ROOT
HETATM    1  C   LIG     1       0.068  -0.184  -2.216  1.00  0.00     0.019 C 
HETATM    2  C   LIG     1       0.080   0.199  -0.717  1.00  0.00     0.000 C 
ENDROOT
BRANCH   2   3
HETATM    3  C   LIG     1      -1.168   1.098  -0.446  1.00  0.00     0.013 C 
BRANCH   3   4
HETATM    4  C   LIG     1      -1.372   1.520   1.022  1.00  0.00    -0.004 C 
HETATM    5  C   LIG     1      -2.614   2.396   1.170  1.00  0.00     0.005 C 
ENDBRANCH   3   4
ENDBRANCH   2   3
BRANCH   2   6
HETATM    6  C   LIG     1       0.043  -1.098   0.132  1.00  0.00     0.192 C 
BRANCH   6   7
HETATM    7  O   LIG     1      -1.199  -1.778  -0.037  1.00  0.00    -0.303 OA
BRANCH   7   8
HETATM    8  C   LIG     1      -1.500  -2.974   0.619  1.00  0.00     0.358 C 
HETATM    9  N   LIG     1      -2.764  -3.594   0.404  1.00  0.00    -0.346 N 
HETATM   10  H   LIG     1      -3.460  -3.156  -0.240  1.00  0.00     0.161 HD
HETATM   11  H   LIG     1      -3.005  -4.488   0.886  1.00  0.00     0.161 HD
HETATM   12  O   LIG     1      -0.666  -3.509   1.399  1.00  0.00    -0.239 OA
ENDBRANCH   7   8
ENDBRANCH   6   7
ENDBRANCH   2   6
BRANCH   2  13
HETATM   13  C   LIG     1       1.383   0.982  -0.411  1.00  0.00     0.192 C 
BRANCH  13  14
HETATM   14  O   LIG     1       2.531   0.220  -0.783  1.00  0.00    -0.303 OA
BRANCH  14  15
HETATM   15  C   LIG     1       3.836   0.692  -0.618  1.00  0.00     0.358 C 
HETATM   16  N   LIG     1       4.934  -0.126  -1.013  1.00  0.00    -0.346 N 
HETATM   17  H   LIG     1       4.763  -1.071  -1.422  1.00  0.00     0.161 HD
HETATM   18  H   LIG     1       5.915   0.211  -0.897  1.00  0.00     0.161 HD
HETATM   19  O   LIG     1       4.051   1.833  -0.125  1.00  0.00    -0.239 OA
ENDBRANCH  14  15
ENDBRANCH  13  14
ENDBRANCH   2  13
TORSDOF 8
