MODEL 1
REMARK VINA RESULT:      -6.1      0.000      0.000
REMARK  2 active torsions:
REMARK  status: ('A' for Active; 'I' for Inactive)
REMARK    1  A    between atoms: O_1  and  C_2 
REMARK    2  A    between atoms: C_16  and  O_19 
ROOT
HETATM    1  C   LIG     1      27.351  31.807  37.131  1.00  0.00     0.066 A 
HETATM    2  C   LIG     1      28.565  31.433  36.551  1.00  0.00     0.044 A 
HETATM    3  C   LIG     1      28.608  30.460  35.540  1.00  0.00    -0.049 A 
HETATM    4  C   LIG     1      29.953  30.147  34.893  1.00  0.00     0.039 C 
HETATM    5  C   LIG     1      29.912  29.257  33.621  1.00  0.00     0.010 C 
HETATM    6  C   LIG     1      28.506  29.217  32.999  1.00  0.00    -0.001 C 
HETATM    7  C   LIG     1      27.506  28.739  34.082  1.00  0.00     0.023 C 
HETATM    8  C   LIG     1      26.184  28.233  33.451  1.00  0.00     0.010 C 
HETATM    9  C   LIG     1      26.401  27.022  32.494  1.00  0.00     0.014 C 
HETATM   10  C   LIG     1      27.801  26.998  31.787  1.00  0.00     0.003 C 
HETATM   11  C   LIG     1      28.776  26.058  32.576  1.00  0.00     0.020 C 
HETATM   12  C   LIG     1      28.342  28.431  31.668  1.00  0.00     0.002 C 
HETATM   13  C   LIG     1      29.492  28.354  30.669  1.00  0.00     0.010 C 
HETATM   14  C   LIG     1      29.090  27.218  29.711  1.00  0.00     0.052 C 
HETATM   15  C   LIG     1      27.782  26.592  30.275  1.00  0.00     0.128 C 
HETATM   16  C   LIG     1      27.740  25.126  30.059  1.00  0.00    -0.078 C 
HETATM   17  C   LIG     1      27.704  23.934  29.880  1.00  0.00     0.015 C 
HETATM   18  C   LIG     1      27.404  29.836  35.121  1.00  0.00    -0.047 A 
HETATM   19  C   LIG     1      26.184  30.233  35.703  1.00  0.00     0.011 A 
HETATM   20  C   LIG     1      26.161  31.211  36.700  1.00  0.00     0.037 A 
ENDROOT
BRANCH  15  21
HETATM   21  O   LIG     1      26.671  27.177  29.631  1.00  0.00    -0.377 OA
HETATM   22  H   LIG     1      26.998  27.925  29.064  1.00  0.00     0.211 HD
ENDBRANCH  15  21
BRANCH   1  23
HETATM   23  O   LIG     1      27.337  32.778  38.129  1.00  0.00    -0.361 OA
HETATM   24  H   LIG     1      27.401  32.530  39.110  1.00  0.00     0.217 HD
ENDBRANCH   1  23
TORSDOF 2
ENDMDL
MODEL 2
REMARK VINA RESULT:      -6.0      9.274     13.412
REMARK  2 active torsions:
REMARK  status: ('A' for Active; 'I' for Inactive)
REMARK    1  A    between atoms: O_1  and  C_2 
REMARK    2  A    between atoms: C_16  and  O_19 
ROOT
HETATM    1  C   LIG     1      27.056  24.195  26.158  1.00  0.00     0.066 A 
HETATM    2  C   LIG     1      27.770  23.938  24.985  1.00  0.00     0.044 A 
HETATM    3  C   LIG     1      27.138  23.370  23.869  1.00  0.00    -0.049 A 
HETATM    4  C   LIG     1      27.951  23.183  22.592  1.00  0.00     0.039 C 
HETATM    5  C   LIG     1      27.151  22.787  21.321  1.00  0.00     0.010 C 
HETATM    6  C   LIG     1      25.651  23.083  21.477  1.00  0.00    -0.001 C 
HETATM    7  C   LIG     1      25.138  22.352  22.744  1.00  0.00     0.023 C 
HETATM    8  C   LIG     1      23.595  22.208  22.731  1.00  0.00     0.010 C 
HETATM    9  C   LIG     1      23.079  21.383  21.513  1.00  0.00     0.014 C 
HETATM   10  C   LIG     1      23.983  21.481  20.235  1.00  0.00     0.003 C 
HETATM   11  C   LIG     1      24.949  20.248  20.173  1.00  0.00     0.020 C 
HETATM   12  C   LIG     1      24.743  22.817  20.243  1.00  0.00     0.002 C 
HETATM   13  C   LIG     1      25.291  22.987  18.831  1.00  0.00     0.010 C 
HETATM   14  C   LIG     1      24.255  22.286  17.933  1.00  0.00     0.052 C 
HETATM   15  C   LIG     1      23.214  21.620  18.878  1.00  0.00     0.128 C 
HETATM   16  C   LIG     1      22.734  20.325  18.337  1.00  0.00    -0.078 C 
HETATM   17  C   LIG     1      22.342  19.274  17.897  1.00  0.00     0.015 C 
HETATM   18  C   LIG     1      25.762  23.032  23.945  1.00  0.00    -0.047 A 
HETATM   19  C   LIG     1      25.048  23.310  25.128  1.00  0.00     0.011 A 
HETATM   20  C   LIG     1      25.694  23.887  26.224  1.00  0.00     0.037 A 
ENDROOT
BRANCH  15  21
HETATM   21  O   LIG     1      22.109  22.483  19.035  1.00  0.00    -0.377 OA
HETATM   22  H   LIG     1      21.830  22.799  18.134  1.00  0.00     0.211 HD
ENDBRANCH  15  21
BRANCH   1  23
HETATM   23  O   LIG     1      27.709  24.763  27.249  1.00  0.00    -0.361 OA
HETATM   24  H   LIG     1      27.229  25.391  27.885  1.00  0.00     0.217 HD
ENDBRANCH   1  23
TORSDOF 2
ENDMDL
MODEL 3
REMARK VINA RESULT:      -5.9      1.464      6.801
REMARK  2 active torsions:
REMARK  status: ('A' for Active; 'I' for Inactive)
REMARK    1  A    between atoms: O_1  and  C_2 
REMARK    2  A    between atoms: C_16  and  O_19 
ROOT
HETATM    1  C   LIG     1      28.076  26.190  29.064  1.00  0.00     0.066 A 
HETATM    2  C   LIG     1      28.736  27.414  29.190  1.00  0.00     0.044 A 
HETATM    3  C   LIG     1      28.637  28.165  30.371  1.00  0.00    -0.049 A 
HETATM    4  C   LIG     1      29.441  29.457  30.478  1.00  0.00     0.039 C 
HETATM    5  C   LIG     1      29.495  30.117  31.883  1.00  0.00     0.010 C 
HETATM    6  C   LIG     1      29.102  29.128  32.993  1.00  0.00    -0.001 C 
HETATM    7  C   LIG     1      27.697  28.560  32.666  1.00  0.00     0.023 C 
HETATM    8  C   LIG     1      27.032  27.933  33.916  1.00  0.00     0.010 C 
HETATM    9  C   LIG     1      26.828  28.963  35.068  1.00  0.00     0.014 C 
HETATM   10  C   LIG     1      27.888  30.119  35.099  1.00  0.00     0.003 C 
HETATM   11  C   LIG     1      27.310  31.386  34.379  1.00  0.00     0.020 C 
HETATM   12  C   LIG     1      29.198  29.633  34.460  1.00  0.00     0.002 C 
HETATM   13  C   LIG     1      30.254  30.660  34.855  1.00  0.00     0.010 C 
HETATM   14  C   LIG     1      29.793  31.169  36.234  1.00  0.00     0.052 C 
HETATM   15  C   LIG     1      28.413  30.511  36.521  1.00  0.00     0.128 C 
HETATM   16  C   LIG     1      27.508  31.433  37.249  1.00  0.00    -0.078 C 
HETATM   17  C   LIG     1      26.774  32.181  37.844  1.00  0.00     0.015 C 
HETATM   18  C   LIG     1      27.837  27.683  31.439  1.00  0.00    -0.047 A 
HETATM   19  C   LIG     1      27.188  26.439  31.306  1.00  0.00     0.011 A 
HETATM   20  C   LIG     1      27.308  25.701  30.126  1.00  0.00     0.037 A 
ENDROOT
BRANCH  15  21
HETATM   21  O   LIG     1      28.603  29.352  37.303  1.00  0.00    -0.377 OA
HETATM   22  H   LIG     1      29.412  29.485  37.866  1.00  0.00     0.211 HD
ENDBRANCH  15  21
BRANCH   1  23
HETATM   23  O   LIG     1      28.195  25.464  27.881  1.00  0.00    -0.361 OA
HETATM   24  H   LIG     1      27.908  24.493  27.825  1.00  0.00     0.217 HD
ENDBRANCH   1  23
TORSDOF 2
ENDMDL
MODEL 4
REMARK VINA RESULT:      -5.8     14.208     16.147
REMARK  2 active torsions:
REMARK  status: ('A' for Active; 'I' for Inactive)
REMARK    1  A    between atoms: O_1  and  C_2 
REMARK    2  A    between atoms: C_16  and  O_19 
ROOT
HETATM    1  C   LIG     1      29.661  26.226  16.933  1.00  0.00     0.066 A 
HETATM    2  C   LIG     1      29.469  24.866  16.682  1.00  0.00     0.044 A 
HETATM    3  C   LIG     1      28.513  24.131  17.399  1.00  0.00    -0.049 A 
HETATM    4  C   LIG     1      28.296  22.668  17.027  1.00  0.00     0.039 C 
HETATM    5  C   LIG     1      27.066  21.972  17.671  1.00  0.00     0.010 C 
HETATM    6  C   LIG     1      26.051  22.993  18.211  1.00  0.00    -0.001 C 
HETATM    7  C   LIG     1      26.784  23.928  19.207  1.00  0.00     0.023 C 
HETATM    8  C   LIG     1      25.784  24.670  20.129  1.00  0.00     0.010 C 
HETATM    9  C   LIG     1      24.929  23.695  20.995  1.00  0.00     0.014 C 
HETATM   10  C   LIG     1      24.673  22.296  20.334  1.00  0.00     0.003 C 
HETATM   11  C   LIG     1      25.713  21.256  20.876  1.00  0.00     0.020 C 
HETATM   12  C   LIG     1      24.728  22.433  18.804  1.00  0.00     0.002 C 
HETATM   13  C   LIG     1      24.119  21.147  18.255  1.00  0.00     0.010 C 
HETATM   14  C   LIG     1      23.078  20.736  19.313  1.00  0.00     0.052 C 
HETATM   15  C   LIG     1      23.222  21.731  20.500  1.00  0.00     0.128 C 
HETATM   16  C   LIG     1      22.996  21.063  21.804  1.00  0.00    -0.078 C 
HETATM   17  C   LIG     1      22.809  20.521  22.864  1.00  0.00     0.015 C 
HETATM   18  C   LIG     1      27.750  24.776  18.407  1.00  0.00    -0.047 A 
HETATM   19  C   LIG     1      27.942  26.152  18.641  1.00  0.00     0.011 A 
HETATM   20  C   LIG     1      28.892  26.869  17.909  1.00  0.00     0.037 A 
ENDROOT
BRANCH  15  21
HETATM   21  O   LIG     1      22.279  22.769  20.353  1.00  0.00    -0.377 OA
HETATM   22  H   LIG     1      22.762  23.638  20.394  1.00  0.00     0.211 HD
ENDBRANCH  15  21
BRANCH   1  23
HETATM   23  O   LIG     1      30.615  26.933  16.204  1.00  0.00    -0.361 OA
HETATM   24  H   LIG     1      31.605  26.731  16.291  1.00  0.00     0.217 HD
ENDBRANCH   1  23
TORSDOF 2
ENDMDL
MODEL 5
REMARK VINA RESULT:      -5.8     12.734     14.841
REMARK  2 active torsions:
REMARK  status: ('A' for Active; 'I' for Inactive)
REMARK    1  A    between atoms: O_1  and  C_2 
REMARK    2  A    between atoms: C_16  and  O_19 
ROOT
HETATM    1  C   LIG     1      23.248  20.640  23.610  1.00  0.00     0.066 A 
HETATM    2  C   LIG     1      23.003  20.831  22.248  1.00  0.00     0.044 A 
HETATM    3  C   LIG     1      23.810  21.690  21.487  1.00  0.00    -0.049 A 
HETATM    4  C   LIG     1      23.541  21.800  19.990  1.00  0.00     0.039 C 
HETATM    5  C   LIG     1      24.606  22.560  19.155  1.00  0.00     0.010 C 
HETATM    6  C   LIG     1      25.941  22.680  19.908  1.00  0.00    -0.001 C 
HETATM    7  C   LIG     1      25.672  23.361  21.274  1.00  0.00     0.023 C 
HETATM    8  C   LIG     1      26.973  23.932  21.890  1.00  0.00     0.010 C 
HETATM    9  C   LIG     1      27.640  25.015  20.989  1.00  0.00     0.014 C 
HETATM   10  C   LIG     1      27.380  24.828  19.453  1.00  0.00     0.003 C 
HETATM   11  C   LIG     1      26.186  25.739  19.004  1.00  0.00     0.020 C 
HETATM   12  C   LIG     1      27.126  23.343  19.151  1.00  0.00     0.002 C 
HETATM   13  C   LIG     1      27.250  23.205  17.637  1.00  0.00     0.010 C 
HETATM   14  C   LIG     1      28.283  24.276  17.239  1.00  0.00     0.052 C 
HETATM   15  C   LIG     1      28.617  25.083  18.527  1.00  0.00     0.128 C 
HETATM   16  C   LIG     1      28.845  26.517  18.230  1.00  0.00    -0.078 C 
HETATM   17  C   LIG     1      29.034  27.683  17.988  1.00  0.00     0.015 C 
HETATM   18  C   LIG     1      24.874  22.388  22.116  1.00  0.00    -0.047 A 
HETATM   19  C   LIG     1      25.121  22.174  23.487  1.00  0.00     0.011 A 
HETATM   20  C   LIG     1      24.312  21.307  24.225  1.00  0.00     0.037 A 
ENDROOT
BRANCH  15  21
HETATM   21  O   LIG     1      29.782  24.552  19.120  1.00  0.00    -0.377 OA
HETATM   22  H   LIG     1      30.081  23.774  18.577  1.00  0.00     0.211 HD
ENDBRANCH  15  21
BRANCH   1  23
HETATM   23  O   LIG     1      22.433  19.779  24.340  1.00  0.00    -0.361 OA
HETATM   24  H   LIG     1      22.188  18.859  23.992  1.00  0.00     0.217 HD
ENDBRANCH   1  23
TORSDOF 2
ENDMDL
MODEL 6
REMARK VINA RESULT:      -5.7      8.142     12.543
REMARK  2 active torsions:
REMARK  status: ('A' for Active; 'I' for Inactive)
REMARK    1  A    between atoms: O_1  and  C_2 
REMARK    2  A    between atoms: C_16  and  O_19 
ROOT
HETATM    1  C   LIG     1      26.455  23.934  27.866  1.00  0.00     0.066 A 
HETATM    2  C   LIG     1      25.358  23.078  27.754  1.00  0.00     0.044 A 
HETATM    3  C   LIG     1      24.905  22.652  26.496  1.00  0.00    -0.049 A 
HETATM    4  C   LIG     1      23.750  21.657  26.440  1.00  0.00     0.039 C 
HETATM    5  C   LIG     1      23.452  21.029  25.052  1.00  0.00     0.010 C 
HETATM    6  C   LIG     1      24.641  21.185  24.089  1.00  0.00    -0.001 C 
HETATM    7  C   LIG     1      24.992  22.692  23.987  1.00  0.00     0.023 C 
HETATM    8  C   LIG     1      25.841  22.993  22.728  1.00  0.00     0.010 C 
HETATM    9  C   LIG     1      25.103  22.628  21.404  1.00  0.00     0.014 C 
HETATM   10  C   LIG     1      24.083  21.445  21.537  1.00  0.00     0.003 C 
HETATM   11  C   LIG     1      22.636  22.013  21.738  1.00  0.00     0.020 C 
HETATM   12  C   LIG     1      24.511  20.522  22.689  1.00  0.00     0.002 C 
HETATM   13  C   LIG     1      23.703  19.241  22.513  1.00  0.00     0.010 C 
HETATM   14  C   LIG     1      23.501  19.124  20.990  1.00  0.00     0.052 C 
HETATM   15  C   LIG     1      24.088  20.417  20.355  1.00  0.00     0.128 C 
HETATM   16  C   LIG     1      23.294  20.861  19.185  1.00  0.00    -0.078 C 
HETATM   17  C   LIG     1      22.650  21.221  18.232  1.00  0.00     0.015 C 
HETATM   18  C   LIG     1      25.559  23.116  25.326  1.00  0.00    -0.047 A 
HETATM   19  C   LIG     1      26.675  23.968  25.452  1.00  0.00     0.011 A 
HETATM   20  C   LIG     1      27.117  24.372  26.715  1.00  0.00     0.037 A 
ENDROOT
BRANCH  15  21
HETATM   21  O   LIG     1      25.413  20.170  19.936  1.00  0.00    -0.377 OA
HETATM   22  H   LIG     1      25.834  21.040  19.705  1.00  0.00     0.211 HD
ENDBRANCH  15  21
BRANCH   1  23
HETATM   23  O   LIG     1      26.885  24.338  29.128  1.00  0.00    -0.361 OA
HETATM   24  H   LIG     1      27.349  23.696  29.761  1.00  0.00     0.217 HD
ENDBRANCH   1  23
TORSDOF 2
ENDMDL
MODEL 7
REMARK VINA RESULT:      -5.7     14.484     16.580
REMARK  2 active torsions:
REMARK  status: ('A' for Active; 'I' for Inactive)
REMARK    1  A    between atoms: O_1  and  C_2 
REMARK    2  A    between atoms: C_16  and  O_19 
ROOT
HETATM    1  C   LIG     1      28.840  25.818  18.033  1.00  0.00     0.066 A 
HETATM    2  C   LIG     1      27.795  25.862  18.958  1.00  0.00     0.044 A 
HETATM    3  C   LIG     1      26.872  24.809  19.049  1.00  0.00    -0.049 A 
HETATM    4  C   LIG     1      25.797  24.879  20.129  1.00  0.00     0.039 C 
HETATM    5  C   LIG     1      24.963  23.588  20.352  1.00  0.00     0.010 C 
HETATM    6  C   LIG     1      25.657  22.352  19.757  1.00  0.00    -0.001 C 
HETATM    7  C   LIG     1      25.931  22.621  18.255  1.00  0.00     0.023 C 
HETATM    8  C   LIG     1      26.194  21.306  17.480  1.00  0.00     0.010 C 
HETATM    9  C   LIG     1      24.983  20.326  17.533  1.00  0.00     0.014 C 
HETATM   10  C   LIG     1      24.109  20.445  18.830  1.00  0.00     0.003 C 
HETATM   11  C   LIG     1      22.866  21.359  18.548  1.00  0.00     0.020 C 
HETATM   12  C   LIG     1      24.972  20.975  19.985  1.00  0.00     0.002 C 
HETATM   13  C   LIG     1      24.167  20.714  21.253  1.00  0.00     0.010 C 
HETATM   14  C   LIG     1      23.363  19.438  20.940  1.00  0.00     0.052 C 
HETATM   15  C   LIG     1      23.637  19.086  19.449  1.00  0.00     0.128 C 
HETATM   16  C   LIG     1      22.434  18.524  18.790  1.00  0.00    -0.078 C 
HETATM   17  C   LIG     1      21.457  18.065  18.255  1.00  0.00     0.015 C 
HETATM   18  C   LIG     1      26.992  23.699  18.173  1.00  0.00    -0.047 A 
HETATM   19  C   LIG     1      28.060  23.659  17.255  1.00  0.00     0.011 A 
HETATM   20  C   LIG     1      28.975  24.712  17.188  1.00  0.00     0.037 A 
ENDROOT
BRANCH  15  21
HETATM   21  O   LIG     1      24.678  18.136  19.379  1.00  0.00    -0.377 OA
HETATM   22  H   LIG     1      24.274  17.244  19.203  1.00  0.00     0.211 HD
ENDBRANCH  15  21
BRANCH   1  23
HETATM   23  O   LIG     1      29.744  26.876  17.967  1.00  0.00    -0.361 OA
HETATM   24  H   LIG     1      29.924  27.365  17.098  1.00  0.00     0.217 HD
ENDBRANCH   1  23
TORSDOF 2
ENDMDL
MODEL 8
REMARK VINA RESULT:      -5.3     12.050     15.047
REMARK  2 active torsions:
REMARK  status: ('A' for Active; 'I' for Inactive)
REMARK    1  A    between atoms: O_1  and  C_2 
REMARK    2  A    between atoms: C_16  and  O_19 
ROOT
HETATM    1  C   LIG     1      22.258  20.017  26.721  1.00  0.00     0.066 A 
HETATM    2  C   LIG     1      23.117  20.960  26.153  1.00  0.00     0.044 A 
HETATM    3  C   LIG     1      23.461  20.892  24.794  1.00  0.00    -0.049 A 
HETATM    4  C   LIG     1      24.342  21.993  24.213  1.00  0.00     0.039 C 
HETATM    5  C   LIG     1      24.487  22.011  22.667  1.00  0.00     0.010 C 
HETATM    6  C   LIG     1      23.378  21.198  21.981  1.00  0.00    -0.001 C 
HETATM    7  C   LIG     1      23.402  19.758  22.555  1.00  0.00     0.023 C 
HETATM    8  C   LIG     1      22.659  18.764  21.628  1.00  0.00     0.010 C 
HETATM    9  C   LIG     1      23.295  18.677  20.207  1.00  0.00     0.014 C 
HETATM   10  C   LIG     1      23.998  19.995  19.731  1.00  0.00     0.003 C 
HETATM   11  C   LIG     1      25.538  19.903  20.008  1.00  0.00     0.020 C 
HETATM   12  C   LIG     1      23.352  21.204  20.426  1.00  0.00     0.002 C 
HETATM   13  C   LIG     1      23.828  22.427  19.651  1.00  0.00     0.010 C 
HETATM   14  C   LIG     1      24.005  21.919  18.208  1.00  0.00     0.052 C 
HETATM   15  C   LIG     1      23.752  20.384  18.234  1.00  0.00     0.128 C 
HETATM   16  C   LIG     1      24.637  19.667  17.286  1.00  0.00    -0.078 C 
HETATM   17  C   LIG     1      25.355  19.085  16.512  1.00  0.00     0.015 C 
HETATM   18  C   LIG     1      22.946  19.837  23.997  1.00  0.00    -0.047 A 
HETATM   19  C   LIG     1      22.068  18.900  24.578  1.00  0.00     0.011 A 
HETATM   20  C   LIG     1      21.729  18.992  25.930  1.00  0.00     0.037 A 
ENDROOT
BRANCH  15  21
HETATM   21  O   LIG     1      22.409  20.128  17.883  1.00  0.00    -0.377 OA
HETATM   22  H   LIG     1      22.299  19.147  17.770  1.00  0.00     0.211 HD
ENDBRANCH  15  21
BRANCH   1  23
HETATM   23  O   LIG     1      21.931  20.111  28.072  1.00  0.00    -0.361 OA
HETATM   24  H   LIG     1      21.391  20.890  28.433  1.00  0.00     0.217 HD
ENDBRANCH   1  23
TORSDOF 2
ENDMDL
MODEL 9
REMARK VINA RESULT:      -5.2     12.285     14.251
REMARK  2 active torsions:
REMARK  status: ('A' for Active; 'I' for Inactive)
REMARK    1  A    between atoms: O_1  and  C_2 
REMARK    2  A    between atoms: C_16  and  O_19 
ROOT
HETATM    1  C   LIG     1      27.940  26.295  19.068  1.00  0.00     0.066 A 
HETATM    2  C   LIG     1      27.015  25.387  18.548  1.00  0.00     0.044 A 
HETATM    3  C   LIG     1      26.496  24.356  19.345  1.00  0.00    -0.049 A 
HETATM    4  C   LIG     1      25.433  23.441  18.745  1.00  0.00     0.039 C 
HETATM    5  C   LIG     1      24.714  22.483  19.733  1.00  0.00     0.010 C 
HETATM    6  C   LIG     1      24.888  22.935  21.192  1.00  0.00    -0.001 C 
HETATM    7  C   LIG     1      26.405  23.053  21.489  1.00  0.00     0.023 C 
HETATM    8  C   LIG     1      26.688  23.049  23.012  1.00  0.00     0.010 C 
HETATM    9  C   LIG     1      26.208  21.739  23.708  1.00  0.00     0.014 C 
HETATM   10  C   LIG     1      24.975  21.054  23.022  1.00  0.00     0.003 C 
HETATM   11  C   LIG     1      25.468  19.913  22.066  1.00  0.00     0.020 C 
HETATM   12  C   LIG     1      24.144  22.115  22.283  1.00  0.00     0.002 C 
HETATM   13  C   LIG     1      22.809  21.446  21.970  1.00  0.00     0.010 C 
HETATM   14  C   LIG     1      22.599  20.454  23.129  1.00  0.00     0.052 C 
HETATM   15  C   LIG     1      23.888  20.494  23.999  1.00  0.00     0.128 C 
HETATM   16  C   LIG     1      24.220  19.157  24.546  1.00  0.00    -0.078 C 
HETATM   17  C   LIG     1      24.489  18.071  24.994  1.00  0.00     0.015 C 
HETATM   18  C   LIG     1      26.934  24.224  20.688  1.00  0.00    -0.047 A 
HETATM   19  C   LIG     1      27.856  25.156  21.206  1.00  0.00     0.011 A 
HETATM   20  C   LIG     1      28.353  26.183  20.399  1.00  0.00     0.037 A 
ENDROOT
BRANCH  15  21
HETATM   21  O   LIG     1      23.697  21.389  25.074  1.00  0.00    -0.377 OA
HETATM   22  H   LIG     1      24.131  22.253  24.841  1.00  0.00     0.211 HD
ENDBRANCH  15  21
BRANCH   1  23
HETATM   23  O   LIG     1      28.436  27.311  18.254  1.00  0.00    -0.361 OA
HETATM   24  H   LIG     1      28.657  28.228  18.627  1.00  0.00     0.217 HD
ENDBRANCH   1  23
TORSDOF 2
ENDMDL
MODEL 10
REMARK VINA RESULT:      -5.2      8.610     13.437
REMARK  2 active torsions:
REMARK  status: ('A' for Active; 'I' for Inactive)
REMARK    1  A    between atoms: O_1  and  C_2 
REMARK    2  A    between atoms: C_16  and  O_19 
ROOT
HETATM    1  C   LIG     1      23.542  22.054  19.062  1.00  0.00     0.066 A 
HETATM    2  C   LIG     1      23.107  21.418  20.226  1.00  0.00     0.044 A 
HETATM    3  C   LIG     1      23.810  21.567  21.431  1.00  0.00    -0.049 A 
HETATM    4  C   LIG     1      23.245  20.911  22.687  1.00  0.00     0.039 C 
HETATM    5  C   LIG     1      23.915  21.308  24.030  1.00  0.00     0.010 C 
HETATM    6  C   LIG     1      24.724  22.609  23.900  1.00  0.00    -0.001 C 
HETATM    7  C   LIG     1      25.759  22.428  22.760  1.00  0.00     0.023 C 
HETATM    8  C   LIG     1      26.898  23.474  22.855  1.00  0.00     0.010 C 
HETATM    9  C   LIG     1      27.698  23.371  24.189  1.00  0.00     0.014 C 
HETATM   10  C   LIG     1      26.863  22.839  25.405  1.00  0.00     0.003 C 
HETATM   11  C   LIG     1      27.109  21.301  25.584  1.00  0.00     0.020 C 
HETATM   12  C   LIG     1      25.377  23.170  25.194  1.00  0.00     0.002 C 
HETATM   13  C   LIG     1      24.712  22.958  26.550  1.00  0.00     0.010 C 
HETATM   14  C   LIG     1      25.810  23.304  27.572  1.00  0.00     0.052 C 
HETATM   15  C   LIG     1      27.112  23.576  26.764  1.00  0.00     0.128 C 
HETATM   16  C   LIG     1      28.314  23.093  27.485  1.00  0.00    -0.078 C 
HETATM   17  C   LIG     1      29.292  22.704  28.072  1.00  0.00     0.015 C 
HETATM   18  C   LIG     1      24.990  22.356  21.457  1.00  0.00    -0.047 A 
HETATM   19  C   LIG     1      25.410  23.004  20.279  1.00  0.00     0.011 A 
HETATM   20  C   LIG     1      24.690  22.852  19.092  1.00  0.00     0.037 A 
ENDROOT
BRANCH  15  21
HETATM   21  O   LIG     1      27.242  24.964  26.544  1.00  0.00    -0.377 OA
HETATM   22  H   LIG     1      27.916  25.104  25.827  1.00  0.00     0.211 HD
ENDBRANCH  15  21
BRANCH   1  23
HETATM   23  O   LIG     1      22.822  21.891  17.880  1.00  0.00    -0.361 OA
HETATM   24  H   LIG     1      21.814  21.996  17.855  1.00  0.00     0.217 HD
ENDBRANCH   1  23
TORSDOF 2
ENDMDL
MODEL 11
REMARK VINA RESULT:      -5.1      1.470      2.907
REMARK  2 active torsions:
REMARK  status: ('A' for Active; 'I' for Inactive)
REMARK    1  A    between atoms: O_1  and  C_2 
REMARK    2  A    between atoms: C_16  and  O_19 
ROOT
HETATM    1  C   LIG     1      27.652  31.296  36.487  1.00  0.00     0.066 A 
HETATM    2  C   LIG     1      26.691  30.461  35.914  1.00  0.00     0.044 A 
HETATM    3  C   LIG     1      26.965  29.755  34.733  1.00  0.00    -0.049 A 
HETATM    4  C   LIG     1      25.903  28.800  34.197  1.00  0.00     0.039 C 
HETATM    5  C   LIG     1      26.344  27.863  33.040  1.00  0.00     0.010 C 
HETATM    6  C   LIG     1      27.875  27.759  32.943  1.00  0.00    -0.001 C 
HETATM    7  C   LIG     1      28.453  29.190  32.792  1.00  0.00     0.023 C 
HETATM    8  C   LIG     1      29.899  29.162  32.236  1.00  0.00     0.010 C 
HETATM    9  C   LIG     1      29.987  28.505  30.825  1.00  0.00     0.014 C 
HETATM   10  C   LIG     1      28.899  27.410  30.551  1.00  0.00     0.003 C 
HETATM   11  C   LIG     1      27.700  28.040  29.762  1.00  0.00     0.020 C 
HETATM   12  C   LIG     1      28.454  26.782  31.882  1.00  0.00     0.002 C 
HETATM   13  C   LIG     1      27.696  25.513  31.505  1.00  0.00     0.010 C 
HETATM   14  C   LIG     1      28.371  25.038  30.205  1.00  0.00     0.052 C 
HETATM   15  C   LIG     1      29.407  26.129  29.808  1.00  0.00     0.128 C 
HETATM   16  C   LIG     1      29.491  26.295  28.337  1.00  0.00    -0.078 C 
HETATM   17  C   LIG     1      29.561  26.428  27.141  1.00  0.00     0.015 C 
HETATM   18  C   LIG     1      28.227  29.911  34.104  1.00  0.00    -0.047 A 
HETATM   19  C   LIG     1      29.195  30.745  34.699  1.00  0.00     0.011 A 
HETATM   20  C   LIG     1      28.906  31.431  35.882  1.00  0.00     0.037 A 
ENDROOT
BRANCH  15  21
HETATM   21  O   LIG     1      30.680  25.760  30.295  1.00  0.00    -0.377 OA
HETATM   22  H   LIG     1      31.321  26.487  30.073  1.00  0.00     0.211 HD
ENDBRANCH  15  21
BRANCH   1  23
HETATM   23  O   LIG     1      27.355  31.983  37.661  1.00  0.00    -0.361 OA
HETATM   24  H   LIG     1      26.397  32.159  37.943  1.00  0.00     0.217 HD
ENDBRANCH   1  23
TORSDOF 2
ENDMDL
MODEL 12
REMARK VINA RESULT:      -5.0      2.504      4.150
REMARK  2 active torsions:
REMARK  status: ('A' for Active; 'I' for Inactive)
REMARK    1  A    between atoms: O_1  and  C_2 
REMARK    2  A    between atoms: C_16  and  O_19 
ROOT
HETATM    1  C   LIG     1      27.101  27.691  35.717  1.00  0.00     0.066 A 
HETATM    2  C   LIG     1      27.414  26.371  35.385  1.00  0.00     0.044 A 
HETATM    3  C   LIG     1      27.521  25.975  34.043  1.00  0.00    -0.049 A 
HETATM    4  C   LIG     1      27.940  24.539  33.744  1.00  0.00     0.039 C 
HETATM    5  C   LIG     1      28.286  24.220  32.264  1.00  0.00     0.010 C 
HETATM    6  C   LIG     1      28.567  25.498  31.456  1.00  0.00    -0.001 C 
HETATM    7  C   LIG     1      27.339  26.435  31.582  1.00  0.00     0.023 C 
HETATM    8  C   LIG     1      27.326  27.508  30.465  1.00  0.00     0.010 C 
HETATM    9  C   LIG     1      27.255  26.888  29.037  1.00  0.00     0.014 C 
HETATM   10  C   LIG     1      27.915  25.470  28.913  1.00  0.00     0.003 C 
HETATM   11  C   LIG     1      26.813  24.361  29.034  1.00  0.00     0.020 C 
HETATM   12  C   LIG     1      29.013  25.319  29.978  1.00  0.00     0.002 C 
HETATM   13  C   LIG     1      29.827  24.100  29.559  1.00  0.00     0.010 C 
HETATM   14  C   LIG     1      29.738  24.092  28.021  1.00  0.00     0.052 C 
HETATM   15  C   LIG     1      28.763  25.235  27.618  1.00  0.00     0.128 C 
HETATM   16  C   LIG     1      27.946  24.866  26.438  1.00  0.00    -0.078 C 
HETATM   17  C   LIG     1      27.283  24.568  25.476  1.00  0.00     0.015 C 
HETATM   18  C   LIG     1      27.286  26.924  33.015  1.00  0.00    -0.047 A 
HETATM   19  C   LIG     1      26.986  28.256  33.363  1.00  0.00     0.011 A 
HETATM   20  C   LIG     1      26.894  28.633  34.705  1.00  0.00     0.037 A 
ENDROOT
BRANCH  15  21
HETATM   21  O   LIG     1      29.506  26.394  27.310  1.00  0.00    -0.377 OA
HETATM   22  H   LIG     1      30.013  26.226  26.471  1.00  0.00     0.211 HD
ENDBRANCH  15  21
BRANCH   1  23
HETATM   23  O   LIG     1      27.004  28.058  37.058  1.00  0.00    -0.361 OA
HETATM   24  H   LIG     1      27.194  29.006  37.362  1.00  0.00     0.217 HD
ENDBRANCH   1  23
TORSDOF 2
ENDMDL
MODEL 13
REMARK VINA RESULT:      -4.9      8.428     12.611
REMARK  2 active torsions:
REMARK  status: ('A' for Active; 'I' for Inactive)
REMARK    1  A    between atoms: O_1  and  C_2 
REMARK    2  A    between atoms: C_16  and  O_19 
ROOT
HETATM    1  C   LIG     1      26.985  24.414  19.195  1.00  0.00     0.066 A 
HETATM    2  C   LIG     1      26.294  23.306  19.690  1.00  0.00     0.044 A 
HETATM    3  C   LIG     1      26.294  23.015  21.063  1.00  0.00    -0.049 A 
HETATM    4  C   LIG     1      25.459  21.836  21.553  1.00  0.00     0.039 C 
HETATM    5  C   LIG     1      25.292  21.707  23.092  1.00  0.00     0.010 C 
HETATM    6  C   LIG     1      25.624  23.023  23.813  1.00  0.00    -0.001 C 
HETATM    7  C   LIG     1      27.060  23.451  23.414  1.00  0.00     0.023 C 
HETATM    8  C   LIG     1      27.645  24.479  24.413  1.00  0.00     0.010 C 
HETATM    9  C   LIG     1      27.747  23.917  25.863  1.00  0.00     0.014 C 
HETATM   10  C   LIG     1      26.665  22.837  26.216  1.00  0.00     0.003 C 
HETATM   11  C   LIG     1      27.269  21.402  26.027  1.00  0.00     0.020 C 
HETATM   12  C   LIG     1      25.414  23.061  25.353  1.00  0.00     0.002 C 
HETATM   13  C   LIG     1      24.312  22.229  26.002  1.00  0.00     0.010 C 
HETATM   14  C   LIG     1      24.664  22.236  27.502  1.00  0.00     0.052 C 
HETATM   15  C   LIG     1      26.033  22.962  27.643  1.00  0.00     0.128 C 
HETATM   16  C   LIG     1      26.864  22.357  28.711  1.00  0.00    -0.078 C 
HETATM   17  C   LIG     1      27.540  21.869  29.582  1.00  0.00     0.015 C 
HETATM   18  C   LIG     1      27.025  23.845  21.952  1.00  0.00    -0.047 A 
HETATM   19  C   LIG     1      27.706  24.968  21.442  1.00  0.00     0.011 A 
HETATM   20  C   LIG     1      27.684  25.247  20.073  1.00  0.00     0.037 A 
ENDROOT
BRANCH  15  21
HETATM   21  O   LIG     1      25.809  24.319  27.956  1.00  0.00    -0.377 OA
HETATM   22  H   LIG     1      26.186  24.874  27.222  1.00  0.00     0.211 HD
ENDBRANCH  15  21
BRANCH   1  23
HETATM   23  O   LIG     1      26.965  24.682  17.828  1.00  0.00    -0.361 OA
HETATM   24  H   LIG     1      26.497  24.064  17.174  1.00  0.00     0.217 HD
ENDBRANCH   1  23
TORSDOF 2
ENDMDL
MODEL 14
REMARK VINA RESULT:      -4.8      1.815      7.220
REMARK  2 active torsions:
REMARK  status: ('A' for Active; 'I' for Inactive)
REMARK    1  A    between atoms: O_1  and  C_2 
REMARK    2  A    between atoms: C_16  and  O_19 
ROOT
HETATM    1  C   LIG     1      28.994  25.831  27.330  1.00  0.00     0.066 A 
HETATM    2  C   LIG     1      28.416  25.262  28.467  1.00  0.00     0.044 A 
HETATM    3  C   LIG     1      28.397  25.955  29.686  1.00  0.00    -0.049 A 
HETATM    4  C   LIG     1      27.685  25.313  30.873  1.00  0.00     0.039 C 
HETATM    5  C   LIG     1      27.474  26.218  32.118  1.00  0.00     0.010 C 
HETATM    6  C   LIG     1      27.625  27.708  31.771  1.00  0.00    -0.001 C 
HETATM    7  C   LIG     1      29.017  27.920  31.121  1.00  0.00     0.023 C 
HETATM    8  C   LIG     1      29.442  29.409  31.160  1.00  0.00     0.010 C 
HETATM    9  C   LIG     1      29.551  29.964  32.613  1.00  0.00     0.014 C 
HETATM   10  C   LIG     1      28.588  29.277  33.643  1.00  0.00     0.003 C 
HETATM   11  C   LIG     1      29.358  28.156  34.422  1.00  0.00     0.020 C 
HETATM   12  C   LIG     1      27.353  28.732  32.908  1.00  0.00     0.002 C 
HETATM   13  C   LIG     1      26.330  28.424  33.997  1.00  0.00     0.010 C 
HETATM   14  C   LIG     1      26.620  29.461  35.098  1.00  0.00     0.052 C 
HETATM   15  C   LIG     1      27.891  30.244  34.658  1.00  0.00     0.128 C 
HETATM   16  C   LIG     1      28.745  30.596  35.818  1.00  0.00    -0.078 C 
HETATM   17  C   LIG     1      29.438  30.886  36.760  1.00  0.00     0.015 C 
HETATM   18  C   LIG     1      28.993  27.240  29.768  1.00  0.00    -0.047 A 
HETATM   19  C   LIG     1      29.560  27.810  28.611  1.00  0.00     0.011 A 
HETATM   20  C   LIG     1      29.559  27.108  27.403  1.00  0.00     0.037 A 
ENDROOT
BRANCH  15  21
HETATM   21  O   LIG     1      27.501  31.432  34.005  1.00  0.00    -0.377 OA
HETATM   22  H   LIG     1      26.719  31.228  33.425  1.00  0.00     0.211 HD
ENDBRANCH  15  21
BRANCH   1  23
HETATM   23  O   LIG     1      28.996  25.122  26.131  1.00  0.00    -0.361 OA
HETATM   24  H   LIG     1      29.261  25.561  25.257  1.00  0.00     0.217 HD
ENDBRANCH   1  23
TORSDOF 2
ENDMDL
MODEL 15
REMARK VINA RESULT:      -4.8      2.083      7.140
REMARK  2 active torsions:
REMARK  status: ('A' for Active; 'I' for Inactive)
REMARK    1  A    between atoms: O_1  and  C_2 
REMARK    2  A    between atoms: C_16  and  O_19 
ROOT
HETATM    1  C   LIG     1      27.754  24.065  30.394  1.00  0.00     0.066 A 
HETATM    2  C   LIG     1      28.346  23.830  31.637  1.00  0.00     0.044 A 
HETATM    3  C   LIG     1      28.355  24.823  32.628  1.00  0.00    -0.049 A 
HETATM    4  C   LIG     1      28.948  24.482  33.991  1.00  0.00     0.039 C 
HETATM    5  C   LIG     1      28.712  25.520  35.121  1.00  0.00     0.010 C 
HETATM    6  C   LIG     1      27.561  26.481  34.781  1.00  0.00    -0.001 C 
HETATM    7  C   LIG     1      27.875  27.156  33.421  1.00  0.00     0.023 C 
HETATM    8  C   LIG     1      27.038  28.444  33.220  1.00  0.00     0.010 C 
HETATM    9  C   LIG     1      27.317  29.519  34.314  1.00  0.00     0.014 C 
HETATM   10  C   LIG     1      27.741  28.932  35.705  1.00  0.00     0.003 C 
HETATM   11  C   LIG     1      29.303  28.949  35.833  1.00  0.00     0.020 C 
HETATM   12  C   LIG     1      27.159  27.519  35.867  1.00  0.00     0.002 C 
HETATM   13  C   LIG     1      27.301  27.182  37.347  1.00  0.00     0.010 C 
HETATM   14  C   LIG     1      27.176  28.541  38.061  1.00  0.00     0.052 C 
HETATM   15  C   LIG     1      27.100  29.629  36.952  1.00  0.00     0.128 C 
HETATM   16  C   LIG     1      27.799  30.872  37.356  1.00  0.00    -0.078 C 
HETATM   17  C   LIG     1      28.365  31.884  37.686  1.00  0.00     0.015 C 
HETATM   18  C   LIG     1      27.776  26.089  32.351  1.00  0.00    -0.047 A 
HETATM   19  C   LIG     1      27.169  26.310  31.099  1.00  0.00     0.011 A 
HETATM   20  C   LIG     1      27.160  25.304  30.130  1.00  0.00     0.037 A 
ENDROOT
BRANCH  15  21
HETATM   21  O   LIG     1      25.747  29.935  36.692  1.00  0.00    -0.377 OA
HETATM   22  H   LIG     1      25.231  29.085  36.684  1.00  0.00     0.211 HD
ENDBRANCH  15  21
BRANCH   1  23
HETATM   23  O   LIG     1      27.756  23.060  29.430  1.00  0.00    -0.361 OA
HETATM   24  H   LIG     1      26.893  22.692  29.047  1.00  0.00     0.217 HD
ENDBRANCH   1  23
TORSDOF 2
ENDMDL
MODEL 16
REMARK VINA RESULT:      -4.7      4.456      9.568
REMARK  2 active torsions:
REMARK  status: ('A' for Active; 'I' for Inactive)
REMARK    1  A    between atoms: O_1  and  C_2 
REMARK    2  A    between atoms: C_16  and  O_19 
ROOT
HETATM    1  C   LIG     1      28.150  24.544  22.203  1.00  0.00     0.066 A 
HETATM    2  C   LIG     1      28.875  25.547  22.849  1.00  0.00     0.044 A 
HETATM    3  C   LIG     1      28.733  25.762  24.228  1.00  0.00    -0.049 A 
HETATM    4  C   LIG     1      29.608  26.821  24.891  1.00  0.00     0.039 C 
HETATM    5  C   LIG     1      29.595  26.848  26.444  1.00  0.00     0.010 C 
HETATM    6  C   LIG     1      29.055  25.535  27.032  1.00  0.00    -0.001 C 
HETATM    7  C   LIG     1      27.646  25.277  26.439  1.00  0.00     0.023 C 
HETATM    8  C   LIG     1      26.848  24.260  27.292  1.00  0.00     0.010 C 
HETATM    9  C   LIG     1      26.622  24.749  28.755  1.00  0.00     0.014 C 
HETATM   10  C   LIG     1      27.748  25.693  29.303  1.00  0.00     0.003 C 
HETATM   11  C   LIG     1      27.310  27.190  29.141  1.00  0.00     0.020 C 
HETATM   12  C   LIG     1      29.070  25.392  28.580  1.00  0.00     0.002 C 
HETATM   13  C   LIG     1      30.156  26.071  29.408  1.00  0.00     0.010 C 
HETATM   14  C   LIG     1      29.623  26.018  30.852  1.00  0.00     0.052 C 
HETATM   15  C   LIG     1      28.185  25.427  30.783  1.00  0.00     0.128 C 
HETATM   16  C   LIG     1      27.288  26.053  31.784  1.00  0.00    -0.078 C 
HETATM   17  C   LIG     1      26.560  26.559  32.600  1.00  0.00     0.015 C 
HETATM   18  C   LIG     1      27.824  24.962  24.968  1.00  0.00    -0.047 A 
HETATM   19  C   LIG     1      27.109  23.943  24.308  1.00  0.00     0.011 A 
HETATM   20  C   LIG     1      27.272  23.738  22.936  1.00  0.00     0.037 A 
ENDROOT
BRANCH  15  21
HETATM   21  O   LIG     1      28.240  24.039  31.029  1.00  0.00    -0.377 OA
HETATM   22  H   LIG     1      27.474  23.795  31.613  1.00  0.00     0.211 HD
ENDBRANCH  15  21
BRANCH   1  23
HETATM   23  O   LIG     1      28.313  24.351  20.833  1.00  0.00    -0.361 OA
HETATM   24  H   LIG     1      29.190  24.020  20.446  1.00  0.00     0.217 HD
ENDBRANCH   1  23
TORSDOF 2
ENDMDL
MODEL 17
REMARK VINA RESULT:      -4.7     12.273     16.727
REMARK  2 active torsions:
REMARK  status: ('A' for Active; 'I' for Inactive)
REMARK    1  A    between atoms: O_1  and  C_2 
REMARK    2  A    between atoms: C_16  and  O_19 
ROOT
HETATM    1  C   LIG     1      29.990  25.594  14.600  1.00  0.00     0.066 A 
HETATM    2  C   LIG     1      29.763  24.241  14.861  1.00  0.00     0.044 A 
HETATM    3  C   LIG     1      29.099  23.837  16.030  1.00  0.00    -0.049 A 
HETATM    4  C   LIG     1      28.812  22.351  16.224  1.00  0.00     0.039 C 
HETATM    5  C   LIG     1      27.864  21.983  17.397  1.00  0.00     0.010 C 
HETATM    6  C   LIG     1      27.046  23.196  17.871  1.00  0.00    -0.001 C 
HETATM    7  C   LIG     1      28.031  24.333  18.247  1.00  0.00     0.023 C 
HETATM    8  C   LIG     1      27.353  25.396  19.147  1.00  0.00     0.010 C 
HETATM    9  C   LIG     1      26.838  24.803  20.493  1.00  0.00     0.014 C 
HETATM   10  C   LIG     1      26.422  23.293  20.419  1.00  0.00     0.003 C 
HETATM   11  C   LIG     1      27.605  22.392  20.916  1.00  0.00     0.020 C 
HETATM   12  C   LIG     1      25.990  22.948  18.985  1.00  0.00     0.002 C 
HETATM   13  C   LIG     1      25.272  21.607  19.083  1.00  0.00     0.010 C 
HETATM   14  C   LIG     1      24.627  21.621  20.482  1.00  0.00     0.052 C 
HETATM   15  C   LIG     1      25.112  22.918  21.190  1.00  0.00     0.128 C 
HETATM   16  C   LIG     1      25.323  22.703  22.642  1.00  0.00    -0.078 C 
HETATM   17  C   LIG     1      25.492  22.528  23.822  1.00  0.00     0.015 C 
HETATM   18  C   LIG     1      28.675  24.817  16.965  1.00  0.00    -0.047 A 
HETATM   19  C   LIG     1      28.897  26.179  16.683  1.00  0.00     0.011 A 
HETATM   20  C   LIG     1      29.550  26.561  15.509  1.00  0.00     0.037 A 
ENDROOT
BRANCH  15  21
HETATM   21  O   LIG     1      24.144  23.931  21.019  1.00  0.00    -0.377 OA
HETATM   22  H   LIG     1      24.146  24.206  20.064  1.00  0.00     0.211 HD
ENDBRANCH  15  21
BRANCH   1  23
HETATM   23  O   LIG     1      30.649  25.966  13.430  1.00  0.00    -0.361 OA
HETATM   24  H   LIG     1      31.616  25.712  13.263  1.00  0.00     0.217 HD
ENDBRANCH   1  23
TORSDOF 2
ENDMDL
MODEL 18
REMARK VINA RESULT:      -4.6     12.714     14.311
REMARK  2 active torsions:
REMARK  status: ('A' for Active; 'I' for Inactive)
REMARK    1  A    between atoms: O_1  and  C_2 
REMARK    2  A    between atoms: C_16  and  O_19 
ROOT
HETATM    1  C   LIG     1      27.771  26.220  19.228  1.00  0.00     0.066 A 
HETATM    2  C   LIG     1      28.197  25.638  20.424  1.00  0.00     0.044 A 
HETATM    3  C   LIG     1      27.451  24.615  21.030  1.00  0.00    -0.049 A 
HETATM    4  C   LIG     1      28.006  23.966  22.294  1.00  0.00     0.039 C 
HETATM    5  C   LIG     1      27.279  22.683  22.782  1.00  0.00     0.010 C 
HETATM    6  C   LIG     1      26.421  22.057  21.670  1.00  0.00    -0.001 C 
HETATM    7  C   LIG     1      25.430  23.132  21.155  1.00  0.00     0.023 C 
HETATM    8  C   LIG     1      24.246  22.491  20.387  1.00  0.00     0.010 C 
HETATM    9  C   LIG     1      23.411  21.519  21.274  1.00  0.00     0.014 C 
HETATM   10  C   LIG     1      24.230  20.814  22.411  1.00  0.00     0.003 C 
HETATM   11  C   LIG     1      24.043  21.593  23.759  1.00  0.00     0.020 C 
HETATM   12  C   LIG     1      25.707  20.715  21.996  1.00  0.00     0.002 C 
HETATM   13  C   LIG     1      26.339  19.718  22.961  1.00  0.00     0.010 C 
HETATM   14  C   LIG     1      25.197  18.744  23.306  1.00  0.00     0.052 C 
HETATM   15  C   LIG     1      23.911  19.297  22.628  1.00  0.00     0.128 C 
HETATM   16  C   LIG     1      22.708  19.061  23.462  1.00  0.00    -0.078 C 
HETATM   17  C   LIG     1      21.730  18.867  24.139  1.00  0.00     0.015 C 
HETATM   18  C   LIG     1      26.240  24.185  20.429  1.00  0.00    -0.047 A 
HETATM   19  C   LIG     1      25.829  24.769  19.214  1.00  0.00     0.011 A 
HETATM   20  C   LIG     1      26.591  25.779  18.621  1.00  0.00     0.037 A 
ENDROOT
BRANCH  15  21
HETATM   21  O   LIG     1      23.730  18.658  21.382  1.00  0.00    -0.377 OA
HETATM   22  H   LIG     1      24.238  17.804  21.394  1.00  0.00     0.211 HD
ENDBRANCH  15  21
BRANCH   1  23
HETATM   23  O   LIG     1      28.532  27.232  18.647  1.00  0.00    -0.361 OA
HETATM   24  H   LIG     1      29.240  27.028  17.951  1.00  0.00     0.217 HD
ENDBRANCH   1  23
TORSDOF 2
ENDMDL
MODEL 19
REMARK VINA RESULT:      -4.6     11.261     13.702
REMARK  2 active torsions:
REMARK  status: ('A' for Active; 'I' for Inactive)
REMARK    1  A    between atoms: O_1  and  C_2 
REMARK    2  A    between atoms: C_16  and  O_19 
ROOT
HETATM    1  C   LIG     1      27.443  24.738  18.360  1.00  0.00     0.066 A 
HETATM    2  C   LIG     1      28.089  24.782  19.597  1.00  0.00     0.044 A 
HETATM    3  C   LIG     1      27.485  24.240  20.742  1.00  0.00    -0.049 A 
HETATM    4  C   LIG     1      28.271  24.250  22.049  1.00  0.00     0.039 C 
HETATM    5  C   LIG     1      27.670  23.423  23.218  1.00  0.00     0.010 C 
HETATM    6  C   LIG     1      26.637  22.399  22.718  1.00  0.00    -0.001 C 
HETATM    7  C   LIG     1      25.548  23.155  21.915  1.00  0.00     0.023 C 
HETATM    8  C   LIG     1      24.259  22.310  21.771  1.00  0.00     0.010 C 
HETATM    9  C   LIG     1      23.616  21.955  23.146  1.00  0.00     0.014 C 
HETATM   10  C   LIG     1      24.641  21.836  24.327  1.00  0.00     0.003 C 
HETATM   11  C   LIG     1      24.685  23.183  25.128  1.00  0.00     0.020 C 
HETATM   12  C   LIG     1      26.020  21.441  23.775  1.00  0.00     0.002 C 
HETATM   13  C   LIG     1      26.835  20.997  24.985  1.00  0.00     0.010 C 
HETATM   14  C   LIG     1      25.793  20.398  25.949  1.00  0.00     0.052 C 
HETATM   15  C   LIG     1      24.395  20.643  25.312  1.00  0.00     0.128 C 
HETATM   16  C   LIG     1      23.368  20.931  26.341  1.00  0.00    -0.078 C 
HETATM   17  C   LIG     1      22.532  21.162  27.178  1.00  0.00     0.015 C 
HETATM   18  C   LIG     1      26.194  23.661  20.641  1.00  0.00    -0.047 A 
HETATM   19  C   LIG     1      25.559  23.608  19.384  1.00  0.00     0.011 A 
HETATM   20  C   LIG     1      26.181  24.144  18.254  1.00  0.00     0.037 A 
ENDROOT
BRANCH  15  21
HETATM   21  O   LIG     1      24.005  19.494  24.591  1.00  0.00    -0.377 OA
HETATM   22  H   LIG     1      23.046  19.590  24.347  1.00  0.00     0.211 HD
ENDBRANCH  15  21
BRANCH   1  23
HETATM   23  O   LIG     1      28.067  25.281  17.239  1.00  0.00    -0.361 OA
HETATM   24  H   LIG     1      28.990  25.698  17.296  1.00  0.00     0.217 HD
ENDBRANCH   1  23
TORSDOF 2
ENDMDL
MODEL 20
REMARK VINA RESULT:      -4.6      6.115     11.213
REMARK  2 active torsions:
REMARK  status: ('A' for Active; 'I' for Inactive)
REMARK    1  A    between atoms: O_1  and  C_2 
REMARK    2  A    between atoms: C_16  and  O_19 
ROOT
HETATM    1  C   LIG     1      27.442  24.657  20.249  1.00  0.00     0.066 A 
HETATM    2  C   LIG     1      26.928  23.718  21.146  1.00  0.00     0.044 A 
HETATM    3  C   LIG     1      27.226  23.794  22.515  1.00  0.00    -0.049 A 
HETATM    4  C   LIG     1      26.575  22.785  23.456  1.00  0.00     0.039 C 
HETATM    5  C   LIG     1      26.734  23.062  24.975  1.00  0.00     0.010 C 
HETATM    6  C   LIG     1      27.136  24.520  25.250  1.00  0.00    -0.001 C 
HETATM    7  C   LIG     1      28.434  24.827  24.459  1.00  0.00     0.023 C 
HETATM    8  C   LIG     1      29.155  26.079  25.015  1.00  0.00     0.010 C 
HETATM    9  C   LIG     1      29.582  25.914  26.505  1.00  0.00     0.014 C 
HETATM   10  C   LIG     1      28.657  24.965  27.343  1.00  0.00     0.003 C 
HETATM   11  C   LIG     1      29.285  23.530  27.403  1.00  0.00     0.020 C 
HETATM   12  C   LIG     1      27.244  24.958  26.738  1.00  0.00     0.002 C 
HETATM   13  C   LIG     1      26.346  24.326  27.796  1.00  0.00     0.010 C 
HETATM   14  C   LIG     1      26.997  24.723  29.134  1.00  0.00     0.052 C 
HETATM   15  C   LIG     1      28.324  25.458  28.792  1.00  0.00     0.128 C 
HETATM   16  C   LIG     1      29.389  25.153  29.777  1.00  0.00    -0.078 C 
HETATM   17  C   LIG     1      30.254  24.907  30.579  1.00  0.00     0.015 C 
HETATM   18  C   LIG     1      28.078  24.826  22.987  1.00  0.00    -0.047 A 
HETATM   19  C   LIG     1      28.578  25.777  22.075  1.00  0.00     0.011 A 
HETATM   20  C   LIG     1      28.261  25.690  20.717  1.00  0.00     0.037 A 
ENDROOT
BRANCH  15  21
HETATM   21  O   LIG     1      28.097  26.851  28.788  1.00  0.00    -0.377 OA
HETATM   22  H   LIG     1      27.627  27.092  29.630  1.00  0.00     0.211 HD
ENDBRANCH  15  21
BRANCH   1  23
HETATM   23  O   LIG     1      27.127  24.559  18.896  1.00  0.00    -0.361 OA
HETATM   24  H   LIG     1      27.773  24.149  18.231  1.00  0.00     0.217 HD
ENDBRANCH   1  23
TORSDOF 2
ENDMDL
