REMARK  2 active torsions:
REMARK  status: ('A' for Active; 'I' for Inactive)
REMARK    1  A    between atoms: O_1  and  C_2 
REMARK    2  A    between atoms: C_16  and  O_19 
ROOT
HETATM    1  C   LIG     1       5.201   0.057  -0.460  1.00  0.00     0.066 A 
HETATM    2  C   LIG     1       4.389   1.107  -0.026  1.00  0.00     0.044 A 
HETATM    3  C   LIG     1       2.991   0.986  -0.039  1.00  0.00    -0.049 A 
HETATM    4  C   LIG     1       2.159   2.137   0.518  1.00  0.00     0.039 C 
HETATM    5  C   LIG     1       0.644   1.857   0.712  1.00  0.00     0.010 C 
HETATM    6  C   LIG     1       0.340   0.350   0.724  1.00  0.00    -0.001 C 
HETATM    7  C   LIG     1       0.887  -0.269  -0.588  1.00  0.00     0.023 C 
HETATM    8  C   LIG     1       0.242  -1.647  -0.878  1.00  0.00     0.010 C 
HETATM    9  C   LIG     1      -1.305  -1.562  -1.049  1.00  0.00     0.014 C 
HETATM   10  C   LIG     1      -1.984  -0.406  -0.235  1.00  0.00     0.003 C 
HETATM   11  C   LIG     1      -2.197   0.840  -1.162  1.00  0.00     0.020 C 
HETATM   12  C   LIG     1      -1.130  -0.075   0.999  1.00  0.00     0.002 C 
HETATM   13  C   LIG     1      -2.022   0.770   1.902  1.00  0.00     0.010 C 
HETATM   14  C   LIG     1      -3.446   0.254   1.622  1.00  0.00     0.052 C 
HETATM   15  C   LIG     1      -3.333  -0.781   0.466  1.00  0.00     0.128 C 
HETATM   16  C   LIG     1      -4.505  -0.719  -0.440  1.00  0.00    -0.078 C 
HETATM   17  C   LIG     1      -5.459  -0.671  -1.175  1.00  0.00     0.015 C 
HETATM   18  C   LIG     1       2.399  -0.210  -0.521  1.00  0.00    -0.047 A 
HETATM   19  C   LIG     1       3.229  -1.268  -0.942  1.00  0.00     0.011 A 
HETATM   20  C   LIG     1       4.619  -1.132  -0.911  1.00  0.00     0.037 A 
ENDROOT
BRANCH  15  21
HETATM   21  O   LIG     1      -3.250  -2.080   1.011  1.00  0.00    -0.377 OA
HETATM   22  H   LIG     1      -4.100  -2.272   1.490  1.00  0.00     0.211 HD
ENDBRANCH  15  21
BRANCH   1  23
HETATM   23  O   LIG     1       6.586   0.203  -0.433  1.00  0.00    -0.361 OA
HETATM   24  H   LIG     1       7.203  -0.541  -0.739  1.00  0.00     0.217 HD
ENDBRANCH   1  23
TORSDOF 2
