MODEL 1
REMARK VINA RESULT:      -5.1      0.000      0.000
REMARK  7 active torsions:
REMARK  status: ('A' for Active; 'I' for Inactive)
REMARK    1  A    between atoms: N_2  and  C_3 
REMARK    2  A    between atoms: C_11  and  O_12 
REMARK    3  A    between atoms: C_18  and  O_19 
REMARK    4  A    between atoms: C_21  and  O_32 
REMARK    5  A    between atoms: C_22  and  O_31 
REMARK    6  A    between atoms: C_24  and  C_25 
REMARK       I    between atoms: C_25  and  N_26 
REMARK    7  A    between atoms: C_28  and  O_29 
ROOT
HETATM    1  C   LIG     1      23.209  20.596  23.726  1.00  0.00     0.286 C 
HETATM    2  C   LIG     1      24.157  20.832  22.510  1.00  0.00     0.075 C 
HETATM    3  C   LIG     1      23.524  20.394  21.187  1.00  0.00     0.024 C 
HETATM    4  C   LIG     1      24.579  20.456  20.059  1.00  0.00     0.065 C 
HETATM    5  C   LIG     1      25.398  21.739  20.077  1.00  0.00     0.033 C 
HETATM    6  C   LIG     1      26.235  21.987  18.874  1.00  0.00     0.195 C 
HETATM    7  C   LIG     1      26.239  20.999  17.766  1.00  0.00     0.059 C 
HETATM    8  C   LIG     1      25.102  20.166  17.583  1.00  0.00     0.015 C 
HETATM    9  C   LIG     1      23.982  20.158  18.638  1.00  0.00     0.092 C 
HETATM   10  C   LIG     1      22.920  21.205  18.207  1.00  0.00     0.052 C 
HETATM   11  C   LIG     1      24.988  19.431  16.367  1.00  0.00     0.044 C 
HETATM   12 CL   LIG     1      23.535  18.549  15.895  1.00  0.00    -0.084 Cl
HETATM   13  C   LIG     1      26.034  19.432  15.445  1.00  0.00     0.027 C 
HETATM   14  C   LIG     1      27.191  20.161  15.689  1.00  0.00     0.039 C 
HETATM   15  C   LIG     1      27.314  20.932  16.842  1.00  0.00     0.080 C 
HETATM   16  O   LIG     1      26.878  23.063  18.750  1.00  0.00    -0.287 OA
HETATM   17  C   LIG     1      25.412  22.579  21.149  1.00  0.00     0.097 C 
HETATM   18  C   LIG     1      24.592  22.307  22.415  1.00  0.00     0.177 C 
HETATM   19  C   LIG     1      25.357  22.553  23.700  1.00  0.00     0.208 C 
HETATM   20  C   LIG     1      24.686  22.234  24.980  1.00  0.00     0.112 C 
HETATM   21  C   LIG     1      23.631  21.384  24.982  1.00  0.00     0.096 C 
HETATM   22  O   LIG     1      26.556  22.942  23.693  1.00  0.00    -0.288 OA
ENDROOT
BRANCH  20  23
HETATM   23  C   LIG     1      25.140  22.898  26.228  1.00  0.00     0.255 C 
HETATM   24  N   LIG     1      25.435  24.298  26.247  1.00  0.00    -0.366 N 
HETATM   25  H   LIG     1      25.215  24.907  25.426  1.00  0.00     0.159 HD
HETATM   26  H   LIG     1      25.823  24.741  27.109  1.00  0.00     0.159 HD
HETATM   27  O   LIG     1      25.269  22.231  27.291  1.00  0.00    -0.268 OA
ENDBRANCH  20  23
BRANCH  21  28
HETATM   28  O   LIG     1      22.861  21.271  26.140  1.00  0.00    -0.362 OA
HETATM   29  H   LIG     1      23.213  21.546  27.046  1.00  0.00     0.217 HD
ENDBRANCH  21  28
BRANCH  18  30
HETATM   30  O   LIG     1      23.446  23.128  22.386  1.00  0.00    -0.374 OA
HETATM   31  H   LIG     1      22.683  22.600  22.741  1.00  0.00     0.211 HD
ENDBRANCH  18  30
BRANCH   1  32
HETATM   32  N   LIG     1      23.098  19.126  23.955  1.00  0.00     0.091 N 
HETATM   33  C   LIG     1      24.178  18.530  24.763  1.00  0.00     0.310 C 
HETATM   34  C   LIG     1      21.773  18.674  24.418  1.00  0.00     0.310 C 
ENDBRANCH   1  32
BRANCH  17  35
HETATM   35  O   LIG     1      26.125  23.779  21.069  1.00  0.00    -0.361 OA
HETATM   36  H   LIG     1      27.130  23.805  20.946  1.00  0.00     0.217 HD
ENDBRANCH  17  35
BRANCH   9  37
HETATM   37  O   LIG     1      23.421  18.862  18.683  1.00  0.00    -0.385 OA
HETATM   38  H   LIG     1      23.636  18.387  17.840  1.00  0.00     0.211 HD
ENDBRANCH   9  37
BRANCH  15  39
HETATM   39  O   LIG     1      28.526  21.594  17.043  1.00  0.00    -0.360 OA
HETATM   40  H   LIG     1      29.382  21.120  17.302  1.00  0.00     0.217 HD
ENDBRANCH  15  39
TORSDOF 7
ENDMDL
MODEL 2
REMARK VINA RESULT:      -4.9      2.215      3.294
REMARK  7 active torsions:
REMARK  status: ('A' for Active; 'I' for Inactive)
REMARK    1  A    between atoms: N_2  and  C_3 
REMARK    2  A    between atoms: C_11  and  O_12 
REMARK    3  A    between atoms: C_18  and  O_19 
REMARK    4  A    between atoms: C_21  and  O_32 
REMARK    5  A    between atoms: C_22  and  O_31 
REMARK    6  A    between atoms: C_24  and  C_25 
REMARK       I    between atoms: C_25  and  N_26 
REMARK    7  A    between atoms: C_28  and  O_29 
ROOT
HETATM    1  C   LIG     1      23.655  20.516  26.409  1.00  0.00     0.286 C 
HETATM    2  C   LIG     1      24.516  21.052  25.223  1.00  0.00     0.075 C 
HETATM    3  C   LIG     1      23.684  21.278  23.958  1.00  0.00     0.024 C 
HETATM    4  C   LIG     1      24.620  21.604  22.771  1.00  0.00     0.065 C 
HETATM    5  C   LIG     1      25.694  22.623  23.120  1.00  0.00     0.033 C 
HETATM    6  C   LIG     1      26.451  23.182  21.969  1.00  0.00     0.195 C 
HETATM    7  C   LIG     1      26.139  22.722  20.592  1.00  0.00     0.059 C 
HETATM    8  C   LIG     1      24.837  22.226  20.310  1.00  0.00     0.015 C 
HETATM    9  C   LIG     1      23.844  21.989  21.462  1.00  0.00     0.092 C 
HETATM   10  C   LIG     1      22.998  23.280  21.629  1.00  0.00     0.052 C 
HETATM   11  C   LIG     1      24.455  22.057  18.948  1.00  0.00     0.044 C 
HETATM   12 CL   LIG     1      22.810  21.682  18.437  1.00  0.00    -0.084 Cl
HETATM   13  C   LIG     1      25.388  22.248  17.928  1.00  0.00     0.027 C 
HETATM   14  C   LIG     1      26.693  22.622  18.224  1.00  0.00     0.039 C 
HETATM   15  C   LIG     1      27.084  22.848  19.542  1.00  0.00     0.080 C 
HETATM   16  O   LIG     1      27.297  24.100  22.141  1.00  0.00    -0.287 OA
HETATM   17  C   LIG     1      25.988  22.961  24.406  1.00  0.00     0.097 C 
HETATM   18  C   LIG     1      25.249  22.352  25.603  1.00  0.00     0.177 C 
HETATM   19  C   LIG     1      26.163  21.945  26.741  1.00  0.00     0.208 C 
HETATM   20  C   LIG     1      25.560  21.265  27.908  1.00  0.00     0.112 C 
HETATM   21  C   LIG     1      24.350  20.668  27.775  1.00  0.00     0.096 C 
HETATM   22  O   LIG     1      27.412  22.104  26.676  1.00  0.00    -0.288 OA
ENDROOT
BRANCH  20  23
HETATM   23  C   LIG     1      26.259  21.302  29.217  1.00  0.00     0.255 C 
HETATM   24  N   LIG     1      27.056  22.429  29.590  1.00  0.00    -0.366 N 
HETATM   25  H   LIG     1      27.060  23.302  29.013  1.00  0.00     0.159 HD
HETATM   26  H   LIG     1      27.603  22.415  30.479  1.00  0.00     0.159 HD
HETATM   27  O   LIG     1      26.156  20.334  30.020  1.00  0.00    -0.268 OA
ENDBRANCH  20  23
BRANCH  21  28
HETATM   28  O   LIG     1      23.684  20.237  28.924  1.00  0.00    -0.362 OA
HETATM   29  H   LIG     1      23.849  19.326  29.329  1.00  0.00     0.217 HD
ENDBRANCH  21  28
BRANCH  18  30
HETATM   30  O   LIG     1      24.309  23.294  26.070  1.00  0.00    -0.374 OA
HETATM   31  H   LIG     1      24.801  24.122  26.314  1.00  0.00     0.211 HD
ENDBRANCH  18  30
BRANCH   1  32
HETATM   32  N   LIG     1      23.250  19.114  26.099  1.00  0.00     0.091 N 
HETATM   33  C   LIG     1      24.223  18.076  26.487  1.00  0.00     0.310 C 
HETATM   34  C   LIG     1      21.887  18.758  26.532  1.00  0.00     0.310 C 
ENDBRANCH   1  32
BRANCH  17  35
HETATM   35  O   LIG     1      26.933  23.961  24.652  1.00  0.00    -0.361 OA
HETATM   36  H   LIG     1      26.708  24.947  24.589  1.00  0.00     0.217 HD
ENDBRANCH  17  35
BRANCH   9  37
HETATM   37  O   LIG     1      23.022  20.890  21.122  1.00  0.00    -0.385 OA
HETATM   38  H   LIG     1      22.292  20.815  21.789  1.00  0.00     0.211 HD
ENDBRANCH   9  37
BRANCH  15  39
HETATM   39  O   LIG     1      28.424  23.169  19.765  1.00  0.00    -0.360 OA
HETATM   40  H   LIG     1      29.079  22.542  20.216  1.00  0.00     0.217 HD
ENDBRANCH  15  39
TORSDOF 7
ENDMDL
MODEL 3
REMARK VINA RESULT:      -4.8      3.186      5.727
REMARK  7 active torsions:
REMARK  status: ('A' for Active; 'I' for Inactive)
REMARK    1  A    between atoms: N_2  and  C_3 
REMARK    2  A    between atoms: C_11  and  O_12 
REMARK    3  A    between atoms: C_18  and  O_19 
REMARK    4  A    between atoms: C_21  and  O_32 
REMARK    5  A    between atoms: C_22  and  O_31 
REMARK    6  A    between atoms: C_24  and  C_25 
REMARK       I    between atoms: C_25  and  N_26 
REMARK    7  A    between atoms: C_28  and  O_29 
ROOT
HETATM    1  C   LIG     1      29.234  24.595  24.813  1.00  0.00     0.286 C 
HETATM    2  C   LIG     1      27.868  24.200  24.172  1.00  0.00     0.075 C 
HETATM    3  C   LIG     1      28.045  23.409  22.873  1.00  0.00     0.024 C 
HETATM    4  C   LIG     1      26.673  23.231  22.181  1.00  0.00     0.065 C 
HETATM    5  C   LIG     1      25.572  22.806  23.141  1.00  0.00     0.033 C 
HETATM    6  C   LIG     1      24.304  22.355  22.509  1.00  0.00     0.195 C 
HETATM    7  C   LIG     1      24.179  22.360  21.029  1.00  0.00     0.059 C 
HETATM    8  C   LIG     1      25.354  22.241  20.239  1.00  0.00     0.015 C 
HETATM    9  C   LIG     1      26.737  22.310  20.912  1.00  0.00     0.092 C 
HETATM   10  C   LIG     1      27.171  20.858  21.251  1.00  0.00     0.052 C 
HETATM   11  C   LIG     1      25.213  21.959  18.850  1.00  0.00     0.044 C 
HETATM   12 CL   LIG     1      26.567  21.551  17.796  1.00  0.00    -0.084 Cl
HETATM   13  C   LIG     1      23.947  21.936  18.263  1.00  0.00     0.027 C 
HETATM   14  C   LIG     1      22.810  22.168  19.026  1.00  0.00     0.039 C 
HETATM   15  C   LIG     1      22.909  22.393  20.397  1.00  0.00     0.080 C 
HETATM   16  O   LIG     1      23.364  21.896  23.211  1.00  0.00    -0.287 OA
HETATM   17  C   LIG     1      25.713  22.886  24.493  1.00  0.00     0.097 C 
HETATM   18  C   LIG     1      26.997  23.396  25.155  1.00  0.00     0.177 C 
HETATM   19  C   LIG     1      26.751  24.354  26.303  1.00  0.00     0.208 C 
HETATM   20  C   LIG     1      27.926  24.976  26.953  1.00  0.00     0.112 C 
HETATM   21  C   LIG     1      29.107  25.015  26.290  1.00  0.00     0.096 C 
HETATM   22  O   LIG     1      25.585  24.682  26.654  1.00  0.00    -0.288 OA
ENDROOT
BRANCH  20  23
HETATM   23  C   LIG     1      27.807  25.488  28.342  1.00  0.00     0.255 C 
HETATM   24  N   LIG     1      27.027  24.789  29.315  1.00  0.00    -0.366 N 
HETATM   25  H   LIG     1      26.633  23.841  29.112  1.00  0.00     0.159 HD
HETATM   26  H   LIG     1      26.888  25.195  30.268  1.00  0.00     0.159 HD
HETATM   27  O   LIG     1      28.397  26.550  28.679  1.00  0.00    -0.268 OA
ENDBRANCH  20  23
BRANCH  21  28
HETATM   28  O   LIG     1      30.258  25.384  26.988  1.00  0.00    -0.362 OA
HETATM   29  H   LIG     1      30.223  25.991  27.796  1.00  0.00     0.217 HD
ENDBRANCH  21  28
BRANCH  18  30
HETATM   30  O   LIG     1      27.728  22.284  25.620  1.00  0.00    -0.374 OA
HETATM   31  H   LIG     1      27.526  21.514  25.026  1.00  0.00     0.211 HD
ENDBRANCH  18  30
BRANCH   1  32
HETATM   32  N   LIG     1      29.873  25.632  23.952  1.00  0.00     0.091 N 
HETATM   33  C   LIG     1      30.682  25.113  22.834  1.00  0.00     0.310 C 
HETATM   34  C   LIG     1      28.965  26.704  23.503  1.00  0.00     0.310 C 
ENDBRANCH   1  32
BRANCH  17  35
HETATM   35  O   LIG     1      24.690  22.405  25.317  1.00  0.00    -0.361 OA
HETATM   36  H   LIG     1      24.648  21.441  25.622  1.00  0.00     0.217 HD
ENDBRANCH  17  35
BRANCH   9  37
HETATM   37  O   LIG     1      27.644  22.907  20.006  1.00  0.00    -0.385 OA
HETATM   38  H   LIG     1      28.412  22.295  19.868  1.00  0.00     0.211 HD
ENDBRANCH   9  37
BRANCH  15  39
HETATM   39  O   LIG     1      21.728  22.670  21.087  1.00  0.00    -0.360 OA
HETATM   40  H   LIG     1      21.707  22.995  22.046  1.00  0.00     0.217 HD
ENDBRANCH  15  39
TORSDOF 7
ENDMDL
MODEL 4
REMARK VINA RESULT:      -4.7      4.159      8.423
REMARK  7 active torsions:
REMARK  status: ('A' for Active; 'I' for Inactive)
REMARK    1  A    between atoms: N_2  and  C_3 
REMARK    2  A    between atoms: C_11  and  O_12 
REMARK    3  A    between atoms: C_18  and  O_19 
REMARK    4  A    between atoms: C_21  and  O_32 
REMARK    5  A    between atoms: C_22  and  O_31 
REMARK    6  A    between atoms: C_24  and  C_25 
REMARK       I    between atoms: C_25  and  N_26 
REMARK    7  A    between atoms: C_28  and  O_29 
ROOT
HETATM    1  C   LIG     1      25.364  22.256  21.571  1.00  0.00     0.286 C 
HETATM    2  C   LIG     1      26.083  23.073  22.689  1.00  0.00     0.075 C 
HETATM    3  C   LIG     1      26.166  22.300  24.008  1.00  0.00     0.024 C 
HETATM    4  C   LIG     1      26.694  23.231  25.125  1.00  0.00     0.065 C 
HETATM    5  C   LIG     1      27.898  24.056  24.694  1.00  0.00     0.033 C 
HETATM    6  C   LIG     1      28.619  24.763  25.785  1.00  0.00     0.195 C 
HETATM    7  C   LIG     1      28.134  24.643  27.183  1.00  0.00     0.059 C 
HETATM    8  C   LIG     1      27.397  23.487  27.560  1.00  0.00     0.015 C 
HETATM    9  C   LIG     1      26.945  22.485  26.483  1.00  0.00     0.092 C 
HETATM   10  C   LIG     1      28.040  21.390  26.367  1.00  0.00     0.052 C 
HETATM   11  C   LIG     1      27.184  23.240  28.947  1.00  0.00     0.044 C 
HETATM   12 CL   LIG     1      26.501  21.740  29.574  1.00  0.00    -0.084 Cl
HETATM   13  C   LIG     1      27.576  24.183  29.897  1.00  0.00     0.027 C 
HETATM   14  C   LIG     1      28.193  25.364  29.507  1.00  0.00     0.039 C 
HETATM   15  C   LIG     1      28.466  25.613  28.164  1.00  0.00     0.080 C 
HETATM   16  O   LIG     1      29.682  25.396  25.548  1.00  0.00    -0.287 OA
HETATM   17  C   LIG     1      28.261  24.188  23.388  1.00  0.00     0.097 C 
HETATM   18  C   LIG     1      27.495  23.505  22.251  1.00  0.00     0.177 C 
HETATM   19  C   LIG     1      27.253  24.403  21.054  1.00  0.00     0.208 C 
HETATM   20  C   LIG     1      26.444  23.869  19.937  1.00  0.00     0.112 C 
HETATM   21  C   LIG     1      25.622  22.814  20.158  1.00  0.00     0.096 C 
HETATM   22  O   LIG     1      27.656  25.597  21.030  1.00  0.00    -0.288 OA
ENDROOT
BRANCH  20  23
HETATM   23  C   LIG     1      26.591  24.457  18.581  1.00  0.00     0.255 C 
HETATM   24  N   LIG     1      27.882  24.798  18.068  1.00  0.00    -0.366 N 
HETATM   25  H   LIG     1      28.754  24.524  18.576  1.00  0.00     0.159 HD
HETATM   26  H   LIG     1      27.969  25.278  17.145  1.00  0.00     0.159 HD
HETATM   27  O   LIG     1      25.574  24.661  17.863  1.00  0.00    -0.268 OA
ENDBRANCH  20  23
BRANCH  21  28
HETATM   28  O   LIG     1      25.045  22.170  19.062  1.00  0.00    -0.362 OA
HETATM   29  H   LIG     1      24.044  22.072  18.965  1.00  0.00     0.217 HD
ENDBRANCH  21  28
BRANCH  18  30
HETATM   30  O   LIG     1      28.223  22.368  21.845  1.00  0.00    -0.374 OA
HETATM   31  H   LIG     1      28.718  22.602  21.016  1.00  0.00     0.211 HD
ENDBRANCH  18  30
BRANCH   1  32
HETATM   32  N   LIG     1      23.916  22.160  21.918  1.00  0.00     0.091 N 
HETATM   33  C   LIG     1      23.087  23.301  21.487  1.00  0.00     0.310 C 
HETATM   34  C   LIG     1      23.284  20.876  21.566  1.00  0.00     0.310 C 
ENDBRANCH   1  32
BRANCH  17  35
HETATM   35  O   LIG     1      29.423  24.898  23.070  1.00  0.00    -0.361 OA
HETATM   36  H   LIG     1      29.848  25.558  23.709  1.00  0.00     0.217 HD
ENDBRANCH  17  35
BRANCH   9  37
HETATM   37  O   LIG     1      25.713  21.922  26.886  1.00  0.00    -0.385 OA
HETATM   38  H   LIG     1      25.319  21.425  26.124  1.00  0.00     0.211 HD
ENDBRANCH   9  37
BRANCH  15  39
HETATM   39  O   LIG     1      29.040  26.845  27.845  1.00  0.00    -0.360 OA
HETATM   40  H   LIG     1      29.747  27.293  28.416  1.00  0.00     0.217 HD
ENDBRANCH  15  39
TORSDOF 7
ENDMDL
MODEL 5
REMARK VINA RESULT:      -4.5      3.562      8.367
REMARK  7 active torsions:
REMARK  status: ('A' for Active; 'I' for Inactive)
REMARK    1  A    between atoms: N_2  and  C_3 
REMARK    2  A    between atoms: C_11  and  O_12 
REMARK    3  A    between atoms: C_18  and  O_19 
REMARK    4  A    between atoms: C_21  and  O_32 
REMARK    5  A    between atoms: C_22  and  O_31 
REMARK    6  A    between atoms: C_24  and  C_25 
REMARK       I    between atoms: C_25  and  N_26 
REMARK    7  A    between atoms: C_28  and  O_29 
ROOT
HETATM    1  C   LIG     1      26.530  23.036  20.855  1.00  0.00     0.286 C 
HETATM    2  C   LIG     1      25.968  22.276  22.096  1.00  0.00     0.075 C 
HETATM    3  C   LIG     1      26.332  22.967  23.413  1.00  0.00     0.024 C 
HETATM    4  C   LIG     1      25.933  22.063  24.603  1.00  0.00     0.065 C 
HETATM    5  C   LIG     1      24.538  21.471  24.460  1.00  0.00     0.033 C 
HETATM    6  C   LIG     1      23.986  20.821  25.677  1.00  0.00     0.195 C 
HETATM    7  C   LIG     1      24.801  20.772  26.917  1.00  0.00     0.059 C 
HETATM    8  C   LIG     1      25.792  21.768  27.129  1.00  0.00     0.015 C 
HETATM    9  C   LIG     1      26.141  22.752  25.998  1.00  0.00     0.092 C 
HETATM   10  C   LIG     1      25.254  24.013  26.178  1.00  0.00     0.052 C 
HETATM   11  C   LIG     1      26.367  21.889  28.427  1.00  0.00     0.044 C 
HETATM   12 CL   LIG     1      27.424  23.218  28.904  1.00  0.00    -0.084 Cl
HETATM   13  C   LIG     1      26.056  20.962  29.422  1.00  0.00     0.027 C 
HETATM   14  C   LIG     1      25.171  19.923  29.168  1.00  0.00     0.039 C 
HETATM   15  C   LIG     1      24.550  19.807  27.927  1.00  0.00     0.080 C 
HETATM   16  O   LIG     1      22.805  20.382  25.692  1.00  0.00    -0.287 OA
HETATM   17  C   LIG     1      23.859  21.482  23.279  1.00  0.00     0.097 C 
HETATM   18  C   LIG     1      24.440  22.104  22.005  1.00  0.00     0.177 C 
HETATM   19  C   LIG     1      24.235  21.258  20.765  1.00  0.00     0.208 C 
HETATM   20  C   LIG     1      24.835  21.725  19.497  1.00  0.00     0.112 C 
HETATM   21  C   LIG     1      25.854  22.619  19.535  1.00  0.00     0.096 C 
HETATM   22  O   LIG     1      23.639  20.147  20.813  1.00  0.00    -0.288 OA
ENDROOT
BRANCH  20  23
HETATM   23  C   LIG     1      24.273  21.256  18.205  1.00  0.00     0.255 C 
HETATM   24  N   LIG     1      22.876  21.385  17.925  1.00  0.00    -0.366 N 
HETATM   25  H   LIG     1      22.246  21.925  18.561  1.00  0.00     0.159 HD
HETATM   26  H   LIG     1      22.478  20.986  17.046  1.00  0.00     0.159 HD
HETATM   27  O   LIG     1      25.026  20.738  17.336  1.00  0.00    -0.268 OA
ENDBRANCH  20  23
BRANCH  21  28
HETATM   28  O   LIG     1      26.257  23.230  18.347  1.00  0.00    -0.362 OA
HETATM   29  H   LIG     1      26.898  24.010  18.337  1.00  0.00     0.217 HD
ENDBRANCH  21  28
BRANCH  18  30
HETATM   30  O   LIG     1      23.841  23.367  21.816  1.00  0.00    -0.374 OA
HETATM   31  H   LIG     1      23.916  23.600  20.853  1.00  0.00     0.211 HD
ENDBRANCH  18  30
BRANCH   1  32
HETATM   32  N   LIG     1      28.014  22.877  20.841  1.00  0.00     0.091 N 
HETATM   33  C   LIG     1      28.509  21.639  20.211  1.00  0.00     0.310 C 
HETATM   34  C   LIG     1      28.754  24.057  20.356  1.00  0.00     0.310 C 
ENDBRANCH   1  32
BRANCH  17  35
HETATM   35  O   LIG     1      22.551  20.990  23.238  1.00  0.00    -0.361 OA
HETATM   36  H   LIG     1      22.345  19.999  23.234  1.00  0.00     0.217 HD
ENDBRANCH  17  35
BRANCH   9  37
HETATM   37  O   LIG     1      27.511  23.083  26.101  1.00  0.00    -0.385 OA
HETATM   38  H   LIG     1      27.612  24.067  26.038  1.00  0.00     0.211 HD
ENDBRANCH   9  37
BRANCH  15  39
HETATM   39  O   LIG     1      23.714  18.706  27.729  1.00  0.00    -0.360 OA
HETATM   40  H   LIG     1      23.386  18.115  28.483  1.00  0.00     0.217 HD
ENDBRANCH  15  39
TORSDOF 7
ENDMDL
MODEL 6
REMARK VINA RESULT:      -4.4      5.283      8.676
REMARK  7 active torsions:
REMARK  status: ('A' for Active; 'I' for Inactive)
REMARK    1  A    between atoms: N_2  and  C_3 
REMARK    2  A    between atoms: C_11  and  O_12 
REMARK    3  A    between atoms: C_18  and  O_19 
REMARK    4  A    between atoms: C_21  and  O_32 
REMARK    5  A    between atoms: C_22  and  O_31 
REMARK    6  A    between atoms: C_24  and  C_25 
REMARK       I    between atoms: C_25  and  N_26 
REMARK    7  A    between atoms: C_28  and  O_29 
ROOT
HETATM    1  C   LIG     1      26.002  22.330  22.370  1.00  0.00     0.286 C 
HETATM    2  C   LIG     1      26.852  23.584  22.742  1.00  0.00     0.075 C 
HETATM    3  C   LIG     1      27.360  23.532  24.186  1.00  0.00     0.024 C 
HETATM    4  C   LIG     1      28.011  24.885  24.558  1.00  0.00     0.065 C 
HETATM    5  C   LIG     1      28.948  25.412  23.482  1.00  0.00     0.033 C 
HETATM    6  C   LIG     1      29.809  26.556  23.880  1.00  0.00     0.195 C 
HETATM    7  C   LIG     1      29.701  27.113  25.252  1.00  0.00     0.059 C 
HETATM    8  C   LIG     1      29.244  26.272  26.303  1.00  0.00     0.015 C 
HETATM    9  C   LIG     1      28.685  24.876  25.975  1.00  0.00     0.092 C 
HETATM   10  C   LIG     1      29.859  23.863  26.069  1.00  0.00     0.052 C 
HETATM   11  C   LIG     1      29.411  26.713  27.647  1.00  0.00     0.044 C 
HETATM   12 CL   LIG     1      29.115  25.688  29.052  1.00  0.00    -0.084 Cl
HETATM   13  C   LIG     1      29.889  27.997  27.911  1.00  0.00     0.027 C 
HETATM   14  C   LIG     1      30.225  28.854  26.871  1.00  0.00     0.039 C 
HETATM   15  C   LIG     1      30.125  28.435  25.547  1.00  0.00     0.080 C 
HETATM   16  O   LIG     1      30.684  27.007  23.094  1.00  0.00    -0.287 OA
HETATM   17  C   LIG     1      28.960  24.910  22.216  1.00  0.00     0.097 C 
HETATM   18  C   LIG     1      28.041  23.764  21.779  1.00  0.00     0.177 C 
HETATM   19  C   LIG     1      27.394  23.983  20.427  1.00  0.00     0.208 C 
HETATM   20  C   LIG     1      26.418  22.977  19.952  1.00  0.00     0.112 C 
HETATM   21  C   LIG     1      25.829  22.150  20.849  1.00  0.00     0.096 C 
HETATM   22  O   LIG     1      27.611  25.024  19.750  1.00  0.00    -0.288 OA
ENDROOT
BRANCH  20  23
HETATM   23  C   LIG     1      26.149  22.851  18.497  1.00  0.00     0.255 C 
HETATM   24  N   LIG     1      27.225  22.769  17.558  1.00  0.00    -0.366 N 
HETATM   25  H   LIG     1      28.215  22.667  17.879  1.00  0.00     0.159 HD
HETATM   26  H   LIG     1      27.026  22.755  16.533  1.00  0.00     0.159 HD
HETATM   27  O   LIG     1      24.962  22.811  18.072  1.00  0.00    -0.268 OA
ENDBRANCH  20  23
BRANCH  21  28
HETATM   28  O   LIG     1      25.096  21.060  20.377  1.00  0.00    -0.362 OA
HETATM   29  H   LIG     1      24.406  20.591  20.948  1.00  0.00     0.217 HD
ENDBRANCH  21  28
BRANCH  18  30
HETATM   30  O   LIG     1      28.798  22.575  21.750  1.00  0.00    -0.374 OA
HETATM   31  H   LIG     1      28.173  21.810  21.858  1.00  0.00     0.211 HD
ENDBRANCH  18  30
BRANCH   1  32
HETATM   32  N   LIG     1      24.710  22.403  23.112  1.00  0.00     0.091 N 
HETATM   33  C   LIG     1      23.572  22.945  22.346  1.00  0.00     0.310 C 
HETATM   34  C   LIG     1      24.337  21.164  23.819  1.00  0.00     0.310 C 
ENDBRANCH   1  32
BRANCH  17  35
HETATM   35  O   LIG     1      29.901  25.388  21.298  1.00  0.00    -0.361 OA
HETATM   36  H   LIG     1      29.883  25.131  20.319  1.00  0.00     0.217 HD
ENDBRANCH  17  35
BRANCH   9  37
HETATM   37  O   LIG     1      27.678  24.566  26.917  1.00  0.00    -0.385 OA
HETATM   38  H   LIG     1      27.936  23.744  27.408  1.00  0.00     0.211 HD
ENDBRANCH   9  37
BRANCH  15  39
HETATM   39  O   LIG     1      30.429  29.370  24.556  1.00  0.00    -0.360 OA
HETATM   40  H   LIG     1      30.383  29.165  23.565  1.00  0.00     0.217 HD
ENDBRANCH  15  39
TORSDOF 7
ENDMDL
MODEL 7
REMARK VINA RESULT:      -4.2      2.164      3.161
REMARK  7 active torsions:
REMARK  status: ('A' for Active; 'I' for Inactive)
REMARK    1  A    between atoms: N_2  and  C_3 
REMARK    2  A    between atoms: C_11  and  O_12 
REMARK    3  A    between atoms: C_18  and  O_19 
REMARK    4  A    between atoms: C_21  and  O_32 
REMARK    5  A    between atoms: C_22  and  O_31 
REMARK    6  A    between atoms: C_24  and  C_25 
REMARK       I    between atoms: C_25  and  N_26 
REMARK    7  A    between atoms: C_28  and  O_29 
ROOT
HETATM    1  C   LIG     1      25.732  22.807  23.163  1.00  0.00     0.286 C 
HETATM    2  C   LIG     1      26.038  22.196  21.761  1.00  0.00     0.075 C 
HETATM    3  C   LIG     1      24.762  21.833  20.996  1.00  0.00     0.024 C 
HETATM    4  C   LIG     1      25.129  21.045  19.716  1.00  0.00     0.065 C 
HETATM    5  C   LIG     1      26.282  21.667  18.943  1.00  0.00     0.033 C 
HETATM    6  C   LIG     1      26.509  21.127  17.577  1.00  0.00     0.195 C 
HETATM    7  C   LIG     1      25.639  20.037  17.065  1.00  0.00     0.059 C 
HETATM    8  C   LIG     1      24.323  19.905  17.585  1.00  0.00     0.015 C 
HETATM    9  C   LIG     1      23.892  20.752  18.796  1.00  0.00     0.092 C 
HETATM   10  C   LIG     1      23.232  22.050  18.255  1.00  0.00     0.052 C 
HETATM   11  C   LIG     1      23.404  19.058  16.902  1.00  0.00     0.044 C 
HETATM   12 CL   LIG     1      21.685  18.977  17.284  1.00  0.00    -0.084 Cl
HETATM   13  C   LIG     1      23.834  18.278  15.828  1.00  0.00     0.027 C 
HETATM   14  C   LIG     1      25.154  18.329  15.400  1.00  0.00     0.039 C 
HETATM   15  C   LIG     1      26.065  19.187  16.012  1.00  0.00     0.080 C 
HETATM   16  O   LIG     1      27.378  21.635  16.820  1.00  0.00    -0.287 OA
HETATM   17  C   LIG     1      27.095  22.617  19.484  1.00  0.00     0.097 C 
HETATM   18  C   LIG     1      26.902  23.145  20.910  1.00  0.00     0.177 C 
HETATM   19  C   LIG     1      28.193  23.274  21.692  1.00  0.00     0.208 C 
HETATM   20  C   LIG     1      28.110  23.690  23.109  1.00  0.00     0.112 C 
HETATM   21  C   LIG     1      26.937  23.549  23.773  1.00  0.00     0.096 C 
HETATM   22  O   LIG     1      29.307  22.964  21.187  1.00  0.00    -0.288 OA
ENDROOT
BRANCH  20  23
HETATM   23  C   LIG     1      29.291  24.312  23.759  1.00  0.00     0.255 C 
HETATM   24  N   LIG     1      30.528  23.601  23.862  1.00  0.00    -0.366 N 
HETATM   25  H   LIG     1      30.669  22.688  23.372  1.00  0.00     0.159 HD
HETATM   26  H   LIG     1      31.330  24.017  24.386  1.00  0.00     0.159 HD
HETATM   27  O   LIG     1      29.216  25.480  24.229  1.00  0.00    -0.268 OA
ENDBRANCH  20  23
BRANCH  21  28
HETATM   28  O   LIG     1      26.796  24.153  25.023  1.00  0.00    -0.362 OA
HETATM   29  H   LIG     1      26.811  23.619  25.881  1.00  0.00     0.217 HD
ENDBRANCH  21  28
BRANCH  18  30
HETATM   30  O   LIG     1      26.272  24.404  20.835  1.00  0.00    -0.374 OA
HETATM   31  H   LIG     1      26.815  25.051  21.358  1.00  0.00     0.211 HD
ENDBRANCH  18  30
BRANCH   1  32
HETATM   32  N   LIG     1      25.192  21.727  24.038  1.00  0.00     0.091 N 
HETATM   33  C   LIG     1      26.189  20.764  24.540  1.00  0.00     0.310 C 
HETATM   34  C   LIG     1      24.310  22.197  25.122  1.00  0.00     0.310 C 
ENDBRANCH   1  32
BRANCH  17  35
HETATM   35  O   LIG     1      28.087  23.201  18.691  1.00  0.00    -0.361 OA
HETATM   36  H   LIG     1      28.639  22.666  18.032  1.00  0.00     0.217 HD
ENDBRANCH  17  35
BRANCH   9  37
HETATM   37  O   LIG     1      22.970  20.001  19.560  1.00  0.00    -0.385 OA
HETATM   38  H   LIG     1      22.840  19.117  19.131  1.00  0.00     0.211 HD
ENDBRANCH   9  37
BRANCH  15  39
HETATM   39  O   LIG     1      27.386  19.145  15.561  1.00  0.00    -0.360 OA
HETATM   40  H   LIG     1      27.759  19.787  14.873  1.00  0.00     0.217 HD
ENDBRANCH  15  39
TORSDOF 7
ENDMDL
MODEL 8
REMARK VINA RESULT:      -4.1      2.180      4.368
REMARK  7 active torsions:
REMARK  status: ('A' for Active; 'I' for Inactive)
REMARK    1  A    between atoms: N_2  and  C_3 
REMARK    2  A    between atoms: C_11  and  O_12 
REMARK    3  A    between atoms: C_18  and  O_19 
REMARK    4  A    between atoms: C_21  and  O_32 
REMARK    5  A    between atoms: C_22  and  O_31 
REMARK    6  A    between atoms: C_24  and  C_25 
REMARK       I    between atoms: C_25  and  N_26 
REMARK    7  A    between atoms: C_28  and  O_29 
ROOT
HETATM    1  C   LIG     1      26.977  22.916  21.883  1.00  0.00     0.286 C 
HETATM    2  C   LIG     1      25.894  22.036  21.188  1.00  0.00     0.075 C 
HETATM    3  C   LIG     1      26.409  21.393  19.897  1.00  0.00     0.024 C 
HETATM    4  C   LIG     1      25.238  20.711  19.152  1.00  0.00     0.065 C 
HETATM    5  C   LIG     1      24.351  19.881  20.067  1.00  0.00     0.033 C 
HETATM    6  C   LIG     1      23.378  18.986  19.386  1.00  0.00     0.195 C 
HETATM    7  C   LIG     1      23.316  18.965  17.903  1.00  0.00     0.059 C 
HETATM    8  C   LIG     1      24.474  19.319  17.160  1.00  0.00     0.015 C 
HETATM    9  C   LIG     1      25.698  19.905  17.886  1.00  0.00     0.092 C 
HETATM   10  C   LIG     1      26.645  18.727  18.242  1.00  0.00     0.052 C 
HETATM   11  C   LIG     1      24.503  19.026  15.765  1.00  0.00     0.044 C 
HETATM   12 CL   LIG     1      25.948  19.186  14.767  1.00  0.00    -0.084 Cl
HETATM   13  C   LIG     1      23.367  18.526  15.129  1.00  0.00     0.027 C 
HETATM   14  C   LIG     1      22.201  18.291  15.846  1.00  0.00     0.039 C 
HETATM   15  C   LIG     1      22.155  18.516  17.220  1.00  0.00     0.080 C 
HETATM   16  O   LIG     1      22.662  18.190  20.050  1.00  0.00    -0.287 OA
HETATM   17  C   LIG     1      24.400  19.988  21.424  1.00  0.00     0.097 C 
HETATM   18  C   LIG     1      25.364  20.943  22.136  1.00  0.00     0.177 C 
HETATM   19  C   LIG     1      24.726  21.716  23.273  1.00  0.00     0.208 C 
HETATM   20  C   LIG     1      25.546  22.732  23.970  1.00  0.00     0.112 C 
HETATM   21  C   LIG     1      26.645  23.233  23.354  1.00  0.00     0.096 C 
HETATM   22  O   LIG     1      23.512  21.565  23.578  1.00  0.00    -0.288 OA
ENDROOT
BRANCH  20  23
HETATM   23  C   LIG     1      25.188  23.138  25.352  1.00  0.00     0.255 C 
HETATM   24  N   LIG     1      24.562  22.214  26.247  1.00  0.00    -0.366 N 
HETATM   25  H   LIG     1      24.461  21.204  25.997  1.00  0.00     0.159 HD
HETATM   26  H   LIG     1      24.247  22.530  27.192  1.00  0.00     0.159 HD
HETATM   27  O   LIG     1      25.435  24.307  25.754  1.00  0.00    -0.268 OA
ENDBRANCH  20  23
BRANCH  21  28
HETATM   28  O   LIG     1      27.538  24.006  24.097  1.00  0.00    -0.362 OA
HETATM   29  H   LIG     1      27.775  23.779  25.053  1.00  0.00     0.217 HD
ENDBRANCH  21  28
BRANCH  18  30
HETATM   30  O   LIG     1      26.449  20.192  22.631  1.00  0.00    -0.374 OA
HETATM   31  H   LIG     1      26.346  19.257  22.310  1.00  0.00     0.211 HD
ENDBRANCH  18  30
BRANCH   1  32
HETATM   32  N   LIG     1      27.199  24.132  21.048  1.00  0.00     0.091 N 
HETATM   33  C   LIG     1      28.485  24.177  20.327  1.00  0.00     0.310 C 
HETATM   34  C   LIG     1      26.075  24.481  20.159  1.00  0.00     0.310 C 
ENDBRANCH   1  32
BRANCH  17  35
HETATM   35  O   LIG     1      23.612  19.139  22.207  1.00  0.00    -0.361 OA
HETATM   36  H   LIG     1      23.884  18.187  22.417  1.00  0.00     0.217 HD
ENDBRANCH  17  35
BRANCH   9  37
HETATM   37  O   LIG     1      26.338  20.818  17.017  1.00  0.00    -0.385 OA
HETATM   38  H   LIG     1      26.043  21.738  17.242  1.00  0.00     0.211 HD
ENDBRANCH   9  37
BRANCH  15  39
HETATM   39  O   LIG     1      20.934  18.307  17.863  1.00  0.00    -0.360 OA
HETATM   40  H   LIG     1      20.818  18.359  18.867  1.00  0.00     0.217 HD
ENDBRANCH  15  39
TORSDOF 7
ENDMDL
MODEL 9
REMARK VINA RESULT:      -4.1      3.784      5.836
REMARK  7 active torsions:
REMARK  status: ('A' for Active; 'I' for Inactive)
REMARK    1  A    between atoms: N_2  and  C_3 
REMARK    2  A    between atoms: C_11  and  O_12 
REMARK    3  A    between atoms: C_18  and  O_19 
REMARK    4  A    between atoms: C_21  and  O_32 
REMARK    5  A    between atoms: C_22  and  O_31 
REMARK    6  A    between atoms: C_24  and  C_25 
REMARK       I    between atoms: C_25  and  N_26 
REMARK    7  A    between atoms: C_28  and  O_29 
ROOT
HETATM    1  C   LIG     1      27.996  23.645  26.901  1.00  0.00     0.286 C 
HETATM    2  C   LIG     1      27.362  23.371  25.502  1.00  0.00     0.075 C 
HETATM    3  C   LIG     1      28.145  24.040  24.369  1.00  0.00     0.024 C 
HETATM    4  C   LIG     1      27.357  23.909  23.044  1.00  0.00     0.065 C 
HETATM    5  C   LIG     1      26.808  22.509  22.813  1.00  0.00     0.033 C 
HETATM    6  C   LIG     1      26.281  22.240  21.449  1.00  0.00     0.195 C 
HETATM    7  C   LIG     1      26.304  23.318  20.428  1.00  0.00     0.059 C 
HETATM    8  C   LIG     1      27.276  24.348  20.537  1.00  0.00     0.015 C 
HETATM    9  C   LIG     1      28.150  24.445  21.800  1.00  0.00     0.092 C 
HETATM   10  C   LIG     1      29.454  23.644  21.535  1.00  0.00     0.052 C 
HETATM   11  C   LIG     1      27.482  25.208  19.419  1.00  0.00     0.044 C 
HETATM   12 CL   LIG     1      28.805  26.370  19.315  1.00  0.00    -0.084 Cl
HETATM   13  C   LIG     1      26.652  25.118  18.301  1.00  0.00     0.027 C 
HETATM   14  C   LIG     1      25.629  24.181  18.255  1.00  0.00     0.039 C 
HETATM   15  C   LIG     1      25.435  23.289  19.307  1.00  0.00     0.080 C 
HETATM   16  O   LIG     1      25.889  21.087  21.128  1.00  0.00    -0.287 OA
HETATM   17  C   LIG     1      26.747  21.577  23.805  1.00  0.00     0.097 C 
HETATM   18  C   LIG     1      27.240  21.860  25.227  1.00  0.00     0.177 C 
HETATM   19  C   LIG     1      26.303  21.360  26.308  1.00  0.00     0.208 C 
HETATM   20  C   LIG     1      26.642  21.661  27.716  1.00  0.00     0.112 C 
HETATM   21  C   LIG     1      27.497  22.676  27.990  1.00  0.00     0.096 C 
HETATM   22  O   LIG     1      25.223  20.772  26.028  1.00  0.00    -0.288 OA
ENDROOT
BRANCH  20  23
HETATM   23  C   LIG     1      26.090  20.809  28.799  1.00  0.00     0.255 C 
HETATM   24  N   LIG     1      24.685  20.558  28.888  1.00  0.00    -0.366 N 
HETATM   25  H   LIG     1      24.033  20.856  28.126  1.00  0.00     0.159 HD
HETATM   26  H   LIG     1      24.298  20.018  29.695  1.00  0.00     0.159 HD
HETATM   27  O   LIG     1      26.858  20.294  29.656  1.00  0.00    -0.268 OA
ENDBRANCH  20  23
BRANCH  21  28
HETATM   28  O   LIG     1      27.994  22.806  29.288  1.00  0.00    -0.362 OA
HETATM   29  H   LIG     1      27.469  22.497  30.095  1.00  0.00     0.217 HD
ENDBRANCH  21  28
BRANCH  18  30
HETATM   30  O   LIG     1      28.504  21.256  25.386  1.00  0.00    -0.374 OA
HETATM   31  H   LIG     1      28.925  21.635  26.203  1.00  0.00     0.211 HD
ENDBRANCH  18  30
BRANCH   1  32
HETATM   32  N   LIG     1      27.781  25.083  27.239  1.00  0.00     0.091 N 
HETATM   33  C   LIG     1      26.559  25.373  28.011  1.00  0.00     0.310 C 
HETATM   34  C   LIG     1      28.955  25.760  27.819  1.00  0.00     0.310 C 
ENDBRANCH   1  32
BRANCH  17  35
HETATM   35  O   LIG     1      26.302  20.286  23.504  1.00  0.00    -0.361 OA
HETATM   36  H   LIG     1      25.499  20.114  22.912  1.00  0.00     0.217 HD
ENDBRANCH  17  35
BRANCH   9  37
HETATM   37  O   LIG     1      28.437  25.807  22.041  1.00  0.00    -0.385 OA
HETATM   38  H   LIG     1      28.853  25.897  22.936  1.00  0.00     0.211 HD
ENDBRANCH   9  37
BRANCH  15  39
HETATM   39  O   LIG     1      24.353  22.411  19.211  1.00  0.00    -0.360 OA
HETATM   40  H   LIG     1      23.903  22.178  18.334  1.00  0.00     0.217 HD
ENDBRANCH  15  39
TORSDOF 7
ENDMDL
MODEL 10
REMARK VINA RESULT:      -4.0      6.431     11.683
REMARK  7 active torsions:
REMARK  status: ('A' for Active; 'I' for Inactive)
REMARK    1  A    between atoms: N_2  and  C_3 
REMARK    2  A    between atoms: C_11  and  O_12 
REMARK    3  A    between atoms: C_18  and  O_19 
REMARK    4  A    between atoms: C_21  and  O_32 
REMARK    5  A    between atoms: C_22  and  O_31 
REMARK    6  A    between atoms: C_24  and  C_25 
REMARK       I    between atoms: C_25  and  N_26 
REMARK    7  A    between atoms: C_28  and  O_29 
ROOT
HETATM    1  C   LIG     1      27.807  21.225  27.356  1.00  0.00     0.286 C 
HETATM    2  C   LIG     1      27.469  22.418  28.303  1.00  0.00     0.075 C 
HETATM    3  C   LIG     1      28.262  22.363  29.611  1.00  0.00     0.024 C 
HETATM    4  C   LIG     1      27.734  23.441  30.586  1.00  0.00     0.065 C 
HETATM    5  C   LIG     1      27.529  24.795  29.923  1.00  0.00     0.033 C 
HETATM    6  C   LIG     1      27.287  25.935  30.846  1.00  0.00     0.195 C 
HETATM    7  C   LIG     1      27.244  25.697  32.311  1.00  0.00     0.059 C 
HETATM    8  C   LIG     1      27.954  24.590  32.849  1.00  0.00     0.015 C 
HETATM    9  C   LIG     1      28.582  23.551  31.902  1.00  0.00     0.092 C 
HETATM   10  C   LIG     1      30.048  23.984  31.632  1.00  0.00     0.052 C 
HETATM   11  C   LIG     1      28.148  24.528  34.260  1.00  0.00     0.044 C 
HETATM   12 CL   LIG     1      29.202  23.353  35.047  1.00  0.00    -0.084 Cl
HETATM   13  C   LIG     1      27.539  25.465  35.094  1.00  0.00     0.027 C 
HETATM   14  C   LIG     1      26.752  26.478  34.563  1.00  0.00     0.039 C 
HETATM   15  C   LIG     1      26.585  26.599  33.186  1.00  0.00     0.080 C 
HETATM   16  O   LIG     1      27.197  27.112  30.405  1.00  0.00    -0.287 OA
HETATM   17  C   LIG     1      27.508  24.949  28.570  1.00  0.00     0.097 C 
HETATM   18  C   LIG     1      27.706  23.772  27.608  1.00  0.00     0.177 C 
HETATM   19  C   LIG     1      26.736  23.767  26.444  1.00  0.00     0.208 C 
HETATM   20  C   LIG     1      26.783  22.625  25.505  1.00  0.00     0.112 C 
HETATM   21  C   LIG     1      27.356  21.463  25.902  1.00  0.00     0.096 C 
HETATM   22  O   LIG     1      25.858  24.663  26.310  1.00  0.00    -0.288 OA
ENDROOT
BRANCH  20  23
HETATM   23  C   LIG     1      26.258  22.791  24.126  1.00  0.00     0.255 C 
HETATM   24  N   LIG     1      24.850  22.861  23.883  1.00  0.00    -0.366 N 
HETATM   25  H   LIG     1      24.168  22.928  24.673  1.00  0.00     0.159 HD
HETATM   26  H   LIG     1      24.488  22.903  22.904  1.00  0.00     0.159 HD
HETATM   27  O   LIG     1      27.052  22.874  23.150  1.00  0.00    -0.268 OA
ENDBRANCH  20  23
BRANCH  21  28
HETATM   28  O   LIG     1      27.608  20.477  24.947  1.00  0.00    -0.362 OA
HETATM   29  H   LIG     1      27.859  20.705  23.995  1.00  0.00     0.217 HD
ENDBRANCH  21  28
BRANCH  18  30
HETATM   30  O   LIG     1      29.027  23.817  27.118  1.00  0.00    -0.374 OA
HETATM   31  H   LIG     1      29.121  24.636  26.563  1.00  0.00     0.211 HD
ENDBRANCH  18  30
BRANCH   1  32
HETATM   32  N   LIG     1      27.250  19.978  27.956  1.00  0.00     0.091 N 
HETATM   33  C   LIG     1      25.829  19.716  27.660  1.00  0.00     0.310 C 
HETATM   34  C   LIG     1      28.072  18.773  27.742  1.00  0.00     0.310 C 
ENDBRANCH   1  32
BRANCH  17  35
HETATM   35  O   LIG     1      27.393  26.233  28.028  1.00  0.00    -0.361 OA
HETATM   36  H   LIG     1      26.513  26.599  27.684  1.00  0.00     0.217 HD
ENDBRANCH  17  35
BRANCH   9  37
HETATM   37  O   LIG     1      28.540  22.288  32.535  1.00  0.00    -0.385 OA
HETATM   38  H   LIG     1      29.464  21.936  32.616  1.00  0.00     0.211 HD
ENDBRANCH   9  37
BRANCH  15  39
HETATM   39  O   LIG     1      25.737  27.610  32.730  1.00  0.00    -0.360 OA
HETATM   40  H   LIG     1      25.366  27.642  31.788  1.00  0.00     0.217 HD
ENDBRANCH  15  39
TORSDOF 7
ENDMDL
MODEL 11
REMARK VINA RESULT:      -4.0      3.490      5.347
REMARK  7 active torsions:
REMARK  status: ('A' for Active; 'I' for Inactive)
REMARK    1  A    between atoms: N_2  and  C_3 
REMARK    2  A    between atoms: C_11  and  O_12 
REMARK    3  A    between atoms: C_18  and  O_19 
REMARK    4  A    between atoms: C_21  and  O_32 
REMARK    5  A    between atoms: C_22  and  O_31 
REMARK    6  A    between atoms: C_24  and  C_25 
REMARK       I    between atoms: C_25  and  N_26 
REMARK    7  A    between atoms: C_28  and  O_29 
ROOT
HETATM    1  C   LIG     1      25.147  20.798  25.700  1.00  0.00     0.286 C 
HETATM    2  C   LIG     1      25.250  21.517  24.320  1.00  0.00     0.075 C 
HETATM    3  C   LIG     1      26.645  22.095  24.070  1.00  0.00     0.024 C 
HETATM    4  C   LIG     1      26.626  22.969  22.794  1.00  0.00     0.065 C 
HETATM    5  C   LIG     1      25.899  22.309  21.631  1.00  0.00     0.033 C 
HETATM    6  C   LIG     1      26.074  22.963  20.307  1.00  0.00     0.195 C 
HETATM    7  C   LIG     1      26.906  24.188  20.198  1.00  0.00     0.059 C 
HETATM    8  C   LIG     1      27.937  24.407  21.150  1.00  0.00     0.015 C 
HETATM    9  C   LIG     1      28.048  23.490  22.381  1.00  0.00     0.092 C 
HETATM   10  C   LIG     1      29.025  22.336  22.025  1.00  0.00     0.052 C 
HETATM   11  C   LIG     1      28.906  25.417  20.882  1.00  0.00     0.044 C 
HETATM   12 CL   LIG     1      30.367  25.644  21.843  1.00  0.00    -0.084 Cl
HETATM   13  C   LIG     1      28.760  26.254  19.776  1.00  0.00     0.027 C 
HETATM   14  C   LIG     1      27.682  26.104  18.913  1.00  0.00     0.039 C 
HETATM   15  C   LIG     1      26.747  25.093  19.116  1.00  0.00     0.080 C 
HETATM   16  O   LIG     1      25.591  22.444  19.265  1.00  0.00    -0.287 OA
HETATM   17  C   LIG     1      25.092  21.225  21.796  1.00  0.00     0.097 C 
HETATM   18  C   LIG     1      24.864  20.574  23.165  1.00  0.00     0.177 C 
HETATM   19  C   LIG     1      23.416  20.224  23.439  1.00  0.00     0.208 C 
HETATM   20  C   LIG     1      23.073  19.672  24.768  1.00  0.00     0.112 C 
HETATM   21  C   LIG     1      23.922  19.870  25.807  1.00  0.00     0.096 C 
HETATM   22  O   LIG     1      22.506  20.462  22.598  1.00  0.00    -0.288 OA
ENDROOT
BRANCH  20  23
HETATM   23  C   LIG     1      21.840  18.860  24.928  1.00  0.00     0.255 C 
HETATM   24  N   LIG     1      21.434  17.940  23.911  1.00  0.00    -0.366 N 
HETATM   25  H   LIG     1      22.056  17.722  23.099  1.00  0.00     0.159 HD
HETATM   26  H   LIG     1      20.527  17.428  23.998  1.00  0.00     0.159 HD
HETATM   27  O   LIG     1      21.135  18.974  25.967  1.00  0.00    -0.268 OA
ENDBRANCH  20  23
BRANCH  21  28
HETATM   28  O   LIG     1      23.716  19.156  26.988  1.00  0.00    -0.362 OA
HETATM   29  H   LIG     1      23.121  19.505  27.727  1.00  0.00     0.217 HD
ENDBRANCH  21  28
BRANCH  18  30
HETATM   30  O   LIG     1      25.651  19.406  23.237  1.00  0.00    -0.374 OA
HETATM   31  H   LIG     1      25.595  19.056  24.165  1.00  0.00     0.211 HD
ENDBRANCH  18  30
BRANCH   1  32
HETATM   32  N   LIG     1      25.205  21.833  26.773  1.00  0.00     0.091 N 
HETATM   33  C   LIG     1      23.901  22.378  27.195  1.00  0.00     0.310 C 
HETATM   34  C   LIG     1      26.033  21.467  27.937  1.00  0.00     0.310 C 
ENDBRANCH   1  32
BRANCH  17  35
HETATM   35  O   LIG     1      24.516  20.622  20.673  1.00  0.00    -0.361 OA
HETATM   36  H   LIG     1      24.594  21.020  19.745  1.00  0.00     0.217 HD
ENDBRANCH  17  35
BRANCH   9  37
HETATM   37  O   LIG     1      28.545  24.252  23.463  1.00  0.00    -0.385 OA
HETATM   38  H   LIG     1      28.881  23.638  24.164  1.00  0.00     0.211 HD
ENDBRANCH   9  37
BRANCH  15  39
HETATM   39  O   LIG     1      25.663  25.038  18.238  1.00  0.00    -0.360 OA
HETATM   40  H   LIG     1      25.079  25.837  18.026  1.00  0.00     0.217 HD
ENDBRANCH  15  39
TORSDOF 7
ENDMDL
MODEL 12
REMARK VINA RESULT:      -3.9      4.090      5.888
REMARK  7 active torsions:
REMARK  status: ('A' for Active; 'I' for Inactive)
REMARK    1  A    between atoms: N_2  and  C_3 
REMARK    2  A    between atoms: C_11  and  O_12 
REMARK    3  A    between atoms: C_18  and  O_19 
REMARK    4  A    between atoms: C_21  and  O_32 
REMARK    5  A    between atoms: C_22  and  O_31 
REMARK    6  A    between atoms: C_24  and  C_25 
REMARK       I    between atoms: C_25  and  N_26 
REMARK    7  A    between atoms: C_28  and  O_29 
ROOT
HETATM    1  C   LIG     1      26.637  22.606  27.193  1.00  0.00     0.286 C 
HETATM    2  C   LIG     1      26.442  22.907  25.675  1.00  0.00     0.075 C 
HETATM    3  C   LIG     1      27.719  23.442  25.021  1.00  0.00     0.024 C 
HETATM    4  C   LIG     1      27.408  23.916  23.582  1.00  0.00     0.065 C 
HETATM    5  C   LIG     1      26.557  22.927  22.799  1.00  0.00     0.033 C 
HETATM    6  C   LIG     1      26.448  23.184  21.339  1.00  0.00     0.195 C 
HETATM    7  C   LIG     1      27.137  24.358  20.747  1.00  0.00     0.059 C 
HETATM    8  C   LIG     1      28.291  24.877  21.394  1.00  0.00     0.015 C 
HETATM    9  C   LIG     1      28.688  24.352  22.785  1.00  0.00     0.092 C 
HETATM   10  C   LIG     1      29.689  23.182  22.581  1.00  0.00     0.052 C 
HETATM   11  C   LIG     1      29.108  25.805  20.685  1.00  0.00     0.044 C 
HETATM   12 CL   LIG     1      30.684  26.350  21.258  1.00  0.00    -0.084 Cl
HETATM   13  C   LIG     1      28.704  26.287  19.440  1.00  0.00     0.027 C 
HETATM   14  C   LIG     1      27.514  25.858  18.868  1.00  0.00     0.039 C 
HETATM   15  C   LIG     1      26.719  24.911  19.509  1.00  0.00     0.080 C 
HETATM   16  O   LIG     1      25.843  22.373  20.587  1.00  0.00    -0.287 OA
HETATM   17  C   LIG     1      25.888  21.905  23.402  1.00  0.00     0.097 C 
HETATM   18  C   LIG     1      25.952  21.661  24.913  1.00  0.00     0.177 C 
HETATM   19  C   LIG     1      24.607  21.349  25.538  1.00  0.00     0.208 C 
HETATM   20  C   LIG     1      24.544  21.185  27.006  1.00  0.00     0.112 C 
HETATM   21  C   LIG     1      25.534  21.701  27.774  1.00  0.00     0.096 C 
HETATM   22  O   LIG     1      23.552  21.304  24.849  1.00  0.00    -0.288 OA
ENDROOT
BRANCH  20  23
HETATM   23  C   LIG     1      23.432  20.406  27.608  1.00  0.00     0.255 C 
HETATM   24  N   LIG     1      22.071  20.708  27.289  1.00  0.00    -0.366 N 
HETATM   25  H   LIG     1      21.832  21.391  26.533  1.00  0.00     0.159 HD
HETATM   26  H   LIG     1      21.294  20.205  27.773  1.00  0.00     0.159 HD
HETATM   27  O   LIG     1      23.677  19.464  28.410  1.00  0.00    -0.268 OA
ENDBRANCH  20  23
BRANCH  21  28
HETATM   28  O   LIG     1      25.594  21.345  29.123  1.00  0.00    -0.362 OA
HETATM   29  H   LIG     1      26.436  21.457  29.669  1.00  0.00     0.217 HD
ENDBRANCH  21  28
BRANCH  18  30
HETATM   30  O   LIG     1      26.840  20.592  25.152  1.00  0.00    -0.374 OA
HETATM   31  H   LIG     1      26.377  19.934  25.735  1.00  0.00     0.211 HD
ENDBRANCH  18  30
BRANCH   1  32
HETATM   32  N   LIG     1      26.783  23.905  27.913  1.00  0.00     0.091 N 
HETATM   33  C   LIG     1      28.143  24.212  28.391  1.00  0.00     0.310 C 
HETATM   34  C   LIG     1      26.186  25.061  27.220  1.00  0.00     0.310 C 
ENDBRANCH   1  32
BRANCH  17  35
HETATM   35  O   LIG     1      25.187  20.987  22.613  1.00  0.00    -0.361 OA
HETATM   36  H   LIG     1      25.332  19.987  22.686  1.00  0.00     0.217 HD
ENDBRANCH  17  35
BRANCH   9  37
HETATM   37  O   LIG     1      29.291  25.408  23.506  1.00  0.00    -0.385 OA
HETATM   38  H   LIG     1      28.621  25.804  24.120  1.00  0.00     0.211 HD
ENDBRANCH   9  37
BRANCH  15  39
HETATM   39  O   LIG     1      25.512  24.569  18.897  1.00  0.00    -0.360 OA
HETATM   40  H   LIG     1      24.988  23.734  19.130  1.00  0.00     0.217 HD
ENDBRANCH  15  39
TORSDOF 7
ENDMDL
MODEL 13
REMARK VINA RESULT:      -3.8      3.281      5.557
REMARK  7 active torsions:
REMARK  status: ('A' for Active; 'I' for Inactive)
REMARK    1  A    between atoms: N_2  and  C_3 
REMARK    2  A    between atoms: C_11  and  O_12 
REMARK    3  A    between atoms: C_18  and  O_19 
REMARK    4  A    between atoms: C_21  and  O_32 
REMARK    5  A    between atoms: C_22  and  O_31 
REMARK    6  A    between atoms: C_24  and  C_25 
REMARK       I    between atoms: C_25  and  N_26 
REMARK    7  A    between atoms: C_28  and  O_29 
ROOT
HETATM    1  C   LIG     1      29.163  24.227  19.976  1.00  0.00     0.286 C 
HETATM    2  C   LIG     1      27.945  23.285  19.727  1.00  0.00     0.075 C 
HETATM    3  C   LIG     1      28.177  22.337  18.548  1.00  0.00     0.024 C 
HETATM    4  C   LIG     1      26.867  21.582  18.220  1.00  0.00     0.065 C 
HETATM    5  C   LIG     1      26.168  21.038  19.457  1.00  0.00     0.033 C 
HETATM    6  C   LIG     1      25.061  20.078  19.203  1.00  0.00     0.195 C 
HETATM    7  C   LIG     1      24.701  19.728  17.805  1.00  0.00     0.059 C 
HETATM    8  C   LIG     1      25.692  19.830  16.792  1.00  0.00     0.015 C 
HETATM    9  C   LIG     1      27.048  20.484  17.114  1.00  0.00     0.092 C 
HETATM   10  C   LIG     1      28.025  19.357  17.547  1.00  0.00     0.052 C 
HETATM   11  C   LIG     1      25.434  19.229  15.526  1.00  0.00     0.044 C 
HETATM   12 CL   LIG     1      26.651  19.067  14.260  1.00  0.00    -0.084 Cl
HETATM   13  C   LIG     1      24.184  18.674  15.254  1.00  0.00     0.027 C 
HETATM   14  C   LIG     1      23.182  18.682  16.216  1.00  0.00     0.039 C 
HETATM   15  C   LIG     1      23.419  19.213  17.482  1.00  0.00     0.080 C 
HETATM   16  O   LIG     1      24.479  19.500  20.158  1.00  0.00    -0.287 OA
HETATM   17  C   LIG     1      26.492  21.445  20.716  1.00  0.00     0.097 C 
HETATM   18  C   LIG     1      27.597  22.471  20.987  1.00  0.00     0.177 C 
HETATM   19  C   LIG     1      27.216  23.519  22.013  1.00  0.00     0.208 C 
HETATM   20  C   LIG     1      28.178  24.610  22.283  1.00  0.00     0.112 C 
HETATM   21  C   LIG     1      29.139  24.888  21.368  1.00  0.00     0.096 C 
HETATM   22  O   LIG     1      26.085  23.520  22.571  1.00  0.00    -0.288 OA
ENDROOT
BRANCH  20  23
HETATM   23  C   LIG     1      28.113  25.339  23.575  1.00  0.00     0.255 C 
HETATM   24  N   LIG     1      27.690  24.676  24.769  1.00  0.00    -0.366 N 
HETATM   25  H   LIG     1      27.543  23.641  24.788  1.00  0.00     0.159 HD
HETATM   26  H   LIG     1      27.577  25.214  25.657  1.00  0.00     0.159 HD
HETATM   27  O   LIG     1      28.435  26.557  23.633  1.00  0.00    -0.268 OA
ENDBRANCH  20  23
BRANCH  21  28
HETATM   28  O   LIG     1      30.178  25.748  21.725  1.00  0.00    -0.362 OA
HETATM   29  H   LIG     1      30.155  26.734  21.507  1.00  0.00     0.217 HD
ENDBRANCH  21  28
BRANCH  18  30
HETATM   30  O   LIG     1      28.745  21.781  21.426  1.00  0.00    -0.374 OA
HETATM   31  H   LIG     1      29.049  22.200  22.274  1.00  0.00     0.211 HD
ENDBRANCH  18  30
BRANCH   1  32
HETATM   32  N   LIG     1      29.234  25.207  18.854  1.00  0.00     0.091 N 
HETATM   33  C   LIG     1      28.350  26.380  18.982  1.00  0.00     0.310 C 
HETATM   34  C   LIG     1      30.602  25.607  18.473  1.00  0.00     0.310 C 
ENDBRANCH   1  32
BRANCH  17  35
HETATM   35  O   LIG     1      25.862  20.846  21.812  1.00  0.00    -0.361 OA
HETATM   36  H   LIG     1      24.919  20.479  21.761  1.00  0.00     0.217 HD
ENDBRANCH  17  35
BRANCH   9  37
HETATM   37  O   LIG     1      27.517  21.134  15.950  1.00  0.00    -0.385 OA
HETATM   38  H   LIG     1      27.393  22.113  16.054  1.00  0.00     0.211 HD
ENDBRANCH   9  37
BRANCH  15  39
HETATM   39  O   LIG     1      22.348  19.234  18.377  1.00  0.00    -0.360 OA
HETATM   40  H   LIG     1      21.468  19.696  18.181  1.00  0.00     0.217 HD
ENDBRANCH  15  39
TORSDOF 7
ENDMDL
MODEL 14
REMARK VINA RESULT:      -3.7      4.940      8.927
REMARK  7 active torsions:
REMARK  status: ('A' for Active; 'I' for Inactive)
REMARK    1  A    between atoms: N_2  and  C_3 
REMARK    2  A    between atoms: C_11  and  O_12 
REMARK    3  A    between atoms: C_18  and  O_19 
REMARK    4  A    between atoms: C_21  and  O_32 
REMARK    5  A    between atoms: C_22  and  O_31 
REMARK    6  A    between atoms: C_24  and  C_25 
REMARK       I    between atoms: C_25  and  N_26 
REMARK    7  A    between atoms: C_28  and  O_29 
ROOT
HETATM    1  C   LIG     1      23.406  19.851  25.645  1.00  0.00     0.286 C 
HETATM    2  C   LIG     1      24.383  20.964  26.135  1.00  0.00     0.075 C 
HETATM    3  C   LIG     1      25.126  20.563  27.412  1.00  0.00     0.024 C 
HETATM    4  C   LIG     1      25.913  21.776  27.960  1.00  0.00     0.065 C 
HETATM    5  C   LIG     1      26.683  22.523  26.881  1.00  0.00     0.033 C 
HETATM    6  C   LIG     1      27.669  23.524  27.369  1.00  0.00     0.195 C 
HETATM    7  C   LIG     1      27.830  23.744  28.828  1.00  0.00     0.059 C 
HETATM    8  C   LIG     1      27.509  22.688  29.723  1.00  0.00     0.015 C 
HETATM    9  C   LIG     1      26.818  21.420  29.192  1.00  0.00     0.092 C 
HETATM   10  C   LIG     1      27.925  20.390  28.839  1.00  0.00     0.052 C 
HETATM   11  C   LIG     1      27.930  22.796  31.080  1.00  0.00     0.044 C 
HETATM   12 CL   LIG     1      27.816  21.475  32.243  1.00  0.00    -0.084 Cl
HETATM   13  C   LIG     1      28.524  23.971  31.540  1.00  0.00     0.027 C 
HETATM   14  C   LIG     1      28.730  25.043  30.680  1.00  0.00     0.039 C 
HETATM   15  C   LIG     1      28.379  24.951  29.335  1.00  0.00     0.080 C 
HETATM   16  O   LIG     1      28.423  24.130  26.561  1.00  0.00    -0.287 OA
HETATM   17  C   LIG     1      26.448  22.334  25.553  1.00  0.00     0.097 C 
HETATM   18  C   LIG     1      25.399  21.341  25.040  1.00  0.00     0.177 C 
HETATM   19  C   LIG     1      24.545  21.886  23.913  1.00  0.00     0.208 C 
HETATM   20  C   LIG     1      23.442  21.041  23.405  1.00  0.00     0.112 C 
HETATM   21  C   LIG     1      22.965  20.037  24.181  1.00  0.00     0.096 C 
HETATM   22  O   LIG     1      24.707  23.054  23.464  1.00  0.00    -0.288 OA
ENDROOT
BRANCH  20  23
HETATM   23  C   LIG     1      22.921  21.266  22.033  1.00  0.00     0.255 C 
HETATM   24  N   LIG     1      22.329  22.517  21.671  1.00  0.00    -0.366 N 
HETATM   25  H   LIG     1      22.367  23.339  22.317  1.00  0.00     0.159 HD
HETATM   26  H   LIG     1      21.899  22.641  20.727  1.00  0.00     0.159 HD
HETATM   27  O   LIG     1      22.996  20.352  21.167  1.00  0.00    -0.268 OA
ENDBRANCH  20  23
BRANCH  21  28
HETATM   28  O   LIG     1      22.097  19.104  23.613  1.00  0.00    -0.362 OA
HETATM   29  H   LIG     1      21.814  19.156  22.644  1.00  0.00     0.217 HD
ENDBRANCH  21  28
BRANCH  18  30
HETATM   30  O   LIG     1      26.065  20.178  24.604  1.00  0.00    -0.374 OA
HETATM   31  H   LIG     1      26.711  20.441  23.896  1.00  0.00     0.211 HD
ENDBRANCH  18  30
BRANCH   1  32
HETATM   32  N   LIG     1      22.266  19.772  26.605  1.00  0.00     0.091 N 
HETATM   33  C   LIG     1      22.302  18.629  27.535  1.00  0.00     0.310 C 
HETATM   34  C   LIG     1      21.974  21.031  27.315  1.00  0.00     0.310 C 
ENDBRANCH   1  32
BRANCH  17  35
HETATM   35  O   LIG     1      27.246  22.996  24.615  1.00  0.00    -0.361 OA
HETATM   36  H   LIG     1      27.590  23.937  24.764  1.00  0.00     0.217 HD
ENDBRANCH  17  35
BRANCH   9  37
HETATM   37  O   LIG     1      25.969  20.917  30.204  1.00  0.00    -0.385 OA
HETATM   38  H   LIG     1      26.146  19.949  30.323  1.00  0.00     0.211 HD
ENDBRANCH   9  37
BRANCH  15  39
HETATM   39  O   LIG     1      28.567  26.086  28.546  1.00  0.00    -0.360 OA
HETATM   40  H   LIG     1      28.195  26.997  28.784  1.00  0.00     0.217 HD
ENDBRANCH  15  39
TORSDOF 7
ENDMDL
MODEL 15
REMARK VINA RESULT:      -3.7      5.761     10.449
REMARK  7 active torsions:
REMARK  status: ('A' for Active; 'I' for Inactive)
REMARK    1  A    between atoms: N_2  and  C_3 
REMARK    2  A    between atoms: C_11  and  O_12 
REMARK    3  A    between atoms: C_18  and  O_19 
REMARK    4  A    between atoms: C_21  and  O_32 
REMARK    5  A    between atoms: C_22  and  O_31 
REMARK    6  A    between atoms: C_24  and  C_25 
REMARK       I    between atoms: C_25  and  N_26 
REMARK    7  A    between atoms: C_28  and  O_29 
ROOT
HETATM    1  C   LIG     1      26.031  20.031  26.743  1.00  0.00     0.286 C 
HETATM    2  C   LIG     1      26.168  21.375  27.522  1.00  0.00     0.075 C 
HETATM    3  C   LIG     1      27.223  21.298  28.630  1.00  0.00     0.024 C 
HETATM    4  C   LIG     1      27.164  22.579  29.495  1.00  0.00     0.065 C 
HETATM    5  C   LIG     1      27.078  23.854  28.668  1.00  0.00     0.033 C 
HETATM    6  C   LIG     1      27.291  25.122  29.413  1.00  0.00     0.195 C 
HETATM    7  C   LIG     1      27.552  25.079  30.874  1.00  0.00     0.059 C 
HETATM    8  C   LIG     1      28.137  23.912  31.436  1.00  0.00     0.015 C 
HETATM    9  C   LIG     1      28.305  22.650  30.570  1.00  0.00     0.092 C 
HETATM   10  C   LIG     1      29.721  22.698  29.935  1.00  0.00     0.052 C 
HETATM   11  C   LIG     1      28.644  23.978  32.765  1.00  0.00     0.044 C 
HETATM   12 CL   LIG     1      29.602  22.697  33.507  1.00  0.00    -0.084 Cl
HETATM   13  C   LIG     1      28.447  25.125  33.536  1.00  0.00     0.027 C 
HETATM   14  C   LIG     1      27.771  26.220  33.014  1.00  0.00     0.039 C 
HETATM   15  C   LIG     1      27.310  26.208  31.699  1.00  0.00     0.080 C 
HETATM   16  O   LIG     1      27.332  26.225  28.806  1.00  0.00    -0.287 OA
HETATM   17  C   LIG     1      26.768  23.843  27.341  1.00  0.00     0.097 C 
HETATM   18  C   LIG     1      26.496  22.545  26.574  1.00  0.00     0.177 C 
HETATM   19  C   LIG     1      25.296  22.622  25.652  1.00  0.00     0.208 C 
HETATM   20  C   LIG     1      24.893  21.395  24.931  1.00  0.00     0.112 C 
HETATM   21  C   LIG     1      25.304  20.189  25.393  1.00  0.00     0.096 C 
HETATM   22  O   LIG     1      24.605  23.672  25.550  1.00  0.00    -0.288 OA
ENDROOT
BRANCH  20  23
HETATM   23  C   LIG     1      24.098  21.508  23.681  1.00  0.00     0.255 C 
HETATM   24  N   LIG     1      24.467  22.441  22.662  1.00  0.00    -0.366 N 
HETATM   25  H   LIG     1      25.369  22.968  22.713  1.00  0.00     0.159 HD
HETATM   26  H   LIG     1      23.861  22.566  21.821  1.00  0.00     0.159 HD
HETATM   27  O   LIG     1      23.085  20.778  23.504  1.00  0.00    -0.268 OA
ENDBRANCH  20  23
BRANCH  21  28
HETATM   28  O   LIG     1      25.122  19.063  24.589  1.00  0.00    -0.362 OA
HETATM   29  H   LIG     1      24.841  18.171  24.971  1.00  0.00     0.217 HD
ENDBRANCH  21  28
BRANCH  18  30
HETATM   30  O   LIG     1      27.645  22.224  25.823  1.00  0.00    -0.374 OA
HETATM   31  H   LIG     1      28.355  22.880  26.054  1.00  0.00     0.211 HD
ENDBRANCH  18  30
BRANCH   1  32
HETATM   32  N   LIG     1      25.397  19.028  27.647  1.00  0.00     0.091 N 
HETATM   33  C   LIG     1      26.333  18.125  28.342  1.00  0.00     0.310 C 
HETATM   34  C   LIG     1      24.399  19.584  28.578  1.00  0.00     0.310 C 
ENDBRANCH   1  32
BRANCH  17  35
HETATM   35  O   LIG     1      26.782  25.044  26.625  1.00  0.00    -0.361 OA
HETATM   36  H   LIG     1      25.933  25.533  26.371  1.00  0.00     0.217 HD
ENDBRANCH  17  35
BRANCH   9  37
HETATM   37  O   LIG     1      28.167  21.516  31.403  1.00  0.00    -0.385 OA
HETATM   38  H   LIG     1      27.574  20.858  30.957  1.00  0.00     0.211 HD
ENDBRANCH   9  37
BRANCH  15  39
HETATM   39  O   LIG     1      26.594  27.324  31.263  1.00  0.00    -0.360 OA
HETATM   40  H   LIG     1      26.654  28.232  31.708  1.00  0.00     0.217 HD
ENDBRANCH  15  39
TORSDOF 7
ENDMDL
MODEL 16
REMARK VINA RESULT:      -3.5      2.689      4.743
REMARK  7 active torsions:
REMARK  status: ('A' for Active; 'I' for Inactive)
REMARK    1  A    between atoms: N_2  and  C_3 
REMARK    2  A    between atoms: C_11  and  O_12 
REMARK    3  A    between atoms: C_18  and  O_19 
REMARK    4  A    between atoms: C_21  and  O_32 
REMARK    5  A    between atoms: C_22  and  O_31 
REMARK    6  A    between atoms: C_24  and  C_25 
REMARK       I    between atoms: C_25  and  N_26 
REMARK    7  A    between atoms: C_28  and  O_29 
ROOT
HETATM    1  C   LIG     1      28.628  21.971  25.346  1.00  0.00     0.286 C 
HETATM    2  C   LIG     1      27.385  22.044  24.407  1.00  0.00     0.075 C 
HETATM    3  C   LIG     1      27.522  21.121  23.193  1.00  0.00     0.024 C 
HETATM    4  C   LIG     1      26.367  21.392  22.200  1.00  0.00     0.065 C 
HETATM    5  C   LIG     1      25.009  21.496  22.879  1.00  0.00     0.033 C 
HETATM    6  C   LIG     1      23.831  21.483  21.972  1.00  0.00     0.195 C 
HETATM    7  C   LIG     1      24.037  21.389  20.504  1.00  0.00     0.059 C 
HETATM    8  C   LIG     1      25.218  20.771  20.013  1.00  0.00     0.015 C 
HETATM    9  C   LIG     1      26.346  20.393  20.990  1.00  0.00     0.092 C 
HETATM   10  C   LIG     1      26.114  18.924  21.434  1.00  0.00     0.052 C 
HETATM   11  C   LIG     1      25.281  20.427  18.631  1.00  0.00     0.044 C 
HETATM   12 CL   LIG     1      26.570  19.450  17.928  1.00  0.00    -0.084 Cl
HETATM   13  C   LIG     1      24.258  20.812  17.765  1.00  0.00     0.027 C 
HETATM   14  C   LIG     1      23.159  21.518  18.238  1.00  0.00     0.039 C 
HETATM   15  C   LIG     1      23.041  21.824  19.591  1.00  0.00     0.080 C 
HETATM   16  O   LIG     1      22.661  21.471  22.438  1.00  0.00    -0.287 OA
HETATM   17  C   LIG     1      24.877  21.650  24.226  1.00  0.00     0.097 C 
HETATM   18  C   LIG     1      26.086  21.715  25.166  1.00  0.00     0.177 C 
HETATM   19  C   LIG     1      25.984  22.803  26.215  1.00  0.00     0.208 C 
HETATM   20  C   LIG     1      27.138  23.011  27.117  1.00  0.00     0.112 C 
HETATM   21  C   LIG     1      28.358  22.550  26.749  1.00  0.00     0.096 C 
HETATM   22  O   LIG     1      24.983  23.569  26.280  1.00  0.00    -0.288 OA
ENDROOT
BRANCH  20  23
HETATM   23  C   LIG     1      26.928  23.664  28.434  1.00  0.00     0.255 C 
HETATM   24  N   LIG     1      26.355  24.971  28.520  1.00  0.00    -0.366 N 
HETATM   25  H   LIG     1      25.954  25.441  27.676  1.00  0.00     0.159 HD
HETATM   26  H   LIG     1      26.280  25.452  29.444  1.00  0.00     0.159 HD
HETATM   27  O   LIG     1      27.254  23.068  29.497  1.00  0.00    -0.268 OA
ENDBRANCH  20  23
BRANCH  21  28
HETATM   28  O   LIG     1      29.385  22.537  27.694  1.00  0.00    -0.362 OA
HETATM   29  H   LIG     1      29.932  23.361  27.901  1.00  0.00     0.217 HD
ENDBRANCH  21  28
BRANCH  18  30
HETATM   30  O   LIG     1      26.223  20.463  25.800  1.00  0.00    -0.374 OA
HETATM   31  H   LIG     1      25.878  19.767  25.181  1.00  0.00     0.211 HD
ENDBRANCH  18  30
BRANCH   1  32
HETATM   32  N   LIG     1      29.781  22.612  24.650  1.00  0.00     0.091 N 
HETATM   33  C   LIG     1      30.662  21.691  23.908  1.00  0.00     0.310 C 
HETATM   34  C   LIG     1      29.428  23.789  23.834  1.00  0.00     0.310 C 
ENDBRANCH   1  32
BRANCH  17  35
HETATM   35  O   LIG     1      23.599  21.661  24.792  1.00  0.00    -0.361 OA
HETATM   36  H   LIG     1      23.147  22.515  25.094  1.00  0.00     0.217 HD
ENDBRANCH  17  35
BRANCH   9  37
HETATM   37  O   LIG     1      27.582  20.524  20.317  1.00  0.00    -0.385 OA
HETATM   38  H   LIG     1      27.412  20.618  19.344  1.00  0.00     0.211 HD
ENDBRANCH   9  37
BRANCH  15  39
HETATM   39  O   LIG     1      21.936  22.581  19.982  1.00  0.00    -0.360 OA
HETATM   40  H   LIG     1      21.628  22.659  20.944  1.00  0.00     0.217 HD
ENDBRANCH  15  39
TORSDOF 7
ENDMDL
MODEL 17
REMARK VINA RESULT:      -3.4      5.117      8.654
REMARK  7 active torsions:
REMARK  status: ('A' for Active; 'I' for Inactive)
REMARK    1  A    between atoms: N_2  and  C_3 
REMARK    2  A    between atoms: C_11  and  O_12 
REMARK    3  A    between atoms: C_18  and  O_19 
REMARK    4  A    between atoms: C_21  and  O_32 
REMARK    5  A    between atoms: C_22  and  O_31 
REMARK    6  A    between atoms: C_24  and  C_25 
REMARK       I    between atoms: C_25  and  N_26 
REMARK    7  A    between atoms: C_28  and  O_29 
ROOT
HETATM    1  C   LIG     1      25.479  21.476  26.028  1.00  0.00     0.286 C 
HETATM    2  C   LIG     1      26.281  22.777  25.720  1.00  0.00     0.075 C 
HETATM    3  C   LIG     1      27.325  23.083  26.797  1.00  0.00     0.024 C 
HETATM    4  C   LIG     1      27.935  24.483  26.548  1.00  0.00     0.065 C 
HETATM    5  C   LIG     1      28.309  24.720  25.092  1.00  0.00     0.033 C 
HETATM    6  C   LIG     1      29.142  25.923  24.827  1.00  0.00     0.195 C 
HETATM    7  C   LIG     1      29.536  26.804  25.955  1.00  0.00     0.059 C 
HETATM    8  C   LIG     1      29.622  26.253  27.262  1.00  0.00     0.015 C 
HETATM    9  C   LIG     1      29.117  24.822  27.523  1.00  0.00     0.092 C 
HETATM   10  C   LIG     1      30.323  23.859  27.355  1.00  0.00     0.052 C 
HETATM   11  C   LIG     1      30.268  27.014  28.279  1.00  0.00     0.044 C 
HETATM   12 CL   LIG     1      30.659  26.372  29.875  1.00  0.00    -0.084 Cl
HETATM   13  C   LIG     1      30.684  28.320  28.021  1.00  0.00     0.027 C 
HETATM   14  C   LIG     1      30.492  28.890  26.769  1.00  0.00     0.039 C 
HETATM   15  C   LIG     1      29.912  28.155  25.737  1.00  0.00     0.080 C 
HETATM   16  O   LIG     1      29.581  26.158  23.670  1.00  0.00    -0.287 OA
HETATM   17  C   LIG     1      27.863  23.918  24.085  1.00  0.00     0.097 C 
HETATM   18  C   LIG     1      26.963  22.705  24.340  1.00  0.00     0.177 C 
HETATM   19  C   LIG     1      25.811  22.584  23.363  1.00  0.00     0.208 C 
HETATM   20  C   LIG     1      24.829  21.498  23.575  1.00  0.00     0.112 C 
HETATM   21  C   LIG     1      24.731  20.923  24.799  1.00  0.00     0.096 C 
HETATM   22  O   LIG     1      25.637  23.423  22.437  1.00  0.00    -0.288 OA
ENDROOT
BRANCH  20  23
HETATM   23  C   LIG     1      24.015  21.015  22.431  1.00  0.00     0.255 C 
HETATM   24  N   LIG     1      22.588  21.103  22.461  1.00  0.00    -0.366 N 
HETATM   25  H   LIG     1      22.094  21.624  23.222  1.00  0.00     0.159 HD
HETATM   26  H   LIG     1      22.021  20.694  21.685  1.00  0.00     0.159 HD
HETATM   27  O   LIG     1      24.577  20.520  21.417  1.00  0.00    -0.268 OA
ENDBRANCH  20  23
BRANCH  21  28
HETATM   28  O   LIG     1      23.981  19.754  24.934  1.00  0.00    -0.362 OA
HETATM   29  H   LIG     1      23.928  19.250  25.808  1.00  0.00     0.217 HD
ENDBRANCH  21  28
BRANCH  18  30
HETATM   30  O   LIG     1      27.756  21.542  24.276  1.00  0.00    -0.374 OA
HETATM   31  H   LIG     1      27.373  20.874  24.904  1.00  0.00     0.211 HD
ENDBRANCH  18  30
BRANCH   1  32
HETATM   32  N   LIG     1      24.590  21.738  27.197  1.00  0.00     0.091 N 
HETATM   33  C   LIG     1      23.191  22.066  26.866  1.00  0.00     0.310 C 
HETATM   34  C   LIG     1      24.663  20.723  28.264  1.00  0.00     0.310 C 
ENDBRANCH   1  32
BRANCH  17  35
HETATM   35  O   LIG     1      28.308  24.148  22.779  1.00  0.00    -0.361 OA
HETATM   36  H   LIG     1      27.807  24.746  22.133  1.00  0.00     0.217 HD
ENDBRANCH  17  35
BRANCH   9  37
HETATM   37  O   LIG     1      28.606  24.763  28.839  1.00  0.00    -0.385 OA
HETATM   38  H   LIG     1      27.615  24.737  28.800  1.00  0.00     0.211 HD
ENDBRANCH   9  37
BRANCH  15  39
HETATM   39  O   LIG     1      29.703  28.812  24.524  1.00  0.00    -0.360 OA
HETATM   40  H   LIG     1      28.787  28.938  24.110  1.00  0.00     0.217 HD
ENDBRANCH  15  39
TORSDOF 7
ENDMDL
MODEL 18
REMARK VINA RESULT:      -3.3      2.905      4.920
REMARK  7 active torsions:
REMARK  status: ('A' for Active; 'I' for Inactive)
REMARK    1  A    between atoms: N_2  and  C_3 
REMARK    2  A    between atoms: C_11  and  O_12 
REMARK    3  A    between atoms: C_18  and  O_19 
REMARK    4  A    between atoms: C_21  and  O_32 
REMARK    5  A    between atoms: C_22  and  O_31 
REMARK    6  A    between atoms: C_24  and  C_25 
REMARK       I    between atoms: C_25  and  N_26 
REMARK    7  A    between atoms: C_28  and  O_29 
ROOT
HETATM    1  C   LIG     1      27.268  22.216  25.943  1.00  0.00     0.286 C 
HETATM    2  C   LIG     1      26.439  21.557  24.798  1.00  0.00     0.075 C 
HETATM    3  C   LIG     1      26.703  22.212  23.440  1.00  0.00     0.024 C 
HETATM    4  C   LIG     1      25.706  21.662  22.393  1.00  0.00     0.065 C 
HETATM    5  C   LIG     1      25.559  20.148  22.448  1.00  0.00     0.033 C 
HETATM    6  C   LIG     1      24.835  19.529  21.306  1.00  0.00     0.195 C 
HETATM    7  C   LIG     1      24.300  20.391  20.222  1.00  0.00     0.059 C 
HETATM    8  C   LIG     1      24.920  21.645  19.970  1.00  0.00     0.015 C 
HETATM    9  C   LIG     1      25.993  22.175  20.938  1.00  0.00     0.092 C 
HETATM   10  C   LIG     1      27.378  21.714  20.407  1.00  0.00     0.052 C 
HETATM   11  C   LIG     1      24.597  22.332  18.764  1.00  0.00     0.044 C 
HETATM   12 CL   LIG     1      25.454  23.767  18.203  1.00  0.00    -0.084 Cl
HETATM   13  C   LIG     1      23.597  21.843  17.924  1.00  0.00     0.027 C 
HETATM   14  C   LIG     1      22.917  20.675  18.240  1.00  0.00     0.039 C 
HETATM   15  C   LIG     1      23.245  19.950  19.383  1.00  0.00     0.080 C 
HETATM   16  O   LIG     1      24.740  18.277  21.209  1.00  0.00    -0.287 OA
HETATM   17  C   LIG     1      26.008  19.410  23.500  1.00  0.00     0.097 C 
HETATM   18  C   LIG     1      26.711  20.043  24.706  1.00  0.00     0.177 C 
HETATM   19  C   LIG     1      26.240  19.500  26.040  1.00  0.00     0.208 C 
HETATM   20  C   LIG     1      26.790  20.107  27.271  1.00  0.00     0.112 C 
HETATM   21  C   LIG     1      27.345  21.343  27.211  1.00  0.00     0.096 C 
HETATM   22  O   LIG     1      25.350  18.610  26.116  1.00  0.00    -0.288 OA
ENDROOT
BRANCH  20  23
HETATM   23  C   LIG     1      26.782  19.330  28.537  1.00  0.00     0.255 C 
HETATM   24  N   LIG     1      27.215  17.967  28.561  1.00  0.00    -0.366 N 
HETATM   25  H   LIG     1      27.666  17.529  27.725  1.00  0.00     0.159 HD
HETATM   26  H   LIG     1      27.136  17.407  29.439  1.00  0.00     0.159 HD
HETATM   27  O   LIG     1      26.393  19.868  29.609  1.00  0.00    -0.268 OA
ENDBRANCH  20  23
BRANCH  21  28
HETATM   28  O   LIG     1      28.066  21.810  28.310  1.00  0.00    -0.362 OA
HETATM   29  H   LIG     1      28.873  21.319  28.669  1.00  0.00     0.217 HD
ENDBRANCH  21  28
BRANCH  18  30
HETATM   30  O   LIG     1      28.098  19.829  24.574  1.00  0.00    -0.374 OA
HETATM   31  H   LIG     1      28.405  19.314  25.367  1.00  0.00     0.211 HD
ENDBRANCH  18  30
BRANCH   1  32
HETATM   32  N   LIG     1      26.719  23.581  26.193  1.00  0.00     0.091 N 
HETATM   33  C   LIG     1      27.467  24.686  25.565  1.00  0.00     0.310 C 
HETATM   34  C   LIG     1      25.270  23.713  25.958  1.00  0.00     0.310 C 
ENDBRANCH   1  32
BRANCH  17  35
HETATM   35  O   LIG     1      25.910  18.016  23.450  1.00  0.00    -0.361 OA
HETATM   36  H   LIG     1      25.036  17.541  23.260  1.00  0.00     0.217 HD
ENDBRANCH  17  35
BRANCH   9  37
HETATM   37  O   LIG     1      25.911  23.585  20.967  1.00  0.00    -0.385 OA
HETATM   38  H   LIG     1      25.695  23.878  21.889  1.00  0.00     0.211 HD
ENDBRANCH   9  37
BRANCH  15  39
HETATM   39  O   LIG     1      22.481  18.815  19.662  1.00  0.00    -0.360 OA
HETATM   40  H   LIG     1      21.831  18.406  19.002  1.00  0.00     0.217 HD
ENDBRANCH  15  39
TORSDOF 7
ENDMDL
MODEL 19
REMARK VINA RESULT:      -3.3      2.693      3.730
REMARK  7 active torsions:
REMARK  status: ('A' for Active; 'I' for Inactive)
REMARK    1  A    between atoms: N_2  and  C_3 
REMARK    2  A    between atoms: C_11  and  O_12 
REMARK    3  A    between atoms: C_18  and  O_19 
REMARK    4  A    between atoms: C_21  and  O_32 
REMARK    5  A    between atoms: C_22  and  O_31 
REMARK    6  A    between atoms: C_24  and  C_25 
REMARK       I    between atoms: C_25  and  N_26 
REMARK    7  A    between atoms: C_28  and  O_29 
ROOT
HETATM    1  C   LIG     1      26.355  23.103  25.597  1.00  0.00     0.286 C 
HETATM    2  C   LIG     1      26.903  22.741  24.182  1.00  0.00     0.075 C 
HETATM    3  C   LIG     1      25.816  22.807  23.105  1.00  0.00     0.024 C 
HETATM    4  C   LIG     1      26.366  22.240  21.775  1.00  0.00     0.065 C 
HETATM    5  C   LIG     1      27.753  22.761  21.433  1.00  0.00     0.033 C 
HETATM    6  C   LIG     1      28.227  22.477  20.053  1.00  0.00     0.195 C 
HETATM    7  C   LIG     1      27.357  21.713  19.122  1.00  0.00     0.059 C 
HETATM    8  C   LIG     1      25.949  21.746  19.311  1.00  0.00     0.015 C 
HETATM    9  C   LIG     1      25.364  22.397  20.577  1.00  0.00     0.092 C 
HETATM   10  C   LIG     1      25.060  23.884  20.247  1.00  0.00     0.052 C 
HETATM   11  C   LIG     1      25.112  21.259  18.266  1.00  0.00     0.044 C 
HETATM   12 CL   LIG     1      23.359  21.451  18.255  1.00  0.00    -0.084 Cl
HETATM   13  C   LIG     1      25.672  20.645  17.146  1.00  0.00     0.027 C 
HETATM   14  C   LIG     1      27.049  20.515  17.025  1.00  0.00     0.039 C 
HETATM   15  C   LIG     1      27.899  21.028  18.003  1.00  0.00     0.080 C 
HETATM   16  O   LIG     1      29.321  22.943  19.639  1.00  0.00    -0.287 OA
HETATM   17  C   LIG     1      28.539  23.396  22.346  1.00  0.00     0.097 C 
HETATM   18  C   LIG     1      28.082  23.651  23.786  1.00  0.00     0.177 C 
HETATM   19  C   LIG     1      29.145  23.353  24.824  1.00  0.00     0.208 C 
HETATM   20  C   LIG     1      28.777  23.479  26.252  1.00  0.00     0.112 C 
HETATM   21  C   LIG     1      27.469  23.445  26.605  1.00  0.00     0.096 C 
HETATM   22  O   LIG     1      30.289  22.934  24.499  1.00  0.00    -0.288 OA
ENDROOT
BRANCH  20  23
HETATM   23  C   LIG     1      29.840  23.704  27.264  1.00  0.00     0.255 C 
HETATM   24  N   LIG     1      30.131  25.020  27.740  1.00  0.00    -0.366 N 
HETATM   25  H   LIG     1      29.521  25.832  27.489  1.00  0.00     0.159 HD
HETATM   26  H   LIG     1      30.929  25.177  28.396  1.00  0.00     0.159 HD
HETATM   27  O   LIG     1      30.501  22.730  27.716  1.00  0.00    -0.268 OA
ENDBRANCH  20  23
BRANCH  21  28
HETATM   28  O   LIG     1      27.115  23.797  27.909  1.00  0.00    -0.362 OA
HETATM   29  H   LIG     1      27.346  23.215  28.701  1.00  0.00     0.217 HD
ENDBRANCH  21  28
BRANCH  18  30
HETATM   30  O   LIG     1      27.684  24.999  23.894  1.00  0.00    -0.374 OA
HETATM   31  H   LIG     1      26.909  25.041  24.514  1.00  0.00     0.211 HD
ENDBRANCH  18  30
BRANCH   1  32
HETATM   32  N   LIG     1      25.461  21.998  26.050  1.00  0.00     0.091 N 
HETATM   33  C   LIG     1      26.144  20.845  26.665  1.00  0.00     0.310 C 
HETATM   34  C   LIG     1      24.309  22.433  26.862  1.00  0.00     0.310 C 
ENDBRANCH   1  32
BRANCH  17  35
HETATM   35  O   LIG     1      29.773  23.918  21.942  1.00  0.00    -0.361 OA
HETATM   36  H   LIG     1      30.569  23.969  22.565  1.00  0.00     0.217 HD
ENDBRANCH  17  35
BRANCH   9  37
HETATM   37  O   LIG     1      24.180  21.708  20.927  1.00  0.00    -0.385 OA
HETATM   38  H   LIG     1      24.030  20.974  20.277  1.00  0.00     0.211 HD
ENDBRANCH   9  37
BRANCH  15  39
HETATM   39  O   LIG     1      29.268  20.813  17.838  1.00  0.00    -0.360 OA
HETATM   40  H   LIG     1      29.838  21.335  17.183  1.00  0.00     0.217 HD
ENDBRANCH  15  39
TORSDOF 7
ENDMDL
MODEL 20
REMARK VINA RESULT:      -3.3      5.420     10.543
REMARK  7 active torsions:
REMARK  status: ('A' for Active; 'I' for Inactive)
REMARK    1  A    between atoms: N_2  and  C_3 
REMARK    2  A    between atoms: C_11  and  O_12 
REMARK    3  A    between atoms: C_18  and  O_19 
REMARK    4  A    between atoms: C_21  and  O_32 
REMARK    5  A    between atoms: C_22  and  O_31 
REMARK    6  A    between atoms: C_24  and  C_25 
REMARK       I    between atoms: C_25  and  N_26 
REMARK    7  A    between atoms: C_28  and  O_29 
ROOT
HETATM    1  C   LIG     1      27.269  24.273  24.048  1.00  0.00     0.286 C 
HETATM    2  C   LIG     1      27.544  23.857  25.526  1.00  0.00     0.075 C 
HETATM    3  C   LIG     1      27.893  25.056  26.411  1.00  0.00     0.024 C 
HETATM    4  C   LIG     1      28.358  24.560  27.801  1.00  0.00     0.065 C 
HETATM    5  C   LIG     1      27.461  23.475  28.377  1.00  0.00     0.033 C 
HETATM    6  C   LIG     1      27.684  23.147  29.810  1.00  0.00     0.195 C 
HETATM    7  C   LIG     1      28.742  23.860  30.569  1.00  0.00     0.059 C 
HETATM    8  C   LIG     1      29.130  25.161  30.152  1.00  0.00     0.015 C 
HETATM    9  C   LIG     1      28.602  25.727  28.822  1.00  0.00     0.092 C 
HETATM   10  C   LIG     1      27.309  26.530  29.130  1.00  0.00     0.052 C 
HETATM   11  C   LIG     1      29.925  25.949  31.035  1.00  0.00     0.044 C 
HETATM   12 CL   LIG     1      30.283  27.654  30.764  1.00  0.00    -0.084 Cl
HETATM   13  C   LIG     1      30.416  25.397  32.219  1.00  0.00     0.027 C 
HETATM   14  C   LIG     1      30.124  24.083  32.561  1.00  0.00     0.039 C 
HETATM   15  C   LIG     1      29.306  23.303  31.747  1.00  0.00     0.080 C 
HETATM   16  O   LIG     1      26.934  22.329  30.406  1.00  0.00    -0.287 OA
HETATM   17  C   LIG     1      26.551  22.802  27.619  1.00  0.00     0.097 C 
HETATM   18  C   LIG     1      26.348  23.097  26.129  1.00  0.00     0.177 C 
HETATM   19  C   LIG     1      26.229  21.852  25.272  1.00  0.00     0.208 C 
HETATM   20  C   LIG     1      26.120  22.024  23.807  1.00  0.00     0.112 C 
HETATM   21  C   LIG     1      26.529  23.187  23.244  1.00  0.00     0.096 C 
HETATM   22  O   LIG     1      26.297  20.696  25.771  1.00  0.00    -0.288 OA
ENDROOT
BRANCH  20  23
HETATM   23  C   LIG     1      25.508  20.947  22.988  1.00  0.00     0.255 C 
HETATM   24  N   LIG     1      26.111  19.653  22.912  1.00  0.00    -0.366 N 
HETATM   25  H   LIG     1      26.916  19.396  23.528  1.00  0.00     0.159 HD
HETATM   26  H   LIG     1      25.715  18.925  22.276  1.00  0.00     0.159 HD
HETATM   27  O   LIG     1      24.442  21.164  22.348  1.00  0.00    -0.268 OA
ENDBRANCH  20  23
BRANCH  21  28
HETATM   28  O   LIG     1      26.211  23.435  21.908  1.00  0.00    -0.362 OA
HETATM   29  H   LIG     1      25.262  23.609  21.607  1.00  0.00     0.217 HD
ENDBRANCH  21  28
BRANCH  18  30
HETATM   30  O   LIG     1      25.183  23.878  25.986  1.00  0.00    -0.374 OA
HETATM   31  H   LIG     1      24.741  23.934  26.874  1.00  0.00     0.211 HD
ENDBRANCH  18  30
BRANCH   1  32
HETATM   32  N   LIG     1      28.560  24.695  23.432  1.00  0.00     0.091 N 
HETATM   33  C   LIG     1      29.406  23.599  22.926  1.00  0.00     0.310 C 
HETATM   34  C   LIG     1      28.441  25.781  22.441  1.00  0.00     0.310 C 
ENDBRANCH   1  32
BRANCH  17  35
HETATM   35  O   LIG     1      25.706  21.870  28.230  1.00  0.00    -0.361 OA
HETATM   36  H   LIG     1      25.586  20.931  27.872  1.00  0.00     0.217 HD
ENDBRANCH  17  35
BRANCH   9  37
HETATM   37  O   LIG     1      29.595  26.567  28.269  1.00  0.00    -0.385 OA
HETATM   38  H   LIG     1      30.411  26.031  28.094  1.00  0.00     0.211 HD
ENDBRANCH   9  37
BRANCH  15  39
HETATM   39  O   LIG     1      29.101  21.976  32.129  1.00  0.00    -0.360 OA
HETATM   40  H   LIG     1      28.376  21.389  31.733  1.00  0.00     0.217 HD
ENDBRANCH  15  39
TORSDOF 7
ENDMDL
