REMARK  7 active torsions:
REMARK  status: ('A' for Active; 'I' for Inactive)
REMARK    1  A    between atoms: N_2  and  C_3 
REMARK    2  A    between atoms: C_11  and  O_12 
REMARK    3  A    between atoms: C_18  and  O_19 
REMARK    4  A    between atoms: C_21  and  O_32 
REMARK    5  A    between atoms: C_22  and  O_31 
REMARK    6  A    between atoms: C_24  and  C_25 
REMARK       I    between atoms: C_25  and  N_26 
REMARK    7  A    between atoms: C_28  and  O_29 
ROOT
HETATM    1  C   LIG     1      -2.550  -0.913  -0.128  1.00  0.00     0.286 C 
HETATM    2  C   LIG     1      -1.168  -0.226   0.098  1.00  0.00     0.075 C 
HETATM    3  C   LIG     1      -0.003  -1.095  -0.383  1.00  0.00     0.024 C 
HETATM    4  C   LIG     1       1.337  -0.459   0.056  1.00  0.00     0.065 C 
HETATM    5  C   LIG     1       1.399   1.039  -0.203  1.00  0.00     0.033 C 
HETATM    6  C   LIG     1       2.741   1.663  -0.061  1.00  0.00     0.195 C 
HETATM    7  C   LIG     1       3.903   0.824   0.327  1.00  0.00     0.059 C 
HETATM    8  C   LIG     1       3.882  -0.564   0.023  1.00  0.00     0.015 C 
HETATM    9  C   LIG     1       2.592  -1.209  -0.515  1.00  0.00     0.092 C 
HETATM   10  C   LIG     1       2.655  -1.169  -2.066  1.00  0.00     0.052 C 
HETATM   11  C   LIG     1       5.096  -1.302   0.133  1.00  0.00     0.044 C 
HETATM   12 CL   LIG     1       5.281  -2.962  -0.433  1.00  0.00    -0.084 Cl
HETATM   13  C   LIG     1       6.240  -0.698   0.655  1.00  0.00     0.027 C 
HETATM   14  C   LIG     1       6.217   0.631   1.057  1.00  0.00     0.039 C 
HETATM   15  C   LIG     1       5.062   1.396   0.913  1.00  0.00     0.080 C 
HETATM   16  O   LIG     1       2.918   2.878  -0.343  1.00  0.00    -0.287 OA
HETATM   17  C   LIG     1       0.290   1.776  -0.489  1.00  0.00     0.097 C 
HETATM   18  C   LIG     1      -1.106   1.152  -0.588  1.00  0.00     0.177 C 
HETATM   19  C   LIG     1      -2.185   1.960   0.104  1.00  0.00     0.208 C 
HETATM   20  C   LIG     1      -3.554   1.401   0.145  1.00  0.00     0.112 C 
HETATM   21  C   LIG     1      -3.733   0.071  -0.045  1.00  0.00     0.096 C 
HETATM   22  O   LIG     1      -1.924   3.041   0.699  1.00  0.00    -0.288 OA
ENDROOT
BRANCH  20  23
HETATM   23  C   LIG     1      -4.711   2.313   0.331  1.00  0.00     0.255 C 
HETATM   24  N   LIG     1      -4.670   3.656  -0.159  1.00  0.00    -0.366 N 
HETATM   25  H   LIG     1      -3.886   3.985  -0.768  1.00  0.00     0.159 HD
HETATM   26  H   LIG     1      -5.458   4.312   0.041  1.00  0.00     0.159 HD
HETATM   27  O   LIG     1      -5.748   1.910   0.925  1.00  0.00    -0.268 OA
ENDBRANCH  20  23
BRANCH  21  28
HETATM   28  O   LIG     1      -5.028  -0.412  -0.239  1.00  0.00    -0.362 OA
HETATM   29  H   LIG     1      -5.206  -1.357  -0.549  1.00  0.00     0.217 HD
ENDBRANCH  21  28
BRANCH  18  30
HETATM   30  O   LIG     1      -1.431   1.006  -1.952  1.00  0.00    -0.374 OA
HETATM   31  H   LIG     1      -1.502   1.914  -2.349  1.00  0.00     0.211 HD
ENDBRANCH  18  30
BRANCH   1  32
HETATM   32  N   LIG     1      -2.663  -2.061   0.818  1.00  0.00     0.091 N 
HETATM   33  C   LIG     1      -3.224  -1.735   2.142  1.00  0.00     0.310 C 
HETATM   34  C   LIG     1      -3.297  -3.265   0.250  1.00  0.00     0.310 C 
ENDBRANCH   1  32
BRANCH  17  35
HETATM   35  O   LIG     1       0.430   3.134  -0.792  1.00  0.00    -0.361 OA
HETATM   36  H   LIG     1      -0.341   3.696  -1.131  1.00  0.00     0.217 HD
ENDBRANCH  17  35
BRANCH   9  37
HETATM   37  O   LIG     1       2.532  -2.542  -0.049  1.00  0.00    -0.385 OA
HETATM   38  H   LIG     1       1.927  -3.063  -0.637  1.00  0.00     0.211 HD
ENDBRANCH   9  37
BRANCH  15  39
HETATM   39  O   LIG     1       5.100   2.708   1.388  1.00  0.00    -0.360 OA
HETATM   40  H   LIG     1       4.269   3.255   1.577  1.00  0.00     0.217 HD
ENDBRANCH  15  39
TORSDOF 7
