REMARK  1 active torsions:
REMARK  status: ('A' for Active; 'I' for Inactive)
REMARK    1  A    between atoms: C_19  and  C_20 
ROOT
HETATM    1  O   LIG     1       5.157  -2.592   0.000  1.00  0.00    -0.293 OA
HETATM    2  C   LIG     1       4.254  -1.725  -0.138  1.00  0.00     0.149 C 
HETATM    3  C   LIG     1       3.339  -1.770  -1.317  1.00  0.00     0.084 C 
HETATM    4  C   LIG     1       3.044  -0.344  -1.766  1.00  0.00     0.022 C 
HETATM    5  C   LIG     1       2.490   0.581  -0.622  1.00  0.00    -0.016 C 
HETATM    6  C   LIG     1       2.870   2.032  -1.017  1.00  0.00     0.020 C 
HETATM    7  C   LIG     1       3.153   0.281   0.742  1.00  0.00    -0.068 C 
HETATM    8  C   LIG     1       2.449   0.827   1.970  1.00  0.00     0.035 C 
HETATM    9  C   LIG     1       1.042   0.181   2.113  1.00  0.00     0.010 C 
HETATM   10  C   LIG     1       0.542  -0.435   0.778  1.00  0.00    -0.004 C 
HETATM   11  C   LIG     1       0.918   0.501  -0.416  1.00  0.00     0.002 C 
HETATM   12  C   LIG     1       0.049   0.204  -1.662  1.00  0.00     0.007 C 
HETATM   13  C   LIG     1      -1.474   0.405  -1.394  1.00  0.00     0.011 C 
HETATM   14  C   LIG     1      -1.916   0.138   0.087  1.00  0.00    -0.030 C 
HETATM   15  C   LIG     1      -2.021   1.477   0.888  1.00  0.00     0.016 C 
HETATM   16  C   LIG     1      -0.947  -0.870   0.722  1.00  0.00    -0.001 C 
HETATM   17  C   LIG     1      -1.640  -1.391   1.972  1.00  0.00     0.006 C 
HETATM   18  C   LIG     1      -3.134  -1.365   1.607  1.00  0.00     0.013 C 
HETATM   19  C   LIG     1      -3.251  -0.647   0.233  1.00  0.00     0.063 C 
HETATM   20  C   LIG     1       4.018  -0.735   0.917  1.00  0.00     0.053 C 
ENDROOT
BRANCH  19  21
HETATM   21  C   LIG     1      -4.513   0.188   0.066  1.00  0.00     0.128 C 
HETATM   22  C   LIG     1      -4.938   0.679  -1.286  1.00  0.00     0.091 C 
HETATM   23  O   LIG     1      -5.208   0.468   1.031  1.00  0.00    -0.298 OA
ENDBRANCH  19  21
TORSDOF 1
