MODEL 1
REMARK VINA RESULT:      -5.4      0.000      0.000
REMARK  1 active torsions:
REMARK  status: ('A' for Active; 'I' for Inactive)
REMARK    1  A    between atoms: C_19  and  C_20 
ROOT
HETATM    1  O   LIG     1      27.299  33.035  38.129  1.00  0.00    -0.293 OA
HETATM    2  C   LIG     1      27.376  31.918  37.552  1.00  0.00     0.149 C 
HETATM    3  C   LIG     1      26.271  31.450  36.665  1.00  0.00     0.084 C 
HETATM    4  C   LIG     1      26.101  29.946  36.842  1.00  0.00     0.022 C 
HETATM    5  C   LIG     1      27.425  29.126  36.621  1.00  0.00    -0.016 C 
HETATM    6  C   LIG     1      27.268  27.822  37.446  1.00  0.00     0.020 C 
HETATM    7  C   LIG     1      28.668  29.872  37.160  1.00  0.00    -0.068 C 
HETATM    8  C   LIG     1      30.016  29.373  36.676  1.00  0.00     0.035 C 
HETATM    9  C   LIG     1      30.135  29.558  35.136  1.00  0.00     0.010 C 
HETATM   10  C   LIG     1      28.748  29.722  34.457  1.00  0.00    -0.004 C 
HETATM   11  C   LIG     1      27.716  28.744  35.108  1.00  0.00     0.002 C 
HETATM   12  C   LIG     1      26.497  28.512  34.183  1.00  0.00     0.007 C 
HETATM   13  C   LIG     1      26.896  27.896  32.807  1.00  0.00     0.011 C 
HETATM   14  C   LIG     1      28.332  28.284  32.311  1.00  0.00    -0.030 C 
HETATM   15  C   LIG     1      29.363  27.157  32.647  1.00  0.00     0.016 C 
HETATM   16  C   LIG     1      28.714  29.647  32.907  1.00  0.00    -0.001 C 
HETATM   17  C   LIG     1      29.895  30.149  32.090  1.00  0.00     0.006 C 
HETATM   18  C   LIG     1      29.639  29.585  30.682  1.00  0.00     0.013 C 
HETATM   19  C   LIG     1      28.425  28.621  30.795  1.00  0.00     0.063 C 
HETATM   20  C   LIG     1      28.603  31.122  37.653  1.00  0.00     0.053 C 
ENDROOT
BRANCH  19  21
HETATM   21  C   LIG     1      28.491  27.415  29.868  1.00  0.00     0.128 C 
HETATM   22  C   LIG     1      27.246  26.682  29.468  1.00  0.00     0.091 C 
HETATM   23  O   LIG     1      29.562  27.026  29.426  1.00  0.00    -0.298 OA
ENDBRANCH  19  21
TORSDOF 1
ENDMDL
MODEL 2
REMARK VINA RESULT:      -5.3     13.301     17.276
REMARK  1 active torsions:
REMARK  status: ('A' for Active; 'I' for Inactive)
REMARK    1  A    between atoms: C_19  and  C_20 
ROOT
HETATM    1  O   LIG     1      27.269  22.028  24.586  1.00  0.00    -0.293 OA
HETATM    2  C   LIG     1      26.772  22.189  23.440  1.00  0.00     0.149 C 
HETATM    3  C   LIG     1      27.468  21.652  22.233  1.00  0.00     0.084 C 
HETATM    4  C   LIG     1      27.290  22.635  21.083  1.00  0.00     0.022 C 
HETATM    5  C   LIG     1      25.791  23.003  20.787  1.00  0.00    -0.016 C 
HETATM    6  C   LIG     1      25.811  24.407  20.129  1.00  0.00     0.020 C 
HETATM    7  C   LIG     1      24.950  23.107  22.080  1.00  0.00    -0.068 C 
HETATM    8  C   LIG     1      23.442  23.078  21.910  1.00  0.00     0.035 C 
HETATM    9  C   LIG     1      22.997  21.715  21.309  1.00  0.00     0.010 C 
HETATM   10  C   LIG     1      24.167  20.973  20.608  1.00  0.00    -0.004 C 
HETATM   11  C   LIG     1      25.047  21.992  19.814  1.00  0.00     0.002 C 
HETATM   12  C   LIG     1      25.899  21.283  18.734  1.00  0.00     0.007 C 
HETATM   13  C   LIG     1      25.029  20.524  17.685  1.00  0.00     0.011 C 
HETATM   14  C   LIG     1      23.661  19.991  18.236  1.00  0.00    -0.030 C 
HETATM   15  C   LIG     1      22.496  20.971  17.880  1.00  0.00     0.016 C 
HETATM   16  C   LIG     1      23.796  19.738  19.745  1.00  0.00    -0.001 C 
HETATM   17  C   LIG     1      22.616  18.859  20.132  1.00  0.00     0.006 C 
HETATM   18  C   LIG     1      22.364  18.002  18.880  1.00  0.00     0.013 C 
HETATM   19  C   LIG     1      23.284  18.559  17.758  1.00  0.00     0.063 C 
HETATM   20  C   LIG     1      25.448  22.802  23.292  1.00  0.00     0.053 C 
ENDROOT
BRANCH  19  21
HETATM   21  C   LIG     1      22.688  18.481  16.359  1.00  0.00     0.128 C 
HETATM   22  C   LIG     1      21.211  18.313  16.161  1.00  0.00     0.091 C 
HETATM   23  O   LIG     1      23.402  18.562  15.371  1.00  0.00    -0.298 OA
ENDBRANCH  19  21
TORSDOF 1
ENDMDL
MODEL 3
REMARK VINA RESULT:      -5.2     13.903     16.124
REMARK  1 active torsions:
REMARK  status: ('A' for Active; 'I' for Inactive)
REMARK    1  A    between atoms: C_19  and  C_20 
ROOT
HETATM    1  O   LIG     1      22.433  20.651  22.754  1.00  0.00    -0.293 OA
HETATM    2  C   LIG     1      23.209  21.009  21.828  1.00  0.00     0.149 C 
HETATM    3  C   LIG     1      22.938  22.260  21.058  1.00  0.00     0.084 C 
HETATM    4  C   LIG     1      23.320  22.033  19.601  1.00  0.00     0.022 C 
HETATM    5  C   LIG     1      24.794  21.523  19.402  1.00  0.00    -0.016 C 
HETATM    6  C   LIG     1      24.804  20.743  18.062  1.00  0.00     0.020 C 
HETATM    7  C   LIG     1      25.226  20.542  20.516  1.00  0.00    -0.068 C 
HETATM    8  C   LIG     1      26.715  20.284  20.648  1.00  0.00     0.035 C 
HETATM    9  C   LIG     1      27.455  21.597  21.030  1.00  0.00     0.010 C 
HETATM   10  C   LIG     1      26.613  22.860  20.703  1.00  0.00    -0.004 C 
HETATM   11  C   LIG     1      25.884  22.676  19.333  1.00  0.00     0.002 C 
HETATM   12  C   LIG     1      25.447  24.036  18.738  1.00  0.00     0.007 C 
HETATM   13  C   LIG     1      26.651  24.994  18.482  1.00  0.00     0.011 C 
HETATM   14  C   LIG     1      27.862  24.794  19.459  1.00  0.00    -0.030 C 
HETATM   15  C   LIG     1      28.967  23.903  18.803  1.00  0.00     0.016 C 
HETATM   16  C   LIG     1      27.341  24.228  20.788  1.00  0.00    -0.001 C 
HETATM   17  C   LIG     1      28.455  24.441  21.802  1.00  0.00     0.006 C 
HETATM   18  C   LIG     1      29.137  25.740  21.339  1.00  0.00     0.013 C 
HETATM   19  C   LIG     1      28.509  26.114  19.967  1.00  0.00     0.063 C 
HETATM   20  C   LIG     1      24.446  20.265  21.577  1.00  0.00     0.053 C 
ENDROOT
BRANCH  19  21
HETATM   21  C   LIG     1      29.476  26.776  18.994  1.00  0.00     0.128 C 
HETATM   22  C   LIG     1      28.970  27.604  17.850  1.00  0.00     0.091 C 
HETATM   23  O   LIG     1      30.683  26.649  19.131  1.00  0.00    -0.298 OA
ENDBRANCH  19  21
TORSDOF 1
ENDMDL
MODEL 4
REMARK VINA RESULT:      -5.2     13.729     15.757
REMARK  1 active torsions:
REMARK  status: ('A' for Active; 'I' for Inactive)
REMARK    1  A    between atoms: C_19  and  C_20 
ROOT
HETATM    1  O   LIG     1      28.059  27.425  18.450  1.00  0.00    -0.293 OA
HETATM    2  C   LIG     1      28.013  26.295  19.005  1.00  0.00     0.149 C 
HETATM    3  C   LIG     1      28.059  26.182  20.493  1.00  0.00     0.084 C 
HETATM    4  C   LIG     1      28.871  24.948  20.868  1.00  0.00     0.022 C 
HETATM    5  C   LIG     1      28.364  23.624  20.190  1.00  0.00    -0.016 C 
HETATM    6  C   LIG     1      29.592  22.679  20.115  1.00  0.00     0.020 C 
HETATM    7  C   LIG     1      27.871  23.862  18.744  1.00  0.00    -0.068 C 
HETATM    8  C   LIG     1      27.021  22.764  18.131  1.00  0.00     0.035 C 
HETATM    9  C   LIG     1      25.699  22.600  18.931  1.00  0.00     0.010 C 
HETATM   10  C   LIG     1      25.798  23.205  20.358  1.00  0.00    -0.004 C 
HETATM   11  C   LIG     1      27.198  22.888  20.976  1.00  0.00     0.002 C 
HETATM   12  C   LIG     1      27.179  23.026  22.518  1.00  0.00     0.007 C 
HETATM   13  C   LIG     1      26.158  22.061  23.195  1.00  0.00     0.011 C 
HETATM   14  C   LIG     1      24.908  21.713  22.315  1.00  0.00    -0.030 C 
HETATM   15  C   LIG     1      25.098  20.338  21.594  1.00  0.00     0.016 C 
HETATM   16  C   LIG     1      24.645  22.872  21.342  1.00  0.00    -0.001 C 
HETATM   17  C   LIG     1      23.229  22.674  20.823  1.00  0.00     0.006 C 
HETATM   18  C   LIG     1      22.487  22.026  22.004  1.00  0.00     0.013 C 
HETATM   19  C   LIG     1      23.557  21.700  23.085  1.00  0.00     0.063 C 
HETATM   20  C   LIG     1      27.794  25.090  18.199  1.00  0.00     0.053 C 
ENDROOT
BRANCH  19  21
HETATM   21  C   LIG     1      23.279  20.432  23.881  1.00  0.00     0.128 C 
HETATM   22  C   LIG     1      22.290  19.417  23.391  1.00  0.00     0.091 C 
HETATM   23  O   LIG     1      23.864  20.214  24.931  1.00  0.00    -0.298 OA
ENDBRANCH  19  21
TORSDOF 1
ENDMDL
MODEL 5
REMARK VINA RESULT:      -5.1      2.691      7.706
REMARK  1 active torsions:
REMARK  status: ('A' for Active; 'I' for Inactive)
REMARK    1  A    between atoms: C_19  and  C_20 
ROOT
HETATM    1  O   LIG     1      25.455  22.931  27.641  1.00  0.00    -0.293 OA
HETATM    2  C   LIG     1      26.356  23.630  28.176  1.00  0.00     0.149 C 
HETATM    3  C   LIG     1      26.472  25.083  27.857  1.00  0.00     0.084 C 
HETATM    4  C   LIG     1      27.947  25.460  27.806  1.00  0.00     0.022 C 
HETATM    5  C   LIG     1      28.748  25.073  29.102  1.00  0.00    -0.016 C 
HETATM    6  C   LIG     1      30.225  24.895  28.661  1.00  0.00     0.020 C 
HETATM    7  C   LIG     1      28.275  23.728  29.699  1.00  0.00    -0.068 C 
HETATM    8  C   LIG     1      28.694  23.438  31.128  1.00  0.00     0.035 C 
HETATM    9  C   LIG     1      28.073  24.489  32.092  1.00  0.00     0.010 C 
HETATM   10  C   LIG     1      27.629  25.777  31.347  1.00  0.00    -0.004 C 
HETATM   11  C   LIG     1      28.687  26.157  30.260  1.00  0.00     0.002 C 
HETATM   12  C   LIG     1      28.559  27.642  29.842  1.00  0.00     0.007 C 
HETATM   13  C   LIG     1      28.768  28.622  31.037  1.00  0.00     0.011 C 
HETATM   14  C   LIG     1      28.343  28.048  32.433  1.00  0.00    -0.030 C 
HETATM   15  C   LIG     1      29.583  27.494  33.209  1.00  0.00     0.016 C 
HETATM   16  C   LIG     1      27.243  26.996  32.226  1.00  0.00    -0.001 C 
HETATM   17  C   LIG     1      26.600  26.785  33.588  1.00  0.00     0.006 C 
HETATM   18  C   LIG     1      26.708  28.161  34.267  1.00  0.00     0.013 C 
HETATM   19  C   LIG     1      27.582  29.054  33.343  1.00  0.00     0.063 C 
HETATM   20  C   LIG     1      27.223  23.049  29.206  1.00  0.00     0.053 C 
ENDROOT
BRANCH  19  21
HETATM   21  C   LIG     1      28.464  30.050  34.083  1.00  0.00     0.128 C 
HETATM   22  C   LIG     1      29.015  31.258  33.386  1.00  0.00     0.091 C 
HETATM   23  O   LIG     1      28.734  29.887  35.264  1.00  0.00    -0.298 OA
ENDBRANCH  19  21
TORSDOF 1
ENDMDL
MODEL 6
REMARK VINA RESULT:      -5.0      9.491     15.136
REMARK  1 active torsions:
REMARK  status: ('A' for Active; 'I' for Inactive)
REMARK    1  A    between atoms: C_19  and  C_20 
ROOT
HETATM    1  O   LIG     1      24.853  19.703  18.008  1.00  0.00    -0.293 OA
HETATM    2  C   LIG     1      24.508  20.316  19.053  1.00  0.00     0.149 C 
HETATM    3  C   LIG     1      23.886  19.576  20.191  1.00  0.00     0.084 C 
HETATM    4  C   LIG     1      22.809  20.453  20.818  1.00  0.00     0.022 C 
HETATM    5  C   LIG     1      23.320  21.877  21.247  1.00  0.00    -0.016 C 
HETATM    6  C   LIG     1      22.079  22.808  21.219  1.00  0.00     0.020 C 
HETATM    7  C   LIG     1      24.353  22.450  20.249  1.00  0.00    -0.068 C 
HETATM    8  C   LIG     1      25.187  23.620  20.738  1.00  0.00     0.035 C 
HETATM    9  C   LIG     1      26.066  23.185  21.944  1.00  0.00     0.010 C 
HETATM   10  C   LIG     1      25.532  21.894  22.623  1.00  0.00    -0.004 C 
HETATM   11  C   LIG     1      23.971  21.934  22.693  1.00  0.00     0.002 C 
HETATM   12  C   LIG     1      23.428  20.952  23.759  1.00  0.00     0.007 C 
HETATM   13  C   LIG     1      23.952  21.272  25.193  1.00  0.00     0.011 C 
HETATM   14  C   LIG     1      25.371  21.940  25.234  1.00  0.00    -0.030 C 
HETATM   15  C   LIG     1      25.253  23.492  25.380  1.00  0.00     0.016 C 
HETATM   16  C   LIG     1      26.160  21.510  23.989  1.00  0.00    -0.001 C 
HETATM   17  C   LIG     1      27.617  21.835  24.280  1.00  0.00     0.006 C 
HETATM   18  C   LIG     1      27.746  21.637  25.800  1.00  0.00     0.013 C 
HETATM   19  C   LIG     1      26.311  21.395  26.347  1.00  0.00     0.063 C 
HETATM   20  C   LIG     1      24.822  21.739  19.207  1.00  0.00     0.053 C 
ENDROOT
BRANCH  19  21
HETATM   21  C   LIG     1      26.064  21.964  27.737  1.00  0.00     0.128 C 
HETATM   22  C   LIG     1      27.042  22.912  28.366  1.00  0.00     0.091 C 
HETATM   23  O   LIG     1      25.059  21.665  28.365  1.00  0.00    -0.298 OA
ENDBRANCH  19  21
TORSDOF 1
ENDMDL
MODEL 7
REMARK VINA RESULT:      -4.9     11.069     16.631
REMARK  1 active torsions:
REMARK  status: ('A' for Active; 'I' for Inactive)
REMARK    1  A    between atoms: C_19  and  C_20 
ROOT
HETATM    1  O   LIG     1      21.932  19.808  17.112  1.00  0.00    -0.293 OA
HETATM    2  C   LIG     1      22.811  20.172  17.938  1.00  0.00     0.149 C 
HETATM    3  C   LIG     1      22.809  21.564  18.476  1.00  0.00     0.084 C 
HETATM    4  C   LIG     1      24.251  22.034  18.630  1.00  0.00     0.022 C 
HETATM    5  C   LIG     1      25.146  21.069  19.489  1.00  0.00    -0.016 C 
HETATM    6  C   LIG     1      26.605  21.292  19.012  1.00  0.00     0.020 C 
HETATM    7  C   LIG     1      24.799  19.582  19.245  1.00  0.00    -0.068 C 
HETATM    8  C   LIG     1      25.314  18.591  20.272  1.00  0.00     0.035 C 
HETATM    9  C   LIG     1      24.677  18.878  21.661  1.00  0.00     0.010 C 
HETATM   10  C   LIG     1      24.106  20.319  21.757  1.00  0.00    -0.004 C 
HETATM   11  C   LIG     1      25.074  21.325  21.054  1.00  0.00     0.002 C 
HETATM   12  C   LIG     1      24.822  22.777  21.529  1.00  0.00     0.007 C 
HETATM   13  C   LIG     1      25.028  22.951  23.064  1.00  0.00     0.011 C 
HETATM   14  C   LIG     1      24.721  21.668  23.913  1.00  0.00    -0.030 C 
HETATM   15  C   LIG     1      26.036  20.889  24.244  1.00  0.00     0.016 C 
HETATM   16  C   LIG     1      23.686  20.813  23.167  1.00  0.00    -0.001 C 
HETATM   17  C   LIG     1      23.134  19.832  24.189  1.00  0.00     0.006 C 
HETATM   18  C   LIG     1      23.184  20.609  25.516  1.00  0.00     0.013 C 
HETATM   19  C   LIG     1      23.944  21.936  25.234  1.00  0.00     0.063 C 
HETATM   20  C   LIG     1      23.771  19.198  18.467  1.00  0.00     0.053 C 
ENDROOT
BRANCH  19  21
HETATM   21  C   LIG     1      24.795  22.431  26.395  1.00  0.00     0.128 C 
HETATM   22  C   LIG     1      24.929  21.623  27.651  1.00  0.00     0.091 C 
HETATM   23  O   LIG     1      25.390  23.496  26.322  1.00  0.00    -0.298 OA
ENDBRANCH  19  21
TORSDOF 1
ENDMDL
MODEL 8
REMARK VINA RESULT:      -4.9     10.216     13.481
REMARK  1 active torsions:
REMARK  status: ('A' for Active; 'I' for Inactive)
REMARK    1  A    between atoms: C_19  and  C_20 
ROOT
HETATM    1  O   LIG     1      27.510  19.948  28.584  1.00  0.00    -0.293 OA
HETATM    2  C   LIG     1      27.083  20.754  27.715  1.00  0.00     0.149 C 
HETATM    3  C   LIG     1      27.951  21.159  26.570  1.00  0.00     0.084 C 
HETATM    4  C   LIG     1      27.698  22.628  26.256  1.00  0.00     0.022 C 
HETATM    5  C   LIG     1      26.185  22.974  26.003  1.00  0.00    -0.016 C 
HETATM    6  C   LIG     1      26.019  24.474  26.361  1.00  0.00     0.020 C 
HETATM    7  C   LIG     1      25.242  22.168  26.925  1.00  0.00    -0.068 C 
HETATM    8  C   LIG     1      23.779  22.127  26.525  1.00  0.00     0.035 C 
HETATM    9  C   LIG     1      23.618  21.418  25.151  1.00  0.00     0.010 C 
HETATM   10  C   LIG     1      24.948  21.385  24.350  1.00  0.00    -0.004 C 
HETATM   11  C   LIG     1      25.701  22.746  24.509  1.00  0.00     0.002 C 
HETATM   12  C   LIG     1      26.741  22.951  23.381  1.00  0.00     0.007 C 
HETATM   13  C   LIG     1      26.096  22.956  21.962  1.00  0.00     0.011 C 
HETATM   14  C   LIG     1      24.800  22.083  21.832  1.00  0.00    -0.030 C 
HETATM   15  C   LIG     1      23.516  22.966  21.965  1.00  0.00     0.016 C 
HETATM   16  C   LIG     1      24.859  20.947  22.863  1.00  0.00    -0.001 C 
HETATM   17  C   LIG     1      23.819  19.926  22.427  1.00  0.00     0.006 C 
HETATM   18  C   LIG     1      23.813  20.034  20.893  1.00  0.00     0.013 C 
HETATM   19  C   LIG     1      24.709  21.249  20.522  1.00  0.00     0.063 C 
HETATM   20  C   LIG     1      25.690  21.209  27.757  1.00  0.00     0.053 C 
ENDROOT
BRANCH  19  21
HETATM   21  C   LIG     1      24.244  22.022  19.295  1.00  0.00     0.128 C 
HETATM   22  C   LIG     1      22.906  21.749  18.676  1.00  0.00     0.091 C 
HETATM   23  O   LIG     1      24.951  22.885  18.796  1.00  0.00    -0.298 OA
ENDBRANCH  19  21
TORSDOF 1
ENDMDL
MODEL 9
REMARK VINA RESULT:      -4.8      8.305     13.934
REMARK  1 active torsions:
REMARK  status: ('A' for Active; 'I' for Inactive)
REMARK    1  A    between atoms: C_19  and  C_20 
ROOT
HETATM    1  O   LIG     1      26.277  24.666  17.888  1.00  0.00    -0.293 OA
HETATM    2  C   LIG     1      26.862  24.488  18.989  1.00  0.00     0.149 C 
HETATM    3  C   LIG     1      26.958  25.600  19.980  1.00  0.00     0.084 C 
HETATM    4  C   LIG     1      28.315  25.530  20.669  1.00  0.00     0.022 C 
HETATM    5  C   LIG     1      28.629  24.131  21.316  1.00  0.00    -0.016 C 
HETATM    6  C   LIG     1      30.175  24.010  21.356  1.00  0.00     0.020 C 
HETATM    7  C   LIG     1      28.092  22.961  20.461  1.00  0.00    -0.068 C 
HETATM    8  C   LIG     1      27.994  21.612  21.148  1.00  0.00     0.035 C 
HETATM    9  C   LIG     1      26.980  21.682  22.325  1.00  0.00     0.010 C 
HETATM   10  C   LIG     1      26.723  23.141  22.790  1.00  0.00    -0.004 C 
HETATM   11  C   LIG     1      28.062  23.947  22.787  1.00  0.00     0.002 C 
HETATM   12  C   LIG     1      27.964  25.209  23.678  1.00  0.00     0.007 C 
HETATM   13  C   LIG     1      27.645  24.870  25.167  1.00  0.00     0.011 C 
HETATM   14  C   LIG     1      26.800  23.565  25.371  1.00  0.00    -0.030 C 
HETATM   15  C   LIG     1      27.722  22.352  25.725  1.00  0.00     0.016 C 
HETATM   16  C   LIG     1      25.943  23.325  24.120  1.00  0.00    -0.001 C 
HETATM   17  C   LIG     1      24.875  22.321  24.526  1.00  0.00     0.006 C 
HETATM   18  C   LIG     1      24.612  22.637  26.008  1.00  0.00     0.013 C 
HETATM   19  C   LIG     1      25.679  23.680  26.444  1.00  0.00     0.063 C 
HETATM   20  C   LIG     1      27.350  23.155  19.355  1.00  0.00     0.053 C 
ENDROOT
BRANCH  19  21
HETATM   21  C   LIG     1      26.147  23.536  27.885  1.00  0.00     0.128 C 
HETATM   22  C   LIG     1      26.770  24.691  28.611  1.00  0.00     0.091 C 
HETATM   23  O   LIG     1      26.016  22.477  28.480  1.00  0.00    -0.298 OA
ENDBRANCH  19  21
TORSDOF 1
ENDMDL
MODEL 10
REMARK VINA RESULT:      -4.8     13.293     17.241
REMARK  1 active torsions:
REMARK  status: ('A' for Active; 'I' for Inactive)
REMARK    1  A    between atoms: C_19  and  C_20 
ROOT
HETATM    1  O   LIG     1      25.106  21.973  25.344  1.00  0.00    -0.293 OA
HETATM    2  C   LIG     1      24.649  21.916  24.171  1.00  0.00     0.149 C 
HETATM    3  C   LIG     1      25.272  22.721  23.079  1.00  0.00     0.084 C 
HETATM    4  C   LIG     1      24.174  23.221  22.148  1.00  0.00     0.022 C 
HETATM    5  C   LIG     1      23.247  22.081  21.588  1.00  0.00    -0.016 C 
HETATM    6  C   LIG     1      21.888  22.752  21.259  1.00  0.00     0.020 C 
HETATM    7  C   LIG     1      22.980  20.979  22.639  1.00  0.00    -0.068 C 
HETATM    8  C   LIG     1      22.430  19.666  22.116  1.00  0.00     0.035 C 
HETATM    9  C   LIG     1      23.457  18.998  21.158  1.00  0.00     0.010 C 
HETATM   10  C   LIG     1      24.499  20.013  20.616  1.00  0.00    -0.004 C 
HETATM   11  C   LIG     1      23.798  21.369  20.280  1.00  0.00     0.002 C 
HETATM   12  C   LIG     1      24.652  22.221  19.310  1.00  0.00     0.007 C 
HETATM   13  C   LIG     1      24.915  21.502  17.952  1.00  0.00     0.011 C 
HETATM   14  C   LIG     1      24.960  19.936  18.042  1.00  0.00    -0.030 C 
HETATM   15  C   LIG     1      23.585  19.314  17.631  1.00  0.00     0.016 C 
HETATM   16  C   LIG     1      25.407  19.531  19.454  1.00  0.00    -0.001 C 
HETATM   17  C   LIG     1      25.822  18.070  19.361  1.00  0.00     0.006 C 
HETATM   18  C   LIG     1      26.383  17.933  17.936  1.00  0.00     0.013 C 
HETATM   19  C   LIG     1      26.089  19.272  17.203  1.00  0.00     0.063 C 
HETATM   20  C   LIG     1      23.577  20.971  23.845  1.00  0.00     0.053 C 
ENDROOT
BRANCH  19  21
HETATM   21  C   LIG     1      25.788  19.122  15.718  1.00  0.00     0.128 C 
HETATM   22  C   LIG     1      25.034  17.933  15.201  1.00  0.00     0.091 C 
HETATM   23  O   LIG     1      26.149  19.973  14.920  1.00  0.00    -0.298 OA
ENDBRANCH  19  21
TORSDOF 1
ENDMDL
MODEL 11
REMARK VINA RESULT:      -4.7      8.795     13.392
REMARK  1 active torsions:
REMARK  status: ('A' for Active; 'I' for Inactive)
REMARK    1  A    between atoms: C_19  and  C_20 
ROOT
HETATM    1  O   LIG     1      21.437  22.852  21.146  1.00  0.00    -0.293 OA
HETATM    2  C   LIG     1      22.604  22.607  21.552  1.00  0.00     0.149 C 
HETATM    3  C   LIG     1      23.736  23.506  21.179  1.00  0.00     0.084 C 
HETATM    4  C   LIG     1      24.981  22.658  20.944  1.00  0.00     0.022 C 
HETATM    5  C   LIG     1      25.345  21.716  22.149  1.00  0.00    -0.016 C 
HETATM    6  C   LIG     1      26.136  20.527  21.544  1.00  0.00     0.020 C 
HETATM    7  C   LIG     1      24.087  21.136  22.836  1.00  0.00    -0.068 C 
HETATM    8  C   LIG     1      24.287  20.535  24.214  1.00  0.00     0.035 C 
HETATM    9  C   LIG     1      24.761  21.628  25.213  1.00  0.00     0.010 C 
HETATM   10  C   LIG     1      25.360  22.863  24.487  1.00  0.00    -0.004 C 
HETATM   11  C   LIG     1      26.230  22.401  23.274  1.00  0.00     0.002 C 
HETATM   12  C   LIG     1      27.216  23.508  22.831  1.00  0.00     0.007 C 
HETATM   13  C   LIG     1      28.205  23.920  23.964  1.00  0.00     0.011 C 
HETATM   14  C   LIG     1      27.636  23.761  25.417  1.00  0.00    -0.030 C 
HETATM   15  C   LIG     1      28.111  22.417  26.058  1.00  0.00     0.016 C 
HETATM   16  C   LIG     1      26.107  23.899  25.370  1.00  0.00    -0.001 C 
HETATM   17  C   LIG     1      25.662  24.146  26.804  1.00  0.00     0.006 C 
HETATM   18  C   LIG     1      26.829  24.931  27.425  1.00  0.00     0.013 C 
HETATM   19  C   LIG     1      27.980  24.933  26.380  1.00  0.00     0.063 C 
HETATM   20  C   LIG     1      22.840  21.505  22.489  1.00  0.00     0.053 C 
ENDROOT
BRANCH  19  21
HETATM   21  C   LIG     1      29.377  24.885  26.983  1.00  0.00     0.128 C 
HETATM   22  C   LIG     1      30.580  25.260  26.170  1.00  0.00     0.091 C 
HETATM   23  O   LIG     1      29.544  24.545  28.145  1.00  0.00    -0.298 OA
ENDBRANCH  19  21
TORSDOF 1
ENDMDL
MODEL 12
REMARK VINA RESULT:      -4.7     10.999     17.001
REMARK  1 active torsions:
REMARK  status: ('A' for Active; 'I' for Inactive)
REMARK    1  A    between atoms: C_19  and  C_20 
ROOT
HETATM    1  O   LIG     1      23.521  18.278  16.670  1.00  0.00    -0.293 OA
HETATM    2  C   LIG     1      23.827  19.285  17.362  1.00  0.00     0.149 C 
HETATM    3  C   LIG     1      22.820  19.908  18.271  1.00  0.00     0.084 C 
HETATM    4  C   LIG     1      23.006  21.420  18.249  1.00  0.00     0.022 C 
HETATM    5  C   LIG     1      24.471  21.886  18.580  1.00  0.00    -0.016 C 
HETATM    6  C   LIG     1      24.652  23.265  17.894  1.00  0.00     0.020 C 
HETATM    7  C   LIG     1      25.533  20.929  17.991  1.00  0.00    -0.068 C 
HETATM    8  C   LIG     1      26.938  21.052  18.550  1.00  0.00     0.035 C 
HETATM    9  C   LIG     1      26.945  20.696  20.064  1.00  0.00     0.010 C 
HETATM   10  C   LIG     1      25.529  20.793  20.695  1.00  0.00    -0.004 C 
HETATM   11  C   LIG     1      24.776  22.041  20.130  1.00  0.00     0.002 C 
HETATM   12  C   LIG     1      23.604  22.458  21.051  1.00  0.00     0.007 C 
HETATM   13  C   LIG     1      24.073  22.828  22.491  1.00  0.00     0.011 C 
HETATM   14  C   LIG     1      25.360  22.072  22.972  1.00  0.00    -0.030 C 
HETATM   15  C   LIG     1      26.634  22.957  22.776  1.00  0.00     0.016 C 
HETATM   16  C   LIG     1      25.446  20.722  22.243  1.00  0.00    -0.001 C 
HETATM   17  C   LIG     1      26.445  19.884  23.026  1.00  0.00     0.006 C 
HETATM   18  C   LIG     1      26.265  20.351  24.480  1.00  0.00     0.013 C 
HETATM   19  C   LIG     1      25.308  21.576  24.445  1.00  0.00     0.063 C 
HETATM   20  C   LIG     1      25.206  19.781  17.369  1.00  0.00     0.053 C 
ENDROOT
BRANCH  19  21
HETATM   21  C   LIG     1      25.608  22.638  25.495  1.00  0.00     0.128 C 
HETATM   22  C   LIG     1      26.835  22.547  26.353  1.00  0.00     0.091 C 
HETATM   23  O   LIG     1      24.858  23.589  25.652  1.00  0.00    -0.298 OA
ENDBRANCH  19  21
TORSDOF 1
ENDMDL
MODEL 13
REMARK VINA RESULT:      -4.3     10.735     14.894
REMARK  1 active torsions:
REMARK  status: ('A' for Active; 'I' for Inactive)
REMARK    1  A    between atoms: C_19  and  C_20 
ROOT
HETATM    1  O   LIG     1      22.092  22.443  19.375  1.00  0.00    -0.293 OA
HETATM    2  C   LIG     1      22.972  22.122  20.218  1.00  0.00     0.149 C 
HETATM    3  C   LIG     1      23.609  23.164  21.077  1.00  0.00     0.084 C 
HETATM    4  C   LIG     1      25.080  22.814  21.266  1.00  0.00     0.022 C 
HETATM    5  C   LIG     1      25.323  21.363  21.817  1.00  0.00    -0.016 C 
HETATM    6  C   LIG     1      26.737  20.947  21.334  1.00  0.00     0.020 C 
HETATM    7  C   LIG     1      24.315  20.343  21.238  1.00  0.00    -0.068 C 
HETATM    8  C   LIG     1      24.203  19.017  21.966  1.00  0.00     0.035 C 
HETATM    9  C   LIG     1      23.683  19.242  23.414  1.00  0.00     0.010 C 
HETATM   10  C   LIG     1      23.881  20.708  23.886  1.00  0.00    -0.004 C 
HETATM   11  C   LIG     1      25.267  21.243  23.399  1.00  0.00     0.002 C 
HETATM   12  C   LIG     1      25.720  22.472  24.224  1.00  0.00     0.007 C 
HETATM   13  C   LIG     1      25.868  22.153  25.744  1.00  0.00     0.011 C 
HETATM   14  C   LIG     1      24.911  21.028  26.270  1.00  0.00    -0.030 C 
HETATM   15  C   LIG     1      25.651  19.651  26.333  1.00  0.00     0.016 C 
HETATM   16  C   LIG     1      23.651  20.995  25.394  1.00  0.00    -0.001 C 
HETATM   17  C   LIG     1      22.614  20.201  26.175  1.00  0.00     0.006 C 
HETATM   18  C   LIG     1      22.937  20.515  27.646  1.00  0.00     0.013 C 
HETATM   19  C   LIG     1      24.266  21.321  27.655  1.00  0.00     0.063 C 
HETATM   20  C   LIG     1      23.293  20.710  20.444  1.00  0.00     0.053 C 
ENDROOT
BRANCH  19  21
HETATM   21  C   LIG     1      25.160  21.046  28.856  1.00  0.00     0.128 C 
HETATM   22  C   LIG     1      24.887  19.887  29.769  1.00  0.00     0.091 C 
HETATM   23  O   LIG     1      26.122  21.759  29.094  1.00  0.00    -0.298 OA
ENDBRANCH  19  21
TORSDOF 1
ENDMDL
MODEL 14
REMARK VINA RESULT:      -4.2      9.140     15.287
REMARK  1 active torsions:
REMARK  status: ('A' for Active; 'I' for Inactive)
REMARK    1  A    between atoms: C_19  and  C_20 
ROOT
HETATM    1  O   LIG     1      22.990  21.219  18.001  1.00  0.00    -0.293 OA
HETATM    2  C   LIG     1      24.020  21.340  18.716  1.00  0.00     0.149 C 
HETATM    3  C   LIG     1      24.708  22.660  18.829  1.00  0.00     0.084 C 
HETATM    4  C   LIG     1      26.213  22.427  18.889  1.00  0.00     0.022 C 
HETATM    5  C   LIG     1      26.657  21.430  20.021  1.00  0.00    -0.016 C 
HETATM    6  C   LIG     1      27.998  20.810  19.549  1.00  0.00     0.020 C 
HETATM    7  C   LIG     1      25.648  20.272  20.205  1.00  0.00    -0.068 C 
HETATM    8  C   LIG     1      25.762  19.476  21.491  1.00  0.00     0.035 C 
HETATM    9  C   LIG     1      25.475  20.390  22.716  1.00  0.00     0.010 C 
HETATM   10  C   LIG     1      25.635  21.896  22.372  1.00  0.00    -0.004 C 
HETATM   11  C   LIG     1      26.875  22.103  21.442  1.00  0.00     0.002 C 
HETATM   12  C   LIG     1      27.362  23.572  21.468  1.00  0.00     0.007 C 
HETATM   13  C   LIG     1      27.786  24.039  22.894  1.00  0.00     0.011 C 
HETATM   14  C   LIG     1      27.021  23.331  24.066  1.00  0.00    -0.030 C 
HETATM   15  C   LIG     1      27.865  22.152  24.652  1.00  0.00     0.016 C 
HETATM   16  C   LIG     1      25.638  22.890  23.564  1.00  0.00    -0.001 C 
HETATM   17  C   LIG     1      24.811  22.597  24.807  1.00  0.00     0.006 C 
HETATM   18  C   LIG     1      25.349  23.588  25.853  1.00  0.00     0.013 C 
HETATM   19  C   LIG     1      26.595  24.276  25.226  1.00  0.00     0.063 C 
HETATM   20  C   LIG     1      24.482  20.216  19.536  1.00  0.00     0.053 C 
ENDROOT
BRANCH  19  21
HETATM   21  C   LIG     1      27.695  24.612  26.223  1.00  0.00     0.128 C 
HETATM   22  C   LIG     1      27.623  24.129  27.641  1.00  0.00     0.091 C 
HETATM   23  O   LIG     1      28.662  25.276  25.883  1.00  0.00    -0.298 OA
ENDBRANCH  19  21
TORSDOF 1
ENDMDL
MODEL 15
REMARK VINA RESULT:      -4.2      8.660     14.722
REMARK  1 active torsions:
REMARK  status: ('A' for Active; 'I' for Inactive)
REMARK    1  A    between atoms: C_19  and  C_20 
ROOT
HETATM    1  O   LIG     1      24.170  22.037  17.880  1.00  0.00    -0.293 OA
HETATM    2  C   LIG     1      25.062  22.160  18.760  1.00  0.00     0.149 C 
HETATM    3  C   LIG     1      25.542  23.515  19.163  1.00  0.00     0.084 C 
HETATM    4  C   LIG     1      27.041  23.447  19.432  1.00  0.00     0.022 C 
HETATM    5  C   LIG     1      27.450  22.341  20.472  1.00  0.00    -0.016 C 
HETATM    6  C   LIG     1      28.917  21.958  20.141  1.00  0.00     0.020 C 
HETATM    7  C   LIG     1      26.592  21.062  20.330  1.00  0.00    -0.068 C 
HETATM    8  C   LIG     1      26.629  20.092  21.495  1.00  0.00     0.035 C 
HETATM    9  C   LIG     1      26.050  20.764  22.772  1.00  0.00     0.010 C 
HETATM   10  C   LIG     1      26.052  22.314  22.669  1.00  0.00    -0.004 C 
HETATM   11  C   LIG     1      27.371  22.803  21.988  1.00  0.00     0.002 C 
HETATM   12  C   LIG     1      27.646  24.295  22.295  1.00  0.00     0.007 C 
HETATM   13  C   LIG     1      27.796  24.576  23.822  1.00  0.00     0.011 C 
HETATM   14  C   LIG     1      26.975  23.611  24.746  1.00  0.00    -0.030 C 
HETATM   15  C   LIG     1      27.879  22.458  25.292  1.00  0.00     0.016 C 
HETATM   16  C   LIG     1      25.750  23.102  23.972  1.00  0.00    -0.001 C 
HETATM   17  C   LIG     1      24.803  22.526  25.014  1.00  0.00     0.006 C 
HETATM   18  C   LIG     1      25.047  23.394  26.259  1.00  0.00     0.013 C 
HETATM   19  C   LIG     1      26.264  24.308  25.942  1.00  0.00     0.063 C 
HETATM   20  C   LIG     1      25.551  20.981  19.481  1.00  0.00     0.053 C 
ENDROOT
BRANCH  19  21
HETATM   21  C   LIG     1      27.156  24.605  27.139  1.00  0.00     0.128 C 
HETATM   22  C   LIG     1      26.938  23.914  28.452  1.00  0.00     0.091 C 
HETATM   23  O   LIG     1      28.072  25.409  27.050  1.00  0.00    -0.298 OA
ENDBRANCH  19  21
TORSDOF 1
ENDMDL
MODEL 16
REMARK VINA RESULT:      -4.2      6.952     12.692
REMARK  1 active torsions:
REMARK  status: ('A' for Active; 'I' for Inactive)
REMARK    1  A    between atoms: C_19  and  C_20 
ROOT
HETATM    1  O   LIG     1      26.113  24.863  19.331  1.00  0.00    -0.293 OA
HETATM    2  C   LIG     1      26.907  24.614  20.277  1.00  0.00     0.149 C 
HETATM    3  C   LIG     1      27.725  25.706  20.882  1.00  0.00     0.084 C 
HETATM    4  C   LIG     1      29.100  25.152  21.237  1.00  0.00     0.022 C 
HETATM    5  C   LIG     1      29.053  23.872  22.149  1.00  0.00    -0.016 C 
HETATM    6  C   LIG     1      30.365  23.093  21.868  1.00  0.00     0.020 C 
HETATM    7  C   LIG     1      27.873  22.942  21.788  1.00  0.00    -0.068 C 
HETATM    8  C   LIG     1      27.500  21.892  22.817  1.00  0.00     0.035 C 
HETATM    9  C   LIG     1      27.021  22.574  24.130  1.00  0.00     0.010 C 
HETATM   10  C   LIG     1      27.494  24.050  24.229  1.00  0.00    -0.004 C 
HETATM   11  C   LIG     1      28.961  24.177  23.705  1.00  0.00     0.002 C 
HETATM   12  C   LIG     1      29.635  25.471  24.219  1.00  0.00     0.007 C 
HETATM   13  C   LIG     1      29.706  25.534  25.776  1.00  0.00     0.011 C 
HETATM   14  C   LIG     1      28.546  24.778  26.512  1.00  0.00    -0.030 C 
HETATM   15  C   LIG     1      29.005  23.352  26.962  1.00  0.00     0.016 C 
HETATM   16  C   LIG     1      27.310  24.754  25.600  1.00  0.00    -0.001 C 
HETATM   17  C   LIG     1      26.133  24.392  26.494  1.00  0.00     0.006 C 
HETATM   18  C   LIG     1      26.497  25.010  27.855  1.00  0.00     0.013 C 
HETATM   19  C   LIG     1      27.957  25.532  27.739  1.00  0.00     0.063 C 
HETATM   20  C   LIG     1      26.947  23.273  20.869  1.00  0.00     0.053 C 
ENDROOT
BRANCH  19  21
HETATM   21  C   LIG     1      28.770  25.415  29.020  1.00  0.00     0.128 C 
HETATM   22  C   LIG     1      28.241  24.657  30.201  1.00  0.00     0.091 C 
HETATM   23  O   LIG     1      29.874  25.931  29.108  1.00  0.00    -0.298 OA
ENDBRANCH  19  21
TORSDOF 1
ENDMDL
MODEL 17
REMARK VINA RESULT:      -4.2     10.203     15.247
REMARK  1 active torsions:
REMARK  status: ('A' for Active; 'I' for Inactive)
REMARK    1  A    between atoms: C_19  and  C_20 
ROOT
HETATM    1  O   LIG     1      24.092  22.040  17.880  1.00  0.00    -0.293 OA
HETATM    2  C   LIG     1      25.181  22.497  18.318  1.00  0.00     0.149 C 
HETATM    3  C   LIG     1      25.381  23.971  18.451  1.00  0.00     0.084 C 
HETATM    4  C   LIG     1      26.823  24.307  18.089  1.00  0.00     0.022 C 
HETATM    5  C   LIG     1      27.890  23.489  18.903  1.00  0.00    -0.016 C 
HETATM    6  C   LIG     1      29.161  23.432  18.015  1.00  0.00     0.020 C 
HETATM    7  C   LIG     1      27.436  22.033  19.160  1.00  0.00    -0.068 C 
HETATM    8  C   LIG     1      28.186  21.272  20.237  1.00  0.00     0.035 C 
HETATM    9  C   LIG     1      27.979  21.954  21.618  1.00  0.00     0.010 C 
HETATM   10  C   LIG     1      27.509  23.428  21.479  1.00  0.00    -0.004 C 
HETATM   11  C   LIG     1      28.273  24.123  20.306  1.00  0.00     0.002 C 
HETATM   12  C   LIG     1      28.218  25.665  20.432  1.00  0.00     0.007 C 
HETATM   13  C   LIG     1      28.857  26.184  21.756  1.00  0.00     0.011 C 
HETATM   14  C   LIG     1      28.757  25.186  22.962  1.00  0.00    -0.030 C 
HETATM   15  C   LIG     1      30.084  24.374  23.126  1.00  0.00     0.016 C 
HETATM   16  C   LIG     1      27.524  24.292  22.769  1.00  0.00    -0.001 C 
HETATM   17  C   LIG     1      27.250  23.653  24.122  1.00  0.00     0.006 C 
HETATM   18  C   LIG     1      27.701  24.719  25.135  1.00  0.00     0.013 C 
HETATM   19  C   LIG     1      28.396  25.848  24.323  1.00  0.00     0.063 C 
HETATM   20  C   LIG     1      26.216  21.584  18.811  1.00  0.00     0.053 C 
ENDROOT
BRANCH  19  21
HETATM   21  C   LIG     1      29.558  26.517  25.044  1.00  0.00     0.128 C 
HETATM   22  C   LIG     1      30.042  27.875  24.631  1.00  0.00     0.091 C 
HETATM   23  O   LIG     1      30.114  25.961  25.980  1.00  0.00    -0.298 OA
ENDBRANCH  19  21
TORSDOF 1
ENDMDL
MODEL 18
REMARK VINA RESULT:      -4.1      3.475      8.873
REMARK  1 active torsions:
REMARK  status: ('A' for Active; 'I' for Inactive)
REMARK    1  A    between atoms: C_19  and  C_20 
ROOT
HETATM    1  O   LIG     1      25.996  21.185  26.493  1.00  0.00    -0.293 OA
HETATM    2  C   LIG     1      26.562  22.234  26.900  1.00  0.00     0.149 C 
HETATM    3  C   LIG     1      25.763  23.464  27.175  1.00  0.00     0.084 C 
HETATM    4  C   LIG     1      26.573  24.683  26.752  1.00  0.00     0.022 C 
HETATM    5  C   LIG     1      28.004  24.751  27.398  1.00  0.00    -0.016 C 
HETATM    6  C   LIG     1      28.880  25.582  26.424  1.00  0.00     0.020 C 
HETATM    7  C   LIG     1      28.651  23.353  27.529  1.00  0.00    -0.068 C 
HETATM    8  C   LIG     1      29.841  23.244  28.464  1.00  0.00     0.035 C 
HETATM    9  C   LIG     1      29.409  23.570  29.922  1.00  0.00     0.010 C 
HETATM   10  C   LIG     1      28.076  24.365  29.974  1.00  0.00    -0.004 C 
HETATM   11  C   LIG     1      28.046  25.432  28.832  1.00  0.00     0.002 C 
HETATM   12  C   LIG     1      27.010  26.544  29.124  1.00  0.00     0.007 C 
HETATM   13  C   LIG     1      27.309  27.310  30.449  1.00  0.00     0.011 C 
HETATM   14  C   LIG     1      28.037  26.457  31.546  1.00  0.00    -0.030 C 
HETATM   15  C   LIG     1      29.578  26.724  31.529  1.00  0.00     0.016 C 
HETATM   16  C   LIG     1      27.679  24.977  31.344  1.00  0.00    -0.001 C 
HETATM   17  C   LIG     1      28.059  24.271  32.637  1.00  0.00     0.006 C 
HETATM   18  C   LIG     1      27.822  25.333  33.724  1.00  0.00     0.013 C 
HETATM   19  C   LIG     1      27.501  26.666  32.991  1.00  0.00     0.063 C 
HETATM   20  C   LIG     1      27.993  22.221  27.219  1.00  0.00     0.053 C 
ENDROOT
BRANCH  19  21
HETATM   21  C   LIG     1      28.017  27.912  33.697  1.00  0.00     0.128 C 
HETATM   22  C   LIG     1      28.910  27.802  34.897  1.00  0.00     0.091 C 
HETATM   23  O   LIG     1      27.719  29.026  33.295  1.00  0.00    -0.298 OA
ENDBRANCH  19  21
TORSDOF 1
ENDMDL
MODEL 19
REMARK VINA RESULT:      -4.0     14.349     16.352
REMARK  1 active torsions:
REMARK  status: ('A' for Active; 'I' for Inactive)
REMARK    1  A    between atoms: C_19  and  C_20 
ROOT
HETATM    1  O   LIG     1      30.072  26.932  19.607  1.00  0.00    -0.293 OA
HETATM    2  C   LIG     1      29.466  25.846  19.404  1.00  0.00     0.149 C 
HETATM    3  C   LIG     1      29.941  24.586  20.049  1.00  0.00     0.084 C 
HETATM    4  C   LIG     1      29.754  23.432  19.072  1.00  0.00     0.022 C 
HETATM    5  C   LIG     1      28.288  23.298  18.519  1.00  0.00    -0.016 C 
HETATM    6  C   LIG     1      28.408  22.596  17.141  1.00  0.00     0.020 C 
HETATM    7  C   LIG     1      27.627  24.676  18.283  1.00  0.00    -0.068 C 
HETATM    8  C   LIG     1      26.118  24.682  18.120  1.00  0.00     0.035 C 
HETATM    9  C   LIG     1      25.436  24.182  19.425  1.00  0.00     0.010 C 
HETATM   10  C   LIG     1      26.412  23.376  20.324  1.00  0.00    -0.004 C 
HETATM   11  C   LIG     1      27.313  22.452  19.442  1.00  0.00     0.002 C 
HETATM   12  C   LIG     1      27.934  21.306  20.276  1.00  0.00     0.007 C 
HETATM   13  C   LIG     1      26.858  20.390  20.934  1.00  0.00     0.011 C 
HETATM   14  C   LIG     1      25.508  21.112  21.276  1.00  0.00    -0.030 C 
HETATM   15  C   LIG     1      24.442  20.860  20.160  1.00  0.00     0.016 C 
HETATM   16  C   LIG     1      25.788  22.602  21.517  1.00  0.00    -0.001 C 
HETATM   17  C   LIG     1      24.561  23.152  22.228  1.00  0.00     0.006 C 
HETATM   18  C   LIG     1      24.055  21.967  23.068  1.00  0.00     0.013 C 
HETATM   19  C   LIG     1      24.900  20.728  22.655  1.00  0.00     0.063 C 
HETATM   20  C   LIG     1      28.223  25.832  18.628  1.00  0.00     0.053 C 
ENDROOT
BRANCH  19  21
HETATM   21  C   LIG     1      24.136  19.411  22.680  1.00  0.00     0.128 C 
HETATM   22  C   LIG     1      22.655  19.384  22.914  1.00  0.00     0.091 C 
HETATM   23  O   LIG     1      24.716  18.350  22.504  1.00  0.00    -0.298 OA
ENDBRANCH  19  21
TORSDOF 1
ENDMDL
MODEL 20
REMARK VINA RESULT:      -3.2     14.862     16.864
REMARK  1 active torsions:
REMARK  status: ('A' for Active; 'I' for Inactive)
REMARK    1  A    between atoms: C_19  and  C_20 
ROOT
HETATM    1  O   LIG     1      23.739  17.932  22.191  1.00  0.00    -0.293 OA
HETATM    2  C   LIG     1      23.808  19.129  21.802  1.00  0.00     0.149 C 
HETATM    3  C   LIG     1      24.654  20.113  22.540  1.00  0.00     0.084 C 
HETATM    4  C   LIG     1      23.947  21.464  22.543  1.00  0.00     0.022 C 
HETATM    5  C   LIG     1      23.552  21.978  21.111  1.00  0.00    -0.016 C 
HETATM    6  C   LIG     1      22.339  22.924  21.311  1.00  0.00     0.020 C 
HETATM    7  C   LIG     1      23.098  20.828  20.184  1.00  0.00    -0.068 C 
HETATM    8  C   LIG     1      23.059  21.133  18.698  1.00  0.00     0.035 C 
HETATM    9  C   LIG     1      24.488  21.460  18.180  1.00  0.00     0.010 C 
HETATM   10  C   LIG     1      25.450  21.863  19.330  1.00  0.00    -0.004 C 
HETATM   11  C   LIG     1      24.702  22.772  20.358  1.00  0.00     0.002 C 
HETATM   12  C   LIG     1      25.697  23.581  21.225  1.00  0.00     0.007 C 
HETATM   13  C   LIG     1      26.611  24.517  20.376  1.00  0.00     0.011 C 
HETATM   14  C   LIG     1      26.907  23.998  18.926  1.00  0.00    -0.030 C 
HETATM   15  C   LIG     1      25.954  24.673  17.886  1.00  0.00     0.016 C 
HETATM   16  C   LIG     1      26.820  22.465  18.918  1.00  0.00    -0.001 C 
HETATM   17  C   LIG     1      27.502  22.011  17.637  1.00  0.00     0.006 C 
HETATM   18  C   LIG     1      28.601  23.062  17.408  1.00  0.00     0.013 C 
HETATM   19  C   LIG     1      28.380  24.184  18.461  1.00  0.00     0.063 C 
HETATM   20  C   LIG     1      23.153  19.535  20.555  1.00  0.00     0.053 C 
ENDROOT
BRANCH  19  21
HETATM   21  C   LIG     1      28.731  25.582  17.972  1.00  0.00     0.128 C 
HETATM   22  C   LIG     1      29.146  25.819  16.550  1.00  0.00     0.091 C 
HETATM   23  O   LIG     1      28.675  26.540  18.728  1.00  0.00    -0.298 OA
ENDBRANCH  19  21
TORSDOF 1
ENDMDL
