REMARK  3 active torsions:
REMARK  status: ('A' for Active; 'I' for Inactive)
REMARK    1  A    between atoms: C_19  and  O_20 
REMARK    2  A    between atoms: O_20  and  C_21 
REMARK    3  A    between atoms: C_21  and  C_22 
ROOT
HETATM    1  O   LIG     1      -6.839   0.492  -0.819  1.00  0.00    -0.293 OA
HETATM    2  C   LIG     1      -5.672   0.253  -0.410  1.00  0.00     0.149 C 
HETATM    3  C   LIG     1      -5.261  -1.165  -0.143  1.00  0.00     0.084 C 
HETATM    4  C   LIG     1      -3.732  -1.312  -0.114  1.00  0.00     0.022 C 
HETATM    5  C   LIG     1      -3.038  -0.220   0.757  1.00  0.00    -0.016 C 
HETATM    6  C   LIG     1      -3.424  -0.416   2.244  1.00  0.00     0.020 C 
HETATM    7  C   LIG     1      -3.513   1.176   0.320  1.00  0.00    -0.068 C 
HETATM    8  C   LIG     1      -2.527   2.333   0.379  1.00  0.00     0.035 C 
HETATM    9  C   LIG     1      -1.230   2.038  -0.420  1.00  0.00     0.010 C 
HETATM   10  C   LIG     1      -1.019   0.524  -0.652  1.00  0.00    -0.004 C 
HETATM   11  C   LIG     1      -1.472  -0.277   0.609  1.00  0.00     0.002 C 
HETATM   12  C   LIG     1      -0.822  -1.686   0.652  1.00  0.00     0.007 C 
HETATM   13  C   LIG     1       0.736  -1.620   0.710  1.00  0.00     0.012 C 
HETATM   14  C   LIG     1       1.352  -0.383  -0.031  1.00  0.00    -0.013 C 
HETATM   15  C   LIG     1       1.698   0.741   0.988  1.00  0.00     0.018 C 
HETATM   16  C   LIG     1       0.387   0.083  -1.133  1.00  0.00     0.001 C 
HETATM   17  C   LIG     1       1.204   0.974  -2.064  1.00  0.00     0.008 C 
HETATM   18  C   LIG     1       2.610   0.344  -2.043  1.00  0.00     0.034 C 
HETATM   19  C   LIG     1       2.589  -0.713  -0.908  1.00  0.00     0.140 C 
HETATM   20  C   LIG     1      -4.744   1.372  -0.180  1.00  0.00     0.053 C 
ENDROOT
BRANCH  19  21
HETATM   21  O   LIG     1       3.826  -0.909  -0.200  1.00  0.00    -0.315 OA
BRANCH  21  22
HETATM   22  C   LIG     1       4.721   0.055   0.293  1.00  0.00     0.258 C 
HETATM   23  O   LIG     1       4.522   1.289   0.142  1.00  0.00    -0.265 OA
BRANCH  22  24
HETATM   24  C   LIG     1       5.965  -0.405   0.982  1.00  0.00     0.106 C 
HETATM   25  C   LIG     1       7.074  -0.662  -0.031  1.00  0.00     0.015 C 
ENDBRANCH  22  24
ENDBRANCH  21  22
ENDBRANCH  19  21
TORSDOF 3
