REMARK  0 active torsions:
REMARK  status: ('A' for Active; 'I' for Inactive)
ROOT
HETATM    1  C   LIG     1       0.135   2.475   0.739  1.00  0.00     0.050 C 
HETATM    2  C   LIG     1      -0.338   1.148   0.166  1.00  0.00    -0.039 C 
HETATM    3  C   LIG     1       0.547   0.035   0.074  1.00  0.00    -0.007 C 
HETATM    4  C   LIG     1       1.968   0.167  -0.050  1.00  0.00    -0.014 C 
HETATM    5  C   LIG     1       2.587   1.325  -0.577  1.00  0.00     0.013 C 
HETATM    6  C   LIG     1       3.978   1.430  -0.641  1.00  0.00     0.001 C 
HETATM    7  C   LIG     1       4.782   0.372  -0.225  1.00  0.00     0.001 C 
HETATM    8  C   LIG     1       4.198  -0.817   0.207  1.00  0.00     0.012 C 
HETATM    9  C   LIG     1       2.800  -0.942   0.257  1.00  0.00    -0.025 C 
HETATM   10  C   LIG     1       2.228  -2.174   0.568  1.00  0.00     0.013 C 
HETATM   11  C   LIG     1       0.854  -2.352   0.466  1.00  0.00     0.014 C 
HETATM   12  C   LIG     1      -0.003  -1.276   0.146  1.00  0.00    -0.018 C 
HETATM   13  C   LIG     1      -1.391  -1.482  -0.074  1.00  0.00    -0.040 C 
HETATM   14  C   LIG     1      -1.935  -2.885  -0.294  1.00  0.00     0.050 C 
HETATM   15  C   LIG     1      -2.261  -0.360  -0.131  1.00  0.00    -0.019 A 
HETATM   16  C   LIG     1      -1.729   0.954  -0.026  1.00  0.00    -0.019 A 
HETATM   17  C   LIG     1      -2.611   2.058  -0.106  1.00  0.00     0.013 A 
HETATM   18  C   LIG     1      -3.984   1.873  -0.246  1.00  0.00     0.001 A 
HETATM   19  C   LIG     1      -4.510   0.590  -0.298  1.00  0.00     0.001 A 
HETATM   20  C   LIG     1      -3.666  -0.517  -0.235  1.00  0.00     0.013 A 
ENDROOT
TORSDOF 0
