REMARK  2 active torsions:
REMARK  status: ('A' for Active; 'I' for Inactive)
REMARK    1  A    between atoms: C_14  and  O_15 
REMARK    2  A    between atoms: C_17  and  O_18 
ROOT
HETATM    1  C   LIG     1      -2.279  -0.994  -1.613  1.00  0.00     0.018 C 
HETATM    2  C   LIG     1      -2.192  -0.829  -0.063  1.00  0.00    -0.014 C 
HETATM    3  C   LIG     1      -1.327  -1.969   0.528  1.00  0.00     0.013 C 
HETATM    4  C   LIG     1       0.163  -1.823   0.124  1.00  0.00     0.010 C 
HETATM    5  C   LIG     1       0.745  -0.409   0.433  1.00  0.00     0.023 C 
HETATM    6  C   LIG     1       2.194  -0.214  -0.018  1.00  0.00    -0.047 A 
HETATM    7  C   LIG     1       2.669   1.079  -0.375  1.00  0.00    -0.049 A 
HETATM    8  C   LIG     1       1.759   2.286  -0.448  1.00  0.00     0.039 C 
HETATM    9  C   LIG     1       0.414   2.077   0.253  1.00  0.00     0.010 C 
HETATM   10  C   LIG     1      -0.168   0.715  -0.142  1.00  0.00    -0.001 C 
HETATM   11  C   LIG     1      -1.595   0.507   0.399  1.00  0.00     0.001 C 
HETATM   12  C   LIG     1      -2.668   1.538   0.085  1.00  0.00     0.008 C 
HETATM   13  C   LIG     1      -3.990   0.781   0.300  1.00  0.00     0.033 C 
HETATM   14  C   LIG     1      -3.637  -0.714   0.476  1.00  0.00     0.126 C 
HETATM   15  C   LIG     1       4.015   1.253  -0.738  1.00  0.00     0.044 A 
HETATM   16  C   LIG     1       4.907   0.181  -0.705  1.00  0.00     0.066 A 
HETATM   17  C   LIG     1       4.460  -1.079  -0.305  1.00  0.00     0.037 A 
HETATM   18  C   LIG     1       3.124  -1.274   0.047  1.00  0.00     0.011 A 
ENDROOT
BRANCH  14  19
HETATM   19  O   LIG     1      -3.707  -1.048   1.840  1.00  0.00    -0.395 OA
HETATM   20  H   LIG     1      -3.857  -2.028   1.889  1.00  0.00     0.210 HD
ENDBRANCH  14  19
BRANCH  16  21
HETATM   21  O   LIG     1       6.238   0.383  -1.065  1.00  0.00    -0.361 OA
HETATM   22  H   LIG     1       6.911  -0.374  -1.050  1.00  0.00     0.217 HD
ENDBRANCH  16  21
TORSDOF 2
