MODEL 1
REMARK VINA RESULT:      -5.5      0.000      0.000
REMARK  2 active torsions:
REMARK  status: ('A' for Active; 'I' for Inactive)
REMARK    1  A    between atoms: C_14  and  O_15 
REMARK    2  A    between atoms: C_17  and  O_18 
ROOT
HETATM    1  C   LIG     1      23.152  21.892  18.497  1.00  0.00     0.018 C 
HETATM    2  C   LIG     1      24.164  21.403  19.580  1.00  0.00    -0.014 C 
HETATM    3  C   LIG     1      25.269  20.554  18.905  1.00  0.00     0.013 C 
HETATM    4  C   LIG     1      26.185  21.421  18.004  1.00  0.00     0.010 C 
HETATM    5  C   LIG     1      26.758  22.673  18.739  1.00  0.00     0.023 C 
HETATM    6  C   LIG     1      27.611  23.585  17.854  1.00  0.00    -0.047 A 
HETATM    7  C   LIG     1      27.696  24.978  18.128  1.00  0.00    -0.049 A 
HETATM    8  C   LIG     1      26.871  25.645  19.208  1.00  0.00     0.039 C 
HETATM    9  C   LIG     1      26.254  24.656  20.200  1.00  0.00     0.010 C 
HETATM   10  C   LIG     1      25.626  23.483  19.438  1.00  0.00    -0.001 C 
HETATM   11  C   LIG     1      24.847  22.531  20.365  1.00  0.00     0.001 C 
HETATM   12  C   LIG     1      23.754  23.093  21.261  1.00  0.00     0.008 C 
HETATM   13  C   LIG     1      22.887  21.870  21.606  1.00  0.00     0.033 C 
HETATM   14  C   LIG     1      23.352  20.709  20.698  1.00  0.00     0.126 C 
HETATM   15  C   LIG     1      28.523  25.796  17.340  1.00  0.00     0.044 A 
HETATM   16  C   LIG     1      29.302  25.250  16.320  1.00  0.00     0.066 A 
HETATM   17  C   LIG     1      29.264  23.876  16.080  1.00  0.00     0.037 A 
HETATM   18  C   LIG     1      28.439  23.049  16.844  1.00  0.00     0.011 A 
ENDROOT
BRANCH  14  19
HETATM   19  O   LIG     1      24.153  19.829  21.448  1.00  0.00    -0.395 OA
HETATM   20  H   LIG     1      23.542  19.169  21.867  1.00  0.00     0.210 HD
ENDBRANCH  14  19
BRANCH  16  21
HETATM   21  O   LIG     1      30.118  26.083  15.557  1.00  0.00    -0.361 OA
HETATM   22  H   LIG     1      30.444  26.974  15.912  1.00  0.00     0.217 HD
ENDBRANCH  16  21
TORSDOF 2
ENDMDL
MODEL 2
REMARK VINA RESULT:      -5.3     14.460     16.589
REMARK  2 active torsions:
REMARK  status: ('A' for Active; 'I' for Inactive)
REMARK    1  A    between atoms: C_14  and  O_15 
REMARK    2  A    between atoms: C_17  and  O_18 
ROOT
HETATM    1  C   LIG     1      28.739  25.636  32.741  1.00  0.00     0.018 C 
HETATM    2  C   LIG     1      28.020  26.582  31.729  1.00  0.00    -0.014 C 
HETATM    3  C   LIG     1      26.561  26.817  32.192  1.00  0.00     0.013 C 
HETATM    4  C   LIG     1      26.504  27.664  33.490  1.00  0.00     0.010 C 
HETATM    5  C   LIG     1      27.322  28.989  33.393  1.00  0.00     0.023 C 
HETATM    6  C   LIG     1      27.341  29.812  34.683  1.00  0.00    -0.047 A 
HETATM    7  C   LIG     1      28.446  30.657  34.982  1.00  0.00    -0.049 A 
HETATM    8  C   LIG     1      29.693  30.695  34.125  1.00  0.00     0.039 C 
HETATM    9  C   LIG     1      29.502  30.061  32.745  1.00  0.00     0.010 C 
HETATM   10  C   LIG     1      28.772  28.721  32.888  1.00  0.00    -0.001 C 
HETATM   11  C   LIG     1      28.689  27.952  31.557  1.00  0.00     0.001 C 
HETATM   12  C   LIG     1      29.966  27.662  30.783  1.00  0.00     0.008 C 
HETATM   13  C   LIG     1      29.589  26.489  29.863  1.00  0.00     0.033 C 
HETATM   14  C   LIG     1      28.202  25.979  30.316  1.00  0.00     0.126 C 
HETATM   15  C   LIG     1      28.427  31.446  36.144  1.00  0.00     0.044 A 
HETATM   16  C   LIG     1      27.315  31.450  36.986  1.00  0.00     0.066 A 
HETATM   17  C   LIG     1      26.206  30.663  36.671  1.00  0.00     0.037 A 
HETATM   18  C   LIG     1      26.211  29.863  35.528  1.00  0.00     0.011 A 
ENDROOT
BRANCH  14  19
HETATM   19  O   LIG     1      27.222  26.449  29.424  1.00  0.00    -0.395 OA
HETATM   20  H   LIG     1      27.499  27.362  29.148  1.00  0.00     0.210 HD
ENDBRANCH  14  19
BRANCH  16  21
HETATM   21  O   LIG     1      27.321  32.246  38.129  1.00  0.00    -0.361 OA
HETATM   22  H   LIG     1      27.433  33.251  38.074  1.00  0.00     0.217 HD
ENDBRANCH  16  21
TORSDOF 2
ENDMDL
MODEL 3
REMARK VINA RESULT:      -5.3      2.101      6.210
REMARK  2 active torsions:
REMARK  status: ('A' for Active; 'I' for Inactive)
REMARK    1  A    between atoms: C_14  and  O_15 
REMARK    2  A    between atoms: C_17  and  O_18 
ROOT
HETATM    1  C   LIG     1      28.574  23.450  18.913  1.00  0.00     0.018 C 
HETATM    2  C   LIG     1      27.467  24.503  19.235  1.00  0.00    -0.014 C 
HETATM    3  C   LIG     1      26.435  24.532  18.082  1.00  0.00     0.013 C 
HETATM    4  C   LIG     1      25.602  23.225  18.027  1.00  0.00     0.010 C 
HETATM    5  C   LIG     1      24.958  22.852  19.398  1.00  0.00     0.023 C 
HETATM    6  C   LIG     1      24.188  21.530  19.391  1.00  0.00    -0.047 A 
HETATM    7  C   LIG     1      24.070  20.759  20.581  1.00  0.00    -0.049 A 
HETATM    8  C   LIG     1      24.788  21.128  21.861  1.00  0.00     0.039 C 
HETATM    9  C   LIG     1      25.313  22.567  21.871  1.00  0.00     0.010 C 
HETATM   10  C   LIG     1      26.016  22.869  20.542  1.00  0.00    -0.001 C 
HETATM   11  C   LIG     1      26.709  24.244  20.544  1.00  0.00     0.001 C 
HETATM   12  C   LIG     1      27.710  24.571  21.641  1.00  0.00     0.008 C 
HETATM   13  C   LIG     1      28.547  25.721  21.054  1.00  0.00     0.033 C 
HETATM   14  C   LIG     1      28.174  25.840  19.558  1.00  0.00     0.126 C 
HETATM   15  C   LIG     1      23.317  19.573  20.574  1.00  0.00     0.044 A 
HETATM   16  C   LIG     1      22.639  19.166  19.425  1.00  0.00     0.066 A 
HETATM   17  C   LIG     1      22.707  19.945  18.269  1.00  0.00     0.037 A 
HETATM   18  C   LIG     1      23.460  21.120  18.253  1.00  0.00     0.011 A 
ENDROOT
BRANCH  14  19
HETATM   19  O   LIG     1      27.310  26.936  19.383  1.00  0.00    -0.395 OA
HETATM   20  H   LIG     1      26.968  27.178  20.282  1.00  0.00     0.210 HD
ENDBRANCH  14  19
BRANCH  16  21
HETATM   21  O   LIG     1      21.895  17.988  19.446  1.00  0.00    -0.361 OA
HETATM   22  H   LIG     1      21.102  17.852  18.832  1.00  0.00     0.217 HD
ENDBRANCH  16  21
TORSDOF 2
ENDMDL
MODEL 4
REMARK VINA RESULT:      -5.3      4.993      6.678
REMARK  2 active torsions:
REMARK  status: ('A' for Active; 'I' for Inactive)
REMARK    1  A    between atoms: C_14  and  O_15 
REMARK    2  A    between atoms: C_17  and  O_18 
ROOT
HETATM    1  C   LIG     1      24.536  18.063  19.346  1.00  0.00     0.018 C 
HETATM    2  C   LIG     1      23.037  18.487  19.437  1.00  0.00    -0.014 C 
HETATM    3  C   LIG     1      22.424  17.933  20.747  1.00  0.00     0.013 C 
HETATM    4  C   LIG     1      23.015  18.636  21.996  1.00  0.00     0.010 C 
HETATM    5  C   LIG     1      22.941  20.192  21.914  1.00  0.00     0.023 C 
HETATM    6  C   LIG     1      23.579  20.914  23.102  1.00  0.00    -0.047 A 
HETATM    7  C   LIG     1      24.136  22.214  22.941  1.00  0.00    -0.049 A 
HETATM    8  C   LIG     1      24.241  22.889  21.590  1.00  0.00     0.039 C 
HETATM    9  C   LIG     1      23.367  22.238  20.515  1.00  0.00     0.010 C 
HETATM   10  C   LIG     1      23.531  20.715  20.570  1.00  0.00    -0.001 C 
HETATM   11  C   LIG     1      22.806  20.004  19.412  1.00  0.00     0.001 C 
HETATM   12  C   LIG     1      23.108  20.416  17.979  1.00  0.00     0.008 C 
HETATM   13  C   LIG     1      22.653  19.211  17.138  1.00  0.00     0.033 C 
HETATM   14  C   LIG     1      22.349  18.057  18.121  1.00  0.00     0.126 C 
HETATM   15  C   LIG     1      24.673  22.887  24.051  1.00  0.00     0.044 A 
HETATM   16  C   LIG     1      24.621  22.318  25.324  1.00  0.00     0.066 A 
HETATM   17  C   LIG     1      24.029  21.066  25.498  1.00  0.00     0.037 A 
HETATM   18  C   LIG     1      23.502  20.377  24.406  1.00  0.00     0.011 A 
ENDROOT
BRANCH  14  19
HETATM   19  O   LIG     1      20.956  17.941  18.281  1.00  0.00    -0.395 OA
HETATM   20  H   LIG     1      20.751  18.203  19.216  1.00  0.00     0.210 HD
ENDBRANCH  14  19
BRANCH  16  21
HETATM   21  O   LIG     1      25.156  23.010  26.408  1.00  0.00    -0.361 OA
HETATM   22  H   LIG     1      25.372  22.542  27.281  1.00  0.00     0.217 HD
ENDBRANCH  16  21
TORSDOF 2
ENDMDL
MODEL 5
REMARK VINA RESULT:      -5.2      1.672      2.382
REMARK  2 active torsions:
REMARK  status: ('A' for Active; 'I' for Inactive)
REMARK    1  A    between atoms: C_14  and  O_15 
REMARK    2  A    between atoms: C_17  and  O_18 
ROOT
HETATM    1  C   LIG     1      22.594  23.144  21.618  1.00  0.00     0.018 C 
HETATM    2  C   LIG     1      23.461  21.856  21.457  1.00  0.00    -0.014 C 
HETATM    3  C   LIG     1      23.721  21.595  19.953  1.00  0.00     0.013 C 
HETATM    4  C   LIG     1      24.657  22.669  19.341  1.00  0.00     0.010 C 
HETATM    5  C   LIG     1      25.976  22.864  20.151  1.00  0.00     0.023 C 
HETATM    6  C   LIG     1      26.889  23.966  19.609  1.00  0.00    -0.047 A 
HETATM    7  C   LIG     1      27.759  24.675  20.483  1.00  0.00    -0.049 A 
HETATM    8  C   LIG     1      27.744  24.472  21.983  1.00  0.00     0.039 C 
HETATM    9  C   LIG     1      27.012  23.199  22.417  1.00  0.00     0.010 C 
HETATM   10  C   LIG     1      25.682  23.086  21.664  1.00  0.00    -0.001 C 
HETATM   11  C   LIG     1      24.819  21.914  22.169  1.00  0.00     0.001 C 
HETATM   12  C   LIG     1      24.483  21.821  23.649  1.00  0.00     0.008 C 
HETATM   13  C   LIG     1      23.245  20.908  23.696  1.00  0.00     0.033 C 
HETATM   14  C   LIG     1      22.761  20.720  22.240  1.00  0.00     0.126 C 
HETATM   15  C   LIG     1      28.629  25.649  19.965  1.00  0.00     0.044 A 
HETATM   16  C   LIG     1      28.686  25.896  18.593  1.00  0.00     0.066 A 
HETATM   17  C   LIG     1      27.873  25.168  17.724  1.00  0.00     0.037 A 
HETATM   18  C   LIG     1      26.994  24.205  18.221  1.00  0.00     0.011 A 
ENDROOT
BRANCH  14  19
HETATM   19  O   LIG     1      23.161  19.453  21.780  1.00  0.00    -0.395 OA
HETATM   20  H   LIG     1      22.974  18.809  22.511  1.00  0.00     0.210 HD
ENDBRANCH  14  19
BRANCH  16  21
HETATM   21  O   LIG     1      29.562  26.864  18.105  1.00  0.00    -0.361 OA
HETATM   22  H   LIG     1      30.566  26.758  18.185  1.00  0.00     0.217 HD
ENDBRANCH  16  21
TORSDOF 2
ENDMDL
MODEL 6
REMARK VINA RESULT:      -5.2      3.540      6.249
REMARK  2 active torsions:
REMARK  status: ('A' for Active; 'I' for Inactive)
REMARK    1  A    between atoms: C_14  and  O_15 
REMARK    2  A    between atoms: C_17  and  O_18 
ROOT
HETATM    1  C   LIG     1      24.310  19.962  20.504  1.00  0.00     0.018 C 
HETATM    2  C   LIG     1      23.693  21.387  20.347  1.00  0.00    -0.014 C 
HETATM    3  C   LIG     1      22.722  21.659  21.522  1.00  0.00     0.013 C 
HETATM    4  C   LIG     1      23.480  21.804  22.867  1.00  0.00     0.010 C 
HETATM    5  C   LIG     1      24.647  22.838  22.803  1.00  0.00     0.023 C 
HETATM    6  C   LIG     1      25.457  22.951  24.096  1.00  0.00    -0.047 A 
HETATM    7  C   LIG     1      26.827  23.331  24.056  1.00  0.00    -0.049 A 
HETATM    8  C   LIG     1      27.580  23.519  22.757  1.00  0.00     0.039 C 
HETATM    9  C   LIG     1      26.664  23.644  21.536  1.00  0.00     0.010 C 
HETATM   10  C   LIG     1      25.582  22.559  21.589  1.00  0.00    -0.001 C 
HETATM   11  C   LIG     1      24.723  22.523  20.311  1.00  0.00     0.001 C 
HETATM   12  C   LIG     1      25.405  22.382  18.959  1.00  0.00     0.008 C 
HETATM   13  C   LIG     1      24.294  21.864  18.030  1.00  0.00     0.033 C 
HETATM   14  C   LIG     1      23.092  21.482  18.925  1.00  0.00     0.126 C 
HETATM   15  C   LIG     1      27.546  23.482  25.254  1.00  0.00     0.044 A 
HETATM   16  C   LIG     1      26.918  23.312  26.488  1.00  0.00     0.066 A 
HETATM   17  C   LIG     1      25.561  22.991  26.536  1.00  0.00     0.037 A 
HETATM   18  C   LIG     1      24.834  22.825  25.357  1.00  0.00     0.011 A 
ENDROOT
BRANCH  14  19
HETATM   19  O   LIG     1      22.116  22.490  18.843  1.00  0.00    -0.395 OA
HETATM   20  H   LIG     1      22.080  22.929  19.733  1.00  0.00     0.210 HD
ENDBRANCH  14  19
BRANCH  16  21
HETATM   21  O   LIG     1      27.653  23.472  27.661  1.00  0.00    -0.361 OA
HETATM   22  H   LIG     1      28.188  22.710  28.059  1.00  0.00     0.217 HD
ENDBRANCH  16  21
TORSDOF 2
ENDMDL
MODEL 7
REMARK VINA RESULT:      -5.2      3.837      6.904
REMARK  2 active torsions:
REMARK  status: ('A' for Active; 'I' for Inactive)
REMARK    1  A    between atoms: C_14  and  O_15 
REMARK    2  A    between atoms: C_17  and  O_18 
ROOT
HETATM    1  C   LIG     1      22.755  21.919  18.836  1.00  0.00     0.018 C 
HETATM    2  C   LIG     1      23.889  20.853  18.951  1.00  0.00    -0.014 C 
HETATM    3  C   LIG     1      25.201  21.543  19.397  1.00  0.00     0.013 C 
HETATM    4  C   LIG     1      25.112  22.049  20.860  1.00  0.00     0.010 C 
HETATM    5  C   LIG     1      24.646  20.947  21.861  1.00  0.00     0.023 C 
HETATM    6  C   LIG     1      24.482  21.436  23.302  1.00  0.00    -0.047 A 
HETATM    7  C   LIG     1      23.544  20.813  24.171  1.00  0.00    -0.049 A 
HETATM    8  C   LIG     1      22.588  19.739  23.698  1.00  0.00     0.039 C 
HETATM    9  C   LIG     1      22.977  19.130  22.348  1.00  0.00     0.010 C 
HETATM   10  C   LIG     1      23.345  20.247  21.365  1.00  0.00    -0.001 C 
HETATM   11  C   LIG     1      23.591  19.717  19.940  1.00  0.00     0.001 C 
HETATM   12  C   LIG     1      22.516  18.885  19.259  1.00  0.00     0.008 C 
HETATM   13  C   LIG     1      22.852  18.991  17.761  1.00  0.00     0.033 C 
HETATM   14  C   LIG     1      23.940  20.079  17.613  1.00  0.00     0.126 C 
HETATM   15  C   LIG     1      23.440  21.238  25.506  1.00  0.00     0.044 A 
HETATM   16  C   LIG     1      24.281  22.232  26.006  1.00  0.00     0.066 A 
HETATM   17  C   LIG     1      25.240  22.810  25.173  1.00  0.00     0.037 A 
HETATM   18  C   LIG     1      25.350  22.411  23.841  1.00  0.00     0.011 A 
ENDROOT
BRANCH  14  19
HETATM   19  O   LIG     1      25.189  19.461  17.422  1.00  0.00    -0.395 OA
HETATM   20  H   LIG     1      25.009  18.505  17.227  1.00  0.00     0.210 HD
ENDBRANCH  14  19
BRANCH  16  21
HETATM   21  O   LIG     1      24.160  22.630  27.336  1.00  0.00    -0.361 OA
HETATM   22  H   LIG     1      24.184  21.958  28.094  1.00  0.00     0.217 HD
ENDBRANCH  16  21
TORSDOF 2
ENDMDL
MODEL 8
REMARK VINA RESULT:      -5.1     10.583     12.840
REMARK  2 active torsions:
REMARK  status: ('A' for Active; 'I' for Inactive)
REMARK    1  A    between atoms: C_14  and  O_15 
REMARK    2  A    between atoms: C_17  and  O_18 
ROOT
HETATM    1  C   LIG     1      29.386  24.080  28.324  1.00  0.00     0.018 C 
HETATM    2  C   LIG     1      28.322  24.984  27.625  1.00  0.00    -0.014 C 
HETATM    3  C   LIG     1      26.947  24.783  28.308  1.00  0.00     0.013 C 
HETATM    4  C   LIG     1      26.936  25.360  29.748  1.00  0.00     0.010 C 
HETATM    5  C   LIG     1      27.428  26.838  29.819  1.00  0.00     0.023 C 
HETATM    6  C   LIG     1      27.493  27.411  31.236  1.00  0.00    -0.047 A 
HETATM    7  C   LIG     1      28.430  28.433  31.558  1.00  0.00    -0.049 A 
HETATM    8  C   LIG     1      29.477  28.912  30.575  1.00  0.00     0.039 C 
HETATM    9  C   LIG     1      29.191  28.494  29.130  1.00  0.00     0.010 C 
HETATM   10  C   LIG     1      28.794  27.014  29.090  1.00  0.00    -0.001 C 
HETATM   11  C   LIG     1      28.650  26.483  27.651  1.00  0.00     0.001 C 
HETATM   12  C   LIG     1      29.808  26.642  26.679  1.00  0.00     0.008 C 
HETATM   13  C   LIG     1      29.535  25.586  25.594  1.00  0.00     0.033 C 
HETATM   14  C   LIG     1      28.384  24.691  26.108  1.00  0.00     0.126 C 
HETATM   15  C   LIG     1      28.444  28.986  32.849  1.00  0.00     0.044 A 
HETATM   16  C   LIG     1      27.516  28.582  33.808  1.00  0.00     0.066 A 
HETATM   17  C   LIG     1      26.560  27.619  33.484  1.00  0.00     0.037 A 
HETATM   18  C   LIG     1      26.538  27.049  32.210  1.00  0.00     0.011 A 
ENDROOT
BRANCH  14  19
HETATM   19  O   LIG     1      27.190  25.057  25.462  1.00  0.00    -0.395 OA
HETATM   20  H   LIG     1      27.030  24.385  24.750  1.00  0.00     0.210 HD
ENDBRANCH  14  19
BRANCH  16  21
HETATM   21  O   LIG     1      27.549  29.152  35.080  1.00  0.00    -0.361 OA
HETATM   22  H   LIG     1      27.182  28.664  35.888  1.00  0.00     0.217 HD
ENDBRANCH  16  21
TORSDOF 2
ENDMDL
MODEL 9
REMARK VINA RESULT:      -5.1      3.126      7.621
REMARK  2 active torsions:
REMARK  status: ('A' for Active; 'I' for Inactive)
REMARK    1  A    between atoms: C_14  and  O_15 
REMARK    2  A    between atoms: C_17  and  O_18 
ROOT
HETATM    1  C   LIG     1      25.777  20.277  19.734  1.00  0.00     0.018 C 
HETATM    2  C   LIG     1      24.514  21.186  19.606  1.00  0.00    -0.014 C 
HETATM    3  C   LIG     1      23.239  20.315  19.723  1.00  0.00     0.013 C 
HETATM    4  C   LIG     1      23.062  19.752  21.157  1.00  0.00     0.010 C 
HETATM    5  C   LIG     1      23.138  20.853  22.260  1.00  0.00     0.023 C 
HETATM    6  C   LIG     1      23.035  20.318  23.689  1.00  0.00    -0.047 A 
HETATM    7  C   LIG     1      23.660  21.010  24.764  1.00  0.00    -0.049 A 
HETATM    8  C   LIG     1      24.546  22.218  24.545  1.00  0.00     0.039 C 
HETATM    9  C   LIG     1      24.394  22.839  23.154  1.00  0.00     0.010 C 
HETATM   10  C   LIG     1      24.411  21.735  22.091  1.00  0.00    -0.001 C 
HETATM   11  C   LIG     1      24.425  22.299  20.658  1.00  0.00     0.001 C 
HETATM   12  C   LIG     1      25.505  23.293  20.259  1.00  0.00     0.008 C 
HETATM   13  C   LIG     1      25.534  23.219  18.723  1.00  0.00     0.033 C 
HETATM   14  C   LIG     1      24.663  22.012  18.307  1.00  0.00     0.126 C 
HETATM   15  C   LIG     1      23.515  20.537  26.079  1.00  0.00     0.044 A 
HETATM   16  C   LIG     1      22.723  19.421  26.352  1.00  0.00     0.066 A 
HETATM   17  C   LIG     1      22.064  18.769  25.309  1.00  0.00     0.037 A 
HETATM   18  C   LIG     1      22.206  19.217  23.995  1.00  0.00     0.011 A 
ENDROOT
BRANCH  14  19
HETATM   19  O   LIG     1      23.419  22.477  17.845  1.00  0.00    -0.395 OA
HETATM   20  H   LIG     1      22.727  21.883  18.236  1.00  0.00     0.210 HD
ENDBRANCH  14  19
BRANCH  16  21
HETATM   21  O   LIG     1      22.593  18.976  27.666  1.00  0.00    -0.361 OA
HETATM   22  H   LIG     1      21.973  19.437  28.322  1.00  0.00     0.217 HD
ENDBRANCH  16  21
TORSDOF 2
ENDMDL
MODEL 10
REMARK VINA RESULT:      -5.1      4.852      6.753
REMARK  2 active torsions:
REMARK  status: ('A' for Active; 'I' for Inactive)
REMARK    1  A    between atoms: C_14  and  O_15 
REMARK    2  A    between atoms: C_17  and  O_18 
ROOT
HETATM    1  C   LIG     1      26.417  21.131  24.329  1.00  0.00     0.018 C 
HETATM    2  C   LIG     1      24.996  21.651  24.711  1.00  0.00    -0.014 C 
HETATM    3  C   LIG     1      24.631  22.858  23.813  1.00  0.00     0.013 C 
HETATM    4  C   LIG     1      24.410  22.428  22.340  1.00  0.00     0.010 C 
HETATM    5  C   LIG     1      23.402  21.246  22.192  1.00  0.00     0.023 C 
HETATM    6  C   LIG     1      23.217  20.755  20.755  1.00  0.00    -0.047 A 
HETATM    7  C   LIG     1      22.863  19.401  20.497  1.00  0.00    -0.049 A 
HETATM    8  C   LIG     1      22.774  18.362  21.594  1.00  0.00     0.039 C 
HETATM    9  C   LIG     1      22.714  18.966  23.000  1.00  0.00     0.010 C 
HETATM   10  C   LIG     1      23.776  20.064  23.136  1.00  0.00    -0.001 C 
HETATM   11  C   LIG     1      23.881  20.604  24.574  1.00  0.00     0.001 C 
HETATM   12  C   LIG     1      24.122  19.632  25.719  1.00  0.00     0.008 C 
HETATM   13  C   LIG     1      24.682  20.514  26.848  1.00  0.00     0.033 C 
HETATM   14  C   LIG     1      24.985  21.902  26.237  1.00  0.00     0.126 C 
HETATM   15  C   LIG     1      22.646  18.975  19.176  1.00  0.00     0.044 A 
HETATM   16  C   LIG     1      22.724  19.876  18.114  1.00  0.00     0.066 A 
HETATM   17  C   LIG     1      23.019  21.217  18.365  1.00  0.00     0.037 A 
HETATM   18  C   LIG     1      23.250  21.656  19.669  1.00  0.00     0.011 A 
ENDROOT
BRANCH  14  19
HETATM   19  O   LIG     1      23.968  22.801  26.605  1.00  0.00    -0.395 OA
HETATM   20  H   LIG     1      23.791  22.656  27.571  1.00  0.00     0.210 HD
ENDBRANCH  14  19
BRANCH  16  21
HETATM   21  O   LIG     1      22.499  19.428  16.814  1.00  0.00    -0.361 OA
HETATM   22  H   LIG     1      22.055  20.018  16.120  1.00  0.00     0.217 HD
ENDBRANCH  16  21
TORSDOF 2
ENDMDL
MODEL 11
REMARK VINA RESULT:      -4.9      3.855      6.789
REMARK  2 active torsions:
REMARK  status: ('A' for Active; 'I' for Inactive)
REMARK    1  A    between atoms: C_14  and  O_15 
REMARK    2  A    between atoms: C_17  and  O_18 
ROOT
HETATM    1  C   LIG     1      26.222  25.302  19.587  1.00  0.00     0.018 C 
HETATM    2  C   LIG     1      27.116  24.027  19.700  1.00  0.00    -0.014 C 
HETATM    3  C   LIG     1      28.410  24.372  20.475  1.00  0.00     0.013 C 
HETATM    4  C   LIG     1      28.118  24.670  21.969  1.00  0.00     0.010 C 
HETATM    5  C   LIG     1      27.285  23.549  22.665  1.00  0.00     0.023 C 
HETATM    6  C   LIG     1      26.923  23.848  24.121  1.00  0.00    -0.047 A 
HETATM    7  C   LIG     1      25.740  23.305  24.695  1.00  0.00    -0.049 A 
HETATM    8  C   LIG     1      24.731  22.521  23.884  1.00  0.00     0.039 C 
HETATM    9  C   LIG     1      25.273  22.048  22.532  1.00  0.00     0.010 C 
HETATM   10  C   LIG     1      26.010  23.199  21.840  1.00  0.00    -0.001 C 
HETATM   11  C   LIG     1      26.442  22.842  20.405  1.00  0.00     0.001 C 
HETATM   12  C   LIG     1      25.400  22.346  19.416  1.00  0.00     0.008 C 
HETATM   13  C   LIG     1      26.038  22.599  18.039  1.00  0.00     0.033 C 
HETATM   14  C   LIG     1      27.301  23.459  18.273  1.00  0.00     0.126 C 
HETATM   15  C   LIG     1      25.446  23.545  26.047  1.00  0.00     0.044 A 
HETATM   16  C   LIG     1      26.325  24.270  26.851  1.00  0.00     0.066 A 
HETATM   17  C   LIG     1      27.513  24.761  26.308  1.00  0.00     0.037 A 
HETATM   18  C   LIG     1      27.817  24.544  24.964  1.00  0.00     0.011 A 
ENDROOT
BRANCH  14  19
HETATM   19  O   LIG     1      28.441  22.641  18.187  1.00  0.00    -0.395 OA
HETATM   20  H   LIG     1      29.231  23.241  18.233  1.00  0.00     0.210 HD
ENDBRANCH  14  19
BRANCH  16  21
HETATM   21  O   LIG     1      26.011  24.488  28.191  1.00  0.00    -0.361 OA
HETATM   22  H   LIG     1      26.727  24.709  28.873  1.00  0.00     0.217 HD
ENDBRANCH  16  21
TORSDOF 2
ENDMDL
MODEL 12
REMARK VINA RESULT:      -4.9      4.363      6.994
REMARK  2 active torsions:
REMARK  status: ('A' for Active; 'I' for Inactive)
REMARK    1  A    between atoms: C_14  and  O_15 
REMARK    2  A    between atoms: C_17  and  O_18 
ROOT
HETATM    1  C   LIG     1      27.426  21.521  25.892  1.00  0.00     0.018 C 
HETATM    2  C   LIG     1      26.323  22.581  26.201  1.00  0.00    -0.014 C 
HETATM    3  C   LIG     1      26.481  23.784  25.239  1.00  0.00     0.013 C 
HETATM    4  C   LIG     1      26.129  23.397  23.779  1.00  0.00     0.010 C 
HETATM    5  C   LIG     1      24.737  22.706  23.648  1.00  0.00     0.023 C 
HETATM    6  C   LIG     1      24.393  22.251  22.228  1.00  0.00    -0.047 A 
HETATM    7  C   LIG     1      23.534  21.136  22.018  1.00  0.00    -0.049 A 
HETATM    8  C   LIG     1      23.023  20.279  23.156  1.00  0.00     0.039 C 
HETATM    9  C   LIG     1      23.188  20.933  24.530  1.00  0.00     0.010 C 
HETATM   10  C   LIG     1      24.596  21.525  24.655  1.00  0.00    -0.001 C 
HETATM   11  C   LIG     1      24.887  22.057  26.071  1.00  0.00     0.001 C 
HETATM   12  C   LIG     1      24.704  21.132  27.265  1.00  0.00     0.008 C 
HETATM   13  C   LIG     1      25.552  21.780  28.374  1.00  0.00     0.033 C 
HETATM   14  C   LIG     1      26.390  22.899  27.713  1.00  0.00     0.126 C 
HETATM   15  C   LIG     1      23.185  20.760  20.710  1.00  0.00     0.044 A 
HETATM   16  C   LIG     1      23.630  21.498  19.613  1.00  0.00     0.066 A 
HETATM   17  C   LIG     1      24.430  22.624  19.814  1.00  0.00     0.037 A 
HETATM   18  C   LIG     1      24.797  23.005  21.105  1.00  0.00     0.011 A 
ENDROOT
BRANCH  14  19
HETATM   19  O   LIG     1      25.809  24.145  28.005  1.00  0.00    -0.395 OA
HETATM   20  H   LIG     1      25.321  24.433  27.190  1.00  0.00     0.210 HD
ENDBRANCH  14  19
BRANCH  16  21
HETATM   21  O   LIG     1      23.264  21.106  18.326  1.00  0.00    -0.361 OA
HETATM   22  H   LIG     1      22.308  21.182  18.002  1.00  0.00     0.217 HD
ENDBRANCH  16  21
TORSDOF 2
ENDMDL
MODEL 13
REMARK VINA RESULT:      -4.8      3.673      4.942
REMARK  2 active torsions:
REMARK  status: ('A' for Active; 'I' for Inactive)
REMARK    1  A    between atoms: C_14  and  O_15 
REMARK    2  A    between atoms: C_17  and  O_18 
ROOT
HETATM    1  C   LIG     1      22.988  22.985  21.630  1.00  0.00     0.018 C 
HETATM    2  C   LIG     1      23.998  21.794  21.664  1.00  0.00    -0.014 C 
HETATM    3  C   LIG     1      25.118  22.039  20.624  1.00  0.00     0.013 C 
HETATM    4  C   LIG     1      26.032  23.222  21.037  1.00  0.00     0.010 C 
HETATM    5  C   LIG     1      26.583  23.091  22.490  1.00  0.00     0.023 C 
HETATM    6  C   LIG     1      27.432  24.278  22.949  1.00  0.00    -0.047 A 
HETATM    7  C   LIG     1      27.499  24.625  24.328  1.00  0.00    -0.049 A 
HETATM    8  C   LIG     1      26.656  23.936  25.380  1.00  0.00     0.039 C 
HETATM    9  C   LIG     1      26.043  22.618  24.900  1.00  0.00     0.010 C 
HETATM   10  C   LIG     1      25.436  22.807  23.506  1.00  0.00    -0.001 C 
HETATM   11  C   LIG     1      24.660  21.565  23.029  1.00  0.00     0.001 C 
HETATM   12  C   LIG     1      23.553  20.997  23.904  1.00  0.00     0.008 C 
HETATM   13  C   LIG     1      22.697  20.165  22.934  1.00  0.00     0.033 C 
HETATM   14  C   LIG     1      23.185  20.488  21.503  1.00  0.00     0.126 C 
HETATM   15  C   LIG     1      28.322  25.685  24.742  1.00  0.00     0.044 A 
HETATM   16  C   LIG     1      29.117  26.372  23.824  1.00  0.00     0.066 A 
HETATM   17  C   LIG     1      29.096  26.002  22.478  1.00  0.00     0.037 A 
HETATM   18  C   LIG     1      28.275  24.960  22.046  1.00  0.00     0.011 A 
ENDROOT
BRANCH  14  19
HETATM   19  O   LIG     1      23.990  19.433  21.039  1.00  0.00    -0.395 OA
HETATM   20  H   LIG     1      24.368  19.721  20.167  1.00  0.00     0.210 HD
ENDBRANCH  14  19
BRANCH  16  21
HETATM   21  O   LIG     1      29.928  27.416  24.263  1.00  0.00    -0.361 OA
HETATM   22  H   LIG     1      29.995  28.287  23.749  1.00  0.00     0.217 HD
ENDBRANCH  16  21
TORSDOF 2
ENDMDL
MODEL 14
REMARK VINA RESULT:      -4.8     12.966     15.105
REMARK  2 active torsions:
REMARK  status: ('A' for Active; 'I' for Inactive)
REMARK    1  A    between atoms: C_14  and  O_15 
REMARK    2  A    between atoms: C_17  and  O_18 
ROOT
HETATM    1  C   LIG     1      27.320  26.646  29.058  1.00  0.00     0.018 C 
HETATM    2  C   LIG     1      28.663  26.288  29.770  1.00  0.00    -0.014 C 
HETATM    3  C   LIG     1      29.530  27.563  29.904  1.00  0.00     0.013 C 
HETATM    4  C   LIG     1      28.914  28.569  30.910  1.00  0.00     0.010 C 
HETATM    5  C   LIG     1      28.578  27.926  32.291  1.00  0.00     0.023 C 
HETATM    6  C   LIG     1      27.905  28.879  33.281  1.00  0.00    -0.047 A 
HETATM    7  C   LIG     1      27.021  28.377  34.276  1.00  0.00    -0.049 A 
HETATM    8  C   LIG     1      26.608  26.922  34.334  1.00  0.00     0.039 C 
HETATM    9  C   LIG     1      27.501  26.002  33.499  1.00  0.00     0.010 C 
HETATM   10  C   LIG     1      27.738  26.626  32.119  1.00  0.00    -0.001 C 
HETATM   11  C   LIG     1      28.496  25.679  31.169  1.00  0.00     0.001 C 
HETATM   12  C   LIG     1      27.950  24.282  30.919  1.00  0.00     0.008 C 
HETATM   13  C   LIG     1      28.607  23.854  29.595  1.00  0.00     0.033 C 
HETATM   14  C   LIG     1      29.297  25.104  29.002  1.00  0.00     0.126 C 
HETATM   15  C   LIG     1      26.450  29.256  35.211  1.00  0.00     0.044 A 
HETATM   16  C   LIG     1      26.777  30.612  35.207  1.00  0.00     0.066 A 
HETATM   17  C   LIG     1      27.684  31.103  34.267  1.00  0.00     0.037 A 
HETATM   18  C   LIG     1      28.252  30.247  33.323  1.00  0.00     0.011 A 
ENDROOT
BRANCH  14  19
HETATM   19  O   LIG     1      30.681  25.022  29.234  1.00  0.00    -0.395 OA
HETATM   20  H   LIG     1      30.860  25.501  30.084  1.00  0.00     0.210 HD
ENDBRANCH  14  19
BRANCH  16  21
HETATM   21  O   LIG     1      26.200  31.461  36.150  1.00  0.00    -0.361 OA
HETATM   22  H   LIG     1      25.751  31.100  36.983  1.00  0.00     0.217 HD
ENDBRANCH  16  21
TORSDOF 2
ENDMDL
MODEL 15
REMARK VINA RESULT:      -4.8      3.818      6.501
REMARK  2 active torsions:
REMARK  status: ('A' for Active; 'I' for Inactive)
REMARK    1  A    between atoms: C_14  and  O_15 
REMARK    2  A    between atoms: C_17  and  O_18 
ROOT
HETATM    1  C   LIG     1      22.917  22.097  19.765  1.00  0.00     0.018 C 
HETATM    2  C   LIG     1      24.071  21.053  19.886  1.00  0.00    -0.014 C 
HETATM    3  C   LIG     1      25.430  21.792  19.943  1.00  0.00     0.013 C 
HETATM    4  C   LIG     1      25.595  22.581  21.268  1.00  0.00     0.010 C 
HETATM    5  C   LIG     1      25.335  21.710  22.535  1.00  0.00     0.023 C 
HETATM    6  C   LIG     1      25.424  22.479  23.855  1.00  0.00    -0.047 A 
HETATM    7  C   LIG     1      24.668  22.060  24.985  1.00  0.00    -0.049 A 
HETATM    8  C   LIG     1      23.661  20.932  24.914  1.00  0.00     0.039 C 
HETATM    9  C   LIG     1      23.812  20.059  23.666  1.00  0.00     0.010 C 
HETATM   10  C   LIG     1      23.979  20.951  22.430  1.00  0.00    -0.001 C 
HETATM   11  C   LIG     1      23.975  20.143  21.118  1.00  0.00     0.001 C 
HETATM   12  C   LIG     1      22.809  19.212  20.821  1.00  0.00     0.008 C 
HETATM   13  C   LIG     1      22.869  19.012  19.296  1.00  0.00     0.033 C 
HETATM   14  C   LIG     1      23.895  20.027  18.742  1.00  0.00     0.126 C 
HETATM   15  C   LIG     1      24.797  22.744  26.205  1.00  0.00     0.044 A 
HETATM   16  C   LIG     1      25.698  23.801  26.338  1.00  0.00     0.066 A 
HETATM   17  C   LIG     1      26.481  24.184  25.249  1.00  0.00     0.037 A 
HETATM   18  C   LIG     1      26.357  23.525  24.025  1.00  0.00     0.011 A 
ENDROOT
BRANCH  14  19
HETATM   19  O   LIG     1      25.099  19.360  18.458  1.00  0.00    -0.395 OA
HETATM   20  H   LIG     1      25.252  19.445  17.481  1.00  0.00     0.210 HD
ENDBRANCH  14  19
BRANCH  16  21
HETATM   21  O   LIG     1      25.810  24.459  27.562  1.00  0.00    -0.361 OA
HETATM   22  H   LIG     1      25.981  23.951  28.422  1.00  0.00     0.217 HD
ENDBRANCH  16  21
TORSDOF 2
ENDMDL
MODEL 16
REMARK VINA RESULT:      -4.8      3.636      6.016
REMARK  2 active torsions:
REMARK  status: ('A' for Active; 'I' for Inactive)
REMARK    1  A    between atoms: C_14  and  O_15 
REMARK    2  A    between atoms: C_17  and  O_18 
ROOT
HETATM    1  C   LIG     1      28.273  22.019  23.542  1.00  0.00     0.018 C 
HETATM    2  C   LIG     1      27.486  23.367  23.581  1.00  0.00    -0.014 C 
HETATM    3  C   LIG     1      27.628  24.086  22.217  1.00  0.00     0.013 C 
HETATM    4  C   LIG     1      26.877  23.329  21.091  1.00  0.00     0.010 C 
HETATM    5  C   LIG     1      25.391  23.017  21.451  1.00  0.00     0.023 C 
HETATM    6  C   LIG     1      24.644  22.210  20.387  1.00  0.00    -0.047 A 
HETATM    7  C   LIG     1      23.571  21.351  20.756  1.00  0.00    -0.049 A 
HETATM    8  C   LIG     1      23.197  21.095  22.200  1.00  0.00     0.039 C 
HETATM    9  C   LIG     1      23.799  22.112  23.173  1.00  0.00     0.010 C 
HETATM   10  C   LIG     1      25.280  22.329  22.844  1.00  0.00    -0.001 C 
HETATM   11  C   LIG     1      25.989  23.217  23.883  1.00  0.00     0.001 C 
HETATM   12  C   LIG     1      25.929  22.835  25.354  1.00  0.00     0.008 C 
HETATM   13  C   LIG     1      27.118  23.581  25.984  1.00  0.00     0.033 C 
HETATM   14  C   LIG     1      27.966  24.152  24.824  1.00  0.00     0.126 C 
HETATM   15  C   LIG     1      22.860  20.655  19.764  1.00  0.00     0.044 A 
HETATM   16  C   LIG     1      23.160  20.834  18.413  1.00  0.00     0.066 A 
HETATM   17  C   LIG     1      24.176  21.715  18.041  1.00  0.00     0.037 A 
HETATM   18  C   LIG     1      24.902  22.405  19.013  1.00  0.00     0.011 A 
ENDROOT
BRANCH  14  19
HETATM   19  O   LIG     1      27.708  25.528  24.696  1.00  0.00    -0.395 OA
HETATM   20  H   LIG     1      27.834  25.929  25.595  1.00  0.00     0.210 HD
ENDBRANCH  14  19
BRANCH  16  21
HETATM   21  O   LIG     1      22.435  20.135  17.450  1.00  0.00    -0.361 OA
HETATM   22  H   LIG     1      22.889  19.720  16.645  1.00  0.00     0.217 HD
ENDBRANCH  16  21
TORSDOF 2
ENDMDL
MODEL 17
REMARK VINA RESULT:      -4.7      4.699      7.108
REMARK  2 active torsions:
REMARK  status: ('A' for Active; 'I' for Inactive)
REMARK    1  A    between atoms: C_14  and  O_15 
REMARK    2  A    between atoms: C_17  and  O_18 
ROOT
HETATM    1  C   LIG     1      23.729  23.141  21.542  1.00  0.00     0.018 C 
HETATM    2  C   LIG     1      24.640  21.893  21.767  1.00  0.00    -0.014 C 
HETATM    3  C   LIG     1      26.126  22.316  21.667  1.00  0.00     0.013 C 
HETATM    4  C   LIG     1      26.545  23.216  22.858  1.00  0.00     0.010 C 
HETATM    5  C   LIG     1      26.192  22.597  24.246  1.00  0.00     0.023 C 
HETATM    6  C   LIG     1      26.531  23.494  25.438  1.00  0.00    -0.047 A 
HETATM    7  C   LIG     1      25.781  23.404  26.644  1.00  0.00    -0.049 A 
HETATM    8  C   LIG     1      24.555  22.526  26.773  1.00  0.00     0.039 C 
HETATM    9  C   LIG     1      24.432  21.485  25.657  1.00  0.00     0.010 C 
HETATM   10  C   LIG     1      24.701  22.148  24.301  1.00  0.00    -0.001 C 
HETATM   11  C   LIG     1      24.436  21.196  23.119  1.00  0.00     0.001 C 
HETATM   12  C   LIG     1      23.082  20.515  23.001  1.00  0.00     0.008 C 
HETATM   13  C   LIG     1      22.994  20.108  21.520  1.00  0.00     0.033 C 
HETATM   14  C   LIG     1      24.173  20.791  20.788  1.00  0.00     0.126 C 
HETATM   15  C   LIG     1      26.136  24.196  27.749  1.00  0.00     0.044 A 
HETATM   16  C   LIG     1      27.248  25.037  27.696  1.00  0.00     0.066 A 
HETATM   17  C   LIG     1      28.019  25.091  26.534  1.00  0.00     0.037 A 
HETATM   18  C   LIG     1      27.675  24.321  25.423  1.00  0.00     0.011 A 
ENDROOT
BRANCH  14  19
HETATM   19  O   LIG     1      25.185  19.843  20.557  1.00  0.00    -0.395 OA
HETATM   20  H   LIG     1      25.174  19.216  21.327  1.00  0.00     0.210 HD
ENDBRANCH  14  19
BRANCH  16  21
HETATM   21  O   LIG     1      27.580  25.808  28.808  1.00  0.00    -0.361 OA
HETATM   22  H   LIG     1      27.544  26.820  28.780  1.00  0.00     0.217 HD
ENDBRANCH  16  21
TORSDOF 2
ENDMDL
MODEL 18
REMARK VINA RESULT:      -4.6      1.942      3.373
REMARK  2 active torsions:
REMARK  status: ('A' for Active; 'I' for Inactive)
REMARK    1  A    between atoms: C_14  and  O_15 
REMARK    2  A    between atoms: C_17  and  O_18 
ROOT
HETATM    1  C   LIG     1      25.934  19.713  22.445  1.00  0.00     0.018 C 
HETATM    2  C   LIG     1      24.762  20.695  22.758  1.00  0.00    -0.014 C 
HETATM    3  C   LIG     1      25.313  21.933  23.506  1.00  0.00     0.013 C 
HETATM    4  C   LIG     1      26.202  22.807  22.585  1.00  0.00     0.010 C 
HETATM    5  C   LIG     1      25.507  23.182  21.240  1.00  0.00     0.023 C 
HETATM    6  C   LIG     1      26.387  23.988  20.281  1.00  0.00    -0.047 A 
HETATM    7  C   LIG     1      26.190  23.896  18.875  1.00  0.00    -0.049 A 
HETATM    8  C   LIG     1      25.207  22.927  18.255  1.00  0.00     0.039 C 
HETATM    9  C   LIG     1      24.200  22.357  19.257  1.00  0.00     0.010 C 
HETATM   10  C   LIG     1      24.931  21.920  20.531  1.00  0.00    -0.001 C 
HETATM   11  C   LIG     1      24.002  21.189  21.519  1.00  0.00     0.001 C 
HETATM   12  C   LIG     1      23.212  19.980  21.043  1.00  0.00     0.008 C 
HETATM   13  C   LIG     1      22.853  19.233  22.339  1.00  0.00     0.033 C 
HETATM   14  C   LIG     1      23.659  19.889  23.484  1.00  0.00     0.126 C 
HETATM   15  C   LIG     1      26.970  24.680  18.008  1.00  0.00     0.044 A 
HETATM   16  C   LIG     1      27.904  25.586  18.511  1.00  0.00     0.066 A 
HETATM   17  C   LIG     1      28.065  25.719  19.891  1.00  0.00     0.037 A 
HETATM   18  C   LIG     1      27.308  24.940  20.767  1.00  0.00     0.011 A 
ENDROOT
BRANCH  14  19
HETATM   19  O   LIG     1      22.809  20.729  24.225  1.00  0.00    -0.395 OA
HETATM   20  H   LIG     1      21.897  20.618  23.851  1.00  0.00     0.210 HD
ENDBRANCH  14  19
BRANCH  16  21
HETATM   21  O   LIG     1      28.660  26.354  17.629  1.00  0.00    -0.361 OA
HETATM   22  H   LIG     1      28.231  26.850  16.857  1.00  0.00     0.217 HD
ENDBRANCH  16  21
TORSDOF 2
ENDMDL
MODEL 19
REMARK VINA RESULT:      -4.6      5.499      8.266
REMARK  2 active torsions:
REMARK  status: ('A' for Active; 'I' for Inactive)
REMARK    1  A    between atoms: C_14  and  O_15 
REMARK    2  A    between atoms: C_17  and  O_18 
ROOT
HETATM    1  C   LIG     1      28.546  22.698  26.708  1.00  0.00     0.018 C 
HETATM    2  C   LIG     1      27.477  23.807  26.957  1.00  0.00    -0.014 C 
HETATM    3  C   LIG     1      27.352  24.695  25.694  1.00  0.00     0.013 C 
HETATM    4  C   LIG     1      26.714  23.920  24.512  1.00  0.00     0.010 C 
HETATM    5  C   LIG     1      25.369  23.226  24.891  1.00  0.00     0.023 C 
HETATM    6  C   LIG     1      24.751  22.397  23.763  1.00  0.00    -0.047 A 
HETATM    7  C   LIG     1      23.933  21.272  24.062  1.00  0.00    -0.049 A 
HETATM    8  C   LIG     1      23.732  20.767  25.475  1.00  0.00     0.039 C 
HETATM    9  C   LIG     1      24.154  21.776  26.547  1.00  0.00     0.010 C 
HETATM   10  C   LIG     1      25.519  22.372  26.185  1.00  0.00    -0.001 C 
HETATM   11  C   LIG     1      26.079  23.275  27.301  1.00  0.00     0.001 C 
HETATM   12  C   LIG     1      26.215  22.719  28.710  1.00  0.00     0.008 C 
HETATM   13  C   LIG     1      27.244  23.645  29.381  1.00  0.00     0.033 C 
HETATM   14  C   LIG     1      27.853  24.532  28.270  1.00  0.00     0.126 C 
HETATM   15  C   LIG     1      23.330  20.550  23.019  1.00  0.00     0.044 A 
HETATM   16  C   LIG     1      23.483  20.951  21.692  1.00  0.00     0.066 A 
HETATM   17  C   LIG     1      24.241  22.085  21.395  1.00  0.00     0.037 A 
HETATM   18  C   LIG     1      24.858  22.808  22.417  1.00  0.00     0.011 A 
ENDROOT
BRANCH  14  19
HETATM   19  O   LIG     1      27.279  25.814  28.336  1.00  0.00    -0.395 OA
HETATM   20  H   LIG     1      27.421  26.238  27.450  1.00  0.00     0.210 HD
ENDBRANCH  14  19
BRANCH  16  21
HETATM   21  O   LIG     1      22.869  20.220  20.677  1.00  0.00    -0.361 OA
HETATM   22  H   LIG     1      22.600  19.252  20.811  1.00  0.00     0.217 HD
ENDBRANCH  16  21
TORSDOF 2
ENDMDL
MODEL 20
REMARK VINA RESULT:      -4.6      2.807      4.002
REMARK  2 active torsions:
REMARK  status: ('A' for Active; 'I' for Inactive)
REMARK    1  A    between atoms: C_14  and  O_15 
REMARK    2  A    between atoms: C_17  and  O_18 
ROOT
HETATM    1  C   LIG     1      26.900  21.104  24.022  1.00  0.00     0.018 C 
HETATM    2  C   LIG     1      26.036  22.385  24.250  1.00  0.00    -0.014 C 
HETATM    3  C   LIG     1      26.958  23.629  24.275  1.00  0.00     0.013 C 
HETATM    4  C   LIG     1      27.565  23.918  22.878  1.00  0.00     0.010 C 
HETATM    5  C   LIG     1      26.492  23.992  21.748  1.00  0.00     0.023 C 
HETATM    6  C   LIG     1      27.069  24.208  20.348  1.00  0.00    -0.047 A 
HETATM    7  C   LIG     1      26.383  23.715  19.202  1.00  0.00    -0.049 A 
HETATM    8  C   LIG     1      25.137  22.862  19.308  1.00  0.00     0.039 C 
HETATM    9  C   LIG     1      24.485  22.906  20.692  1.00  0.00     0.010 C 
HETATM   10  C   LIG     1      25.559  22.744  21.774  1.00  0.00    -0.001 C 
HETATM   11  C   LIG     1      24.956  22.617  23.186  1.00  0.00     0.001 C 
HETATM   12  C   LIG     1      23.911  21.545  23.455  1.00  0.00     0.008 C 
HETATM   13  C   LIG     1      23.943  21.367  24.983  1.00  0.00     0.033 C 
HETATM   14  C   LIG     1      25.171  22.146  25.509  1.00  0.00     0.126 C 
HETATM   15  C   LIG     1      26.897  23.965  17.919  1.00  0.00     0.044 A 
HETATM   16  C   LIG     1      28.048  24.734  17.749  1.00  0.00     0.066 A 
HETATM   17  C   LIG     1      28.697  25.264  18.865  1.00  0.00     0.037 A 
HETATM   18  C   LIG     1      28.209  25.017  20.148  1.00  0.00     0.011 A 
ENDROOT
BRANCH  14  19
HETATM   19  O   LIG     1      24.741  23.358  26.077  1.00  0.00    -0.395 OA
HETATM   20  H   LIG     1      25.403  23.599  26.776  1.00  0.00     0.210 HD
ENDBRANCH  14  19
BRANCH  16  21
HETATM   21  O   LIG     1      28.533  24.971  16.464  1.00  0.00    -0.361 OA
HETATM   22  H   LIG     1      28.472  25.887  16.036  1.00  0.00     0.217 HD
ENDBRANCH  16  21
TORSDOF 2
ENDMDL
