MODEL 1
REMARK VINA RESULT:      -6.7      0.000      0.000
REMARK  0 active torsions:
REMARK  status: ('A' for Active; 'I' for Inactive)
ROOT
HETATM    1  C   LIG     1      26.614  27.473  33.916  1.00  0.00     0.050 C 
HETATM    2  C   LIG     1      27.424  28.447  33.074  1.00  0.00    -0.039 C 
HETATM    3  C   LIG     1      28.078  29.562  33.673  1.00  0.00    -0.007 C 
HETATM    4  C   LIG     1      27.624  30.186  34.880  1.00  0.00    -0.014 C 
HETATM    5  C   LIG     1      26.281  30.115  35.321  1.00  0.00     0.013 C 
HETATM    6  C   LIG     1      25.889  30.702  36.526  1.00  0.00     0.001 C 
HETATM    7  C   LIG     1      26.810  31.408  37.296  1.00  0.00     0.001 C 
HETATM    8  C   LIG     1      28.115  31.577  36.838  1.00  0.00     0.012 C 
HETATM    9  C   LIG     1      28.516  31.008  35.618  1.00  0.00    -0.025 C 
HETATM   10  C   LIG     1      29.783  31.289  35.109  1.00  0.00     0.013 C 
HETATM   11  C   LIG     1      30.133  30.865  33.833  1.00  0.00     0.014 C 
HETATM   12  C   LIG     1      29.264  30.060  33.064  1.00  0.00    -0.018 C 
HETATM   13  C   LIG     1      29.571  29.725  31.718  1.00  0.00    -0.040 C 
HETATM   14  C   LIG     1      30.659  30.477  30.967  1.00  0.00     0.050 C 
HETATM   15  C   LIG     1      28.820  28.711  31.064  1.00  0.00    -0.019 A 
HETATM   16  C   LIG     1      27.738  28.085  31.740  1.00  0.00    -0.019 A 
HETATM   17  C   LIG     1      26.991  27.092  31.063  1.00  0.00     0.013 A 
HETATM   18  C   LIG     1      27.324  26.697  29.770  1.00  0.00     0.001 A 
HETATM   19  C   LIG     1      28.412  27.272  29.127  1.00  0.00     0.001 A 
HETATM   20  C   LIG     1      29.159  28.262  29.763  1.00  0.00     0.013 A 
ENDROOT
TORSDOF 0
ENDMDL
MODEL 2
REMARK VINA RESULT:      -6.4     10.581     15.771
REMARK  0 active torsions:
REMARK  status: ('A' for Active; 'I' for Inactive)
ROOT
HETATM    1  C   LIG     1      25.449  22.528  21.834  1.00  0.00     0.050 C 
HETATM    2  C   LIG     1      24.371  21.783  22.606  1.00  0.00    -0.039 C 
HETATM    3  C   LIG     1      23.602  20.758  21.983  1.00  0.00    -0.007 C 
HETATM    4  C   LIG     1      23.345  20.712  20.574  1.00  0.00    -0.014 C 
HETATM    5  C   LIG     1      23.379  21.863  19.752  1.00  0.00     0.013 C 
HETATM    6  C   LIG     1      23.164  21.768  18.375  1.00  0.00     0.001 C 
HETATM    7  C   LIG     1      22.868  20.538  17.793  1.00  0.00     0.001 C 
HETATM    8  C   LIG     1      22.733  19.405  18.593  1.00  0.00     0.012 C 
HETATM    9  C   LIG     1      22.927  19.492  19.982  1.00  0.00    -0.025 C 
HETATM   10  C   LIG     1      22.666  18.384  20.785  1.00  0.00     0.013 C 
HETATM   11  C   LIG     1      22.700  18.500  22.169  1.00  0.00     0.014 C 
HETATM   12  C   LIG     1      23.094  19.704  22.794  1.00  0.00    -0.018 C 
HETATM   13  C   LIG     1      23.016  19.861  24.203  1.00  0.00    -0.040 C 
HETATM   14  C   LIG     1      22.211  18.880  25.042  1.00  0.00     0.050 C 
HETATM   15  C   LIG     1      23.659  20.969  24.817  1.00  0.00    -0.019 A 
HETATM   16  C   LIG     1      24.323  21.936  24.015  1.00  0.00    -0.019 A 
HETATM   17  C   LIG     1      24.940  23.042  24.646  1.00  0.00     0.013 A 
HETATM   18  C   LIG     1      24.938  23.173  26.032  1.00  0.00     0.001 A 
HETATM   19  C   LIG     1      24.334  22.203  26.820  1.00  0.00     0.001 A 
HETATM   20  C   LIG     1      23.707  21.109  26.227  1.00  0.00     0.013 A 
ENDROOT
TORSDOF 0
ENDMDL
MODEL 3
REMARK VINA RESULT:      -6.2     11.060     16.006
REMARK  0 active torsions:
REMARK  status: ('A' for Active; 'I' for Inactive)
ROOT
HETATM    1  C   LIG     1      22.432  20.402  22.988  1.00  0.00     0.050 C 
HETATM    2  C   LIG     1      23.660  21.027  22.346  1.00  0.00    -0.039 C 
HETATM    3  C   LIG     1      23.802  21.070  20.928  1.00  0.00    -0.007 C 
HETATM    4  C   LIG     1      23.194  20.119  20.047  1.00  0.00    -0.014 C 
HETATM    5  C   LIG     1      22.830  18.815  20.460  1.00  0.00     0.013 C 
HETATM    6  C   LIG     1      22.200  17.933  19.580  1.00  0.00     0.001 C 
HETATM    7  C   LIG     1      21.958  18.309  18.261  1.00  0.00     0.001 C 
HETATM    8  C   LIG     1      22.393  19.550  17.801  1.00  0.00     0.012 C 
HETATM    9  C   LIG     1      23.046  20.438  18.671  1.00  0.00    -0.025 C 
HETATM   10  C   LIG     1      23.588  21.620  18.171  1.00  0.00     0.013 C 
HETATM   11  C   LIG     1      24.371  22.429  18.985  1.00  0.00     0.014 C 
HETATM   12  C   LIG     1      24.555  22.133  20.354  1.00  0.00    -0.018 C 
HETATM   13  C   LIG     1      25.448  22.891  21.157  1.00  0.00    -0.040 C 
HETATM   14  C   LIG     1      26.466  23.818  20.510  1.00  0.00     0.050 C 
HETATM   15  C   LIG     1      25.413  22.742  22.570  1.00  0.00    -0.019 A 
HETATM   16  C   LIG     1      24.528  21.798  23.159  1.00  0.00    -0.019 A 
HETATM   17  C   LIG     1      24.524  21.651  24.567  1.00  0.00     0.013 A 
HETATM   18  C   LIG     1      25.339  22.439  25.375  1.00  0.00     0.001 A 
HETATM   19  C   LIG     1      26.166  23.396  24.804  1.00  0.00     0.001 A 
HETATM   20  C   LIG     1      26.202  23.556  23.420  1.00  0.00     0.013 A 
ENDROOT
TORSDOF 0
ENDMDL
MODEL 4
REMARK VINA RESULT:      -6.1      1.016      3.084
REMARK  0 active torsions:
REMARK  status: ('A' for Active; 'I' for Inactive)
ROOT
HETATM    1  C   LIG     1      29.856  31.697  32.332  1.00  0.00     0.050 C 
HETATM    2  C   LIG     1      29.248  30.311  32.484  1.00  0.00    -0.039 C 
HETATM    3  C   LIG     1      28.494  29.968  33.643  1.00  0.00    -0.007 C 
HETATM    4  C   LIG     1      28.693  30.582  34.922  1.00  0.00    -0.014 C 
HETATM    5  C   LIG     1      29.914  31.190  35.299  1.00  0.00     0.013 C 
HETATM    6  C   LIG     1      30.052  31.815  36.540  1.00  0.00     0.001 C 
HETATM    7  C   LIG     1      28.998  31.811  37.450  1.00  0.00     0.001 C 
HETATM    8  C   LIG     1      27.818  31.136  37.144  1.00  0.00     0.012 C 
HETATM    9  C   LIG     1      27.674  30.486  35.907  1.00  0.00    -0.025 C 
HETATM   10  C   LIG     1      26.543  29.709  35.663  1.00  0.00     0.013 C 
HETATM   11  C   LIG     1      26.462  28.936  34.511  1.00  0.00     0.014 C 
HETATM   12  C   LIG     1      27.465  28.993  33.518  1.00  0.00    -0.018 C 
HETATM   13  C   LIG     1      27.442  28.117  32.400  1.00  0.00    -0.040 C 
HETATM   14  C   LIG     1      26.540  26.893  32.400  1.00  0.00     0.050 C 
HETATM   15  C   LIG     1      28.302  28.372  31.298  1.00  0.00    -0.019 A 
HETATM   16  C   LIG     1      29.215  29.461  31.350  1.00  0.00    -0.019 A 
HETATM   17  C   LIG     1      30.078  29.685  30.251  1.00  0.00     0.013 A 
HETATM   18  C   LIG     1      30.017  28.882  29.114  1.00  0.00     0.001 A 
HETATM   19  C   LIG     1      29.092  27.851  29.041  1.00  0.00     0.001 A 
HETATM   20  C   LIG     1      28.238  27.597  30.113  1.00  0.00     0.013 A 
ENDROOT
TORSDOF 0
ENDMDL
MODEL 5
REMARK VINA RESULT:      -6.1     11.691     15.633
REMARK  0 active torsions:
REMARK  status: ('A' for Active; 'I' for Inactive)
ROOT
HETATM    1  C   LIG     1      23.391  18.281  22.111  1.00  0.00     0.050 C 
HETATM    2  C   LIG     1      23.256  19.504  21.217  1.00  0.00    -0.039 C 
HETATM    3  C   LIG     1      23.799  20.761  21.611  1.00  0.00    -0.007 C 
HETATM    4  C   LIG     1      23.981  21.146  22.979  1.00  0.00    -0.014 C 
HETATM    5  C   LIG     1      23.227  20.589  24.038  1.00  0.00     0.013 C 
HETATM    6  C   LIG     1      23.465  20.961  25.363  1.00  0.00     0.001 C 
HETATM    7  C   LIG     1      24.424  21.926  25.659  1.00  0.00     0.001 C 
HETATM    8  C   LIG     1      25.112  22.562  24.628  1.00  0.00     0.012 C 
HETATM    9  C   LIG     1      24.868  22.210  23.291  1.00  0.00    -0.025 C 
HETATM   10  C   LIG     1      25.466  22.939  22.265  1.00  0.00     0.013 C 
HETATM   11  C   LIG     1      25.111  22.705  20.942  1.00  0.00     0.014 C 
HETATM   12  C   LIG     1      24.218  21.667  20.596  1.00  0.00    -0.018 C 
HETATM   13  C   LIG     1      23.764  21.503  19.260  1.00  0.00    -0.040 C 
HETATM   14  C   LIG     1      23.957  22.615  18.241  1.00  0.00     0.050 C 
HETATM   15  C   LIG     1      23.087  20.308  18.896  1.00  0.00    -0.019 A 
HETATM   16  C   LIG     1      22.822  19.317  19.880  1.00  0.00    -0.019 A 
HETATM   17  C   LIG     1      22.128  18.144  19.500  1.00  0.00     0.013 A 
HETATM   18  C   LIG     1      21.741  17.933  18.179  1.00  0.00     0.001 A 
HETATM   19  C   LIG     1      22.044  18.876  17.208  1.00  0.00     0.001 A 
HETATM   20  C   LIG     1      22.715  20.048  17.553  1.00  0.00     0.013 A 
ENDROOT
TORSDOF 0
ENDMDL
MODEL 6
REMARK VINA RESULT:      -6.1     13.619     16.483
REMARK  0 active torsions:
REMARK  status: ('A' for Active; 'I' for Inactive)
ROOT
HETATM    1  C   LIG     1      28.191  22.176  16.724  1.00  0.00     0.050 C 
HETATM    2  C   LIG     1      28.111  23.680  16.933  1.00  0.00    -0.039 C 
HETATM    3  C   LIG     1      27.554  24.223  18.128  1.00  0.00    -0.007 C 
HETATM    4  C   LIG     1      26.570  23.545  18.917  1.00  0.00    -0.014 C 
HETATM    5  C   LIG     1      25.708  22.558  18.384  1.00  0.00     0.013 C 
HETATM    6  C   LIG     1      24.790  21.890  19.198  1.00  0.00     0.001 C 
HETATM    7  C   LIG     1      24.679  22.218  20.546  1.00  0.00     0.001 C 
HETATM    8  C   LIG     1      25.447  23.254  21.076  1.00  0.00     0.012 C 
HETATM    9  C   LIG     1      26.359  23.946  20.262  1.00  0.00    -0.025 C 
HETATM   10  C   LIG     1      27.027  25.060  20.768  1.00  0.00     0.013 C 
HETATM   11  C   LIG     1      27.808  25.846  19.930  1.00  0.00     0.014 C 
HETATM   12  C   LIG     1      28.026  25.487  18.582  1.00  0.00    -0.018 C 
HETATM   13  C   LIG     1      28.725  26.349  17.696  1.00  0.00    -0.040 C 
HETATM   14  C   LIG     1      28.970  27.803  18.070  1.00  0.00     0.050 C 
HETATM   15  C   LIG     1      29.155  25.853  16.435  1.00  0.00    -0.019 A 
HETATM   16  C   LIG     1      28.833  24.523  16.052  1.00  0.00    -0.019 A 
HETATM   17  C   LIG     1      29.253  24.056  14.783  1.00  0.00     0.013 A 
HETATM   18  C   LIG     1      30.004  24.862  13.932  1.00  0.00     0.001 A 
HETATM   19  C   LIG     1      30.363  26.143  14.327  1.00  0.00     0.001 A 
HETATM   20  C   LIG     1      29.953  26.637  15.564  1.00  0.00     0.013 A 
ENDROOT
TORSDOF 0
ENDMDL
MODEL 7
REMARK VINA RESULT:      -6.1      8.356     13.628
REMARK  0 active torsions:
REMARK  status: ('A' for Active; 'I' for Inactive)
ROOT
HETATM    1  C   LIG     1      26.799  23.137  22.896  1.00  0.00     0.050 C 
HETATM    2  C   LIG     1      25.682  22.914  23.903  1.00  0.00    -0.039 C 
HETATM    3  C   LIG     1      24.590  22.048  23.604  1.00  0.00    -0.007 C 
HETATM    4  C   LIG     1      24.135  21.786  22.271  1.00  0.00    -0.014 C 
HETATM    5  C   LIG     1      24.355  22.681  21.197  1.00  0.00     0.013 C 
HETATM    6  C   LIG     1      23.932  22.368  19.903  1.00  0.00     0.001 C 
HETATM    7  C   LIG     1      23.244  21.183  19.657  1.00  0.00     0.001 C 
HETATM    8  C   LIG     1      22.929  20.329  20.712  1.00  0.00     0.012 C 
HETATM    9  C   LIG     1      23.331  20.643  22.021  1.00  0.00    -0.025 C 
HETATM   10  C   LIG     1      22.902  19.850  23.083  1.00  0.00     0.013 C 
HETATM   11  C   LIG     1      23.160  20.237  24.393  1.00  0.00     0.014 C 
HETATM   12  C   LIG     1      23.941  21.378  24.679  1.00  0.00    -0.018 C 
HETATM   13  C   LIG     1      24.105  21.841  26.012  1.00  0.00    -0.040 C 
HETATM   14  C   LIG     1      23.197  21.331  27.121  1.00  0.00     0.050 C 
HETATM   15  C   LIG     1      25.098  22.818  26.293  1.00  0.00    -0.019 A 
HETATM   16  C   LIG     1      25.874  23.363  25.234  1.00  0.00    -0.019 A 
HETATM   17  C   LIG     1      26.843  24.351  25.533  1.00  0.00     0.013 A 
HETATM   18  C   LIG     1      27.069  24.762  26.844  1.00  0.00     0.001 A 
HETATM   19  C   LIG     1      26.348  24.194  27.884  1.00  0.00     0.001 A 
HETATM   20  C   LIG     1      25.378  23.229  27.620  1.00  0.00     0.013 A 
ENDROOT
TORSDOF 0
ENDMDL
MODEL 8
REMARK VINA RESULT:      -5.9      9.921     13.584
REMARK  0 active torsions:
REMARK  status: ('A' for Active; 'I' for Inactive)
ROOT
HETATM    1  C   LIG     1      26.756  24.567  20.354  1.00  0.00     0.050 C 
HETATM    2  C   LIG     1      25.987  23.416  20.984  1.00  0.00    -0.039 C 
HETATM    3  C   LIG     1      26.027  23.194  22.391  1.00  0.00    -0.007 C 
HETATM    4  C   LIG     1      27.129  23.585  23.219  1.00  0.00    -0.014 C 
HETATM    5  C   LIG     1      28.440  23.762  22.717  1.00  0.00     0.013 C 
HETATM    6  C   LIG     1      29.478  24.186  23.550  1.00  0.00     0.001 C 
HETATM    7  C   LIG     1      29.246  24.400  24.906  1.00  0.00     0.001 C 
HETATM    8  C   LIG     1      27.988  24.141  25.446  1.00  0.00     0.012 C 
HETATM    9  C   LIG     1      26.942  23.695  24.622  1.00  0.00    -0.025 C 
HETATM   10  C   LIG     1      25.728  23.317  25.192  1.00  0.00     0.013 C 
HETATM   11  C   LIG     1      24.743  22.727  24.410  1.00  0.00     0.014 C 
HETATM   12  C   LIG     1      24.901  22.585  23.014  1.00  0.00    -0.018 C 
HETATM   13  C   LIG     1      23.949  21.877  22.234  1.00  0.00    -0.040 C 
HETATM   14  C   LIG     1      22.918  20.982  22.905  1.00  0.00     0.050 C 
HETATM   15  C   LIG     1      23.996  21.978  20.818  1.00  0.00    -0.019 A 
HETATM   16  C   LIG     1      25.025  22.736  20.196  1.00  0.00    -0.019 A 
HETATM   17  C   LIG     1      25.065  22.806  18.783  1.00  0.00     0.013 A 
HETATM   18  C   LIG     1      24.095  22.180  18.004  1.00  0.00     0.001 A 
HETATM   19  C   LIG     1      23.061  21.482  18.611  1.00  0.00     0.001 A 
HETATM   20  C   LIG     1      23.002  21.384  20.000  1.00  0.00     0.013 A 
ENDROOT
TORSDOF 0
ENDMDL
MODEL 9
REMARK VINA RESULT:      -5.8     10.667     14.360
REMARK  0 active torsions:
REMARK  status: ('A' for Active; 'I' for Inactive)
ROOT
HETATM    1  C   LIG     1      28.194  23.723  22.916  1.00  0.00     0.050 C 
HETATM    2  C   LIG     1      26.708  23.513  22.671  1.00  0.00    -0.039 C 
HETATM    3  C   LIG     1      26.171  23.557  21.352  1.00  0.00    -0.007 C 
HETATM    4  C   LIG     1      26.762  24.310  20.287  1.00  0.00    -0.014 C 
HETATM    5  C   LIG     1      27.594  25.433  20.511  1.00  0.00     0.013 C 
HETATM    6  C   LIG     1      28.185  26.113  19.444  1.00  0.00     0.001 C 
HETATM    7  C   LIG     1      27.928  25.722  18.133  1.00  0.00     0.001 C 
HETATM    8  C   LIG     1      27.036  24.682  17.880  1.00  0.00     0.012 C 
HETATM    9  C   LIG     1      26.420  24.003  18.943  1.00  0.00    -0.025 C 
HETATM   10  C   LIG     1      25.436  23.053  18.677  1.00  0.00     0.013 C 
HETATM   11  C   LIG     1      24.709  22.490  19.719  1.00  0.00     0.014 C 
HETATM   12  C   LIG     1      25.009  22.786  21.067  1.00  0.00    -0.018 C 
HETATM   13  C   LIG     1      24.193  22.305  22.125  1.00  0.00    -0.040 C 
HETATM   14  C   LIG     1      22.809  21.744  21.835  1.00  0.00     0.050 C 
HETATM   15  C   LIG     1      24.663  22.394  23.463  1.00  0.00    -0.019 A 
HETATM   16  C   LIG     1      25.914  23.012  23.734  1.00  0.00    -0.019 A 
HETATM   17  C   LIG     1      26.354  23.108  25.075  1.00  0.00     0.013 A 
HETATM   18  C   LIG     1      25.601  22.575  26.119  1.00  0.00     0.001 A 
HETATM   19  C   LIG     1      24.404  21.927  25.851  1.00  0.00     0.001 A 
HETATM   20  C   LIG     1      23.938  21.827  24.541  1.00  0.00     0.013 A 
ENDROOT
TORSDOF 0
ENDMDL
MODEL 10
REMARK VINA RESULT:      -5.8     11.425     14.423
REMARK  0 active torsions:
REMARK  status: ('A' for Active; 'I' for Inactive)
ROOT
HETATM    1  C   LIG     1      23.158  18.041  23.033  1.00  0.00     0.050 C 
HETATM    2  C   LIG     1      23.155  19.476  22.530  1.00  0.00    -0.039 C 
HETATM    3  C   LIG     1      23.468  20.557  23.404  1.00  0.00    -0.007 C 
HETATM    4  C   LIG     1      23.255  20.512  24.820  1.00  0.00    -0.014 C 
HETATM    5  C   LIG     1      22.303  19.658  25.425  1.00  0.00     0.013 C 
HETATM    6  C   LIG     1      22.157  19.614  26.813  1.00  0.00     0.001 C 
HETATM    7  C   LIG     1      22.920  20.448  27.626  1.00  0.00     0.001 C 
HETATM    8  C   LIG     1      23.796  21.368  27.052  1.00  0.00     0.012 C 
HETATM    9  C   LIG     1      23.937  21.435  25.656  1.00  0.00    -0.025 C 
HETATM   10  C   LIG     1      24.716  22.441  25.089  1.00  0.00     0.013 C 
HETATM   11  C   LIG     1      24.737  22.616  23.711  1.00  0.00     0.014 C 
HETATM   12  C   LIG     1      24.057  21.728  22.849  1.00  0.00    -0.018 C 
HETATM   13  C   LIG     1      23.980  21.974  21.452  1.00  0.00    -0.040 C 
HETATM   14  C   LIG     1      24.334  23.342  20.891  1.00  0.00     0.050 C 
HETATM   15  C   LIG     1      23.525  20.942  20.588  1.00  0.00    -0.019 A 
HETATM   16  C   LIG     1      23.099  19.700  21.131  1.00  0.00    -0.019 A 
HETATM   17  C   LIG     1      22.631  18.693  20.254  1.00  0.00     0.013 A 
HETATM   18  C   LIG     1      22.619  18.889  18.875  1.00  0.00     0.001 A 
HETATM   19  C   LIG     1      23.082  20.083  18.340  1.00  0.00     0.001 A 
HETATM   20  C   LIG     1      23.537  21.098  19.179  1.00  0.00     0.013 A 
ENDROOT
TORSDOF 0
ENDMDL
MODEL 11
REMARK VINA RESULT:      -5.8      9.439     13.382
REMARK  0 active torsions:
REMARK  status: ('A' for Active; 'I' for Inactive)
ROOT
HETATM    1  C   LIG     1      24.432  20.663  22.982  1.00  0.00     0.050 C 
HETATM    2  C   LIG     1      24.766  21.824  22.058  1.00  0.00    -0.039 C 
HETATM    3  C   LIG     1      25.700  22.825  22.450  1.00  0.00    -0.007 C 
HETATM    4  C   LIG     1      25.956  23.170  23.817  1.00  0.00    -0.014 C 
HETATM    5  C   LIG     1      25.018  22.949  24.852  1.00  0.00     0.013 C 
HETATM    6  C   LIG     1      25.323  23.261  26.178  1.00  0.00     0.001 C 
HETATM    7  C   LIG     1      26.549  23.841  26.499  1.00  0.00     0.001 C 
HETATM    8  C   LIG     1      27.452  24.159  25.487  1.00  0.00     0.012 C 
HETATM    9  C   LIG     1      27.148  23.868  24.147  1.00  0.00    -0.025 C 
HETATM   10  C   LIG     1      28.000  24.305  23.135  1.00  0.00     0.013 C 
HETATM   11  C   LIG     1      27.632  24.164  21.803  1.00  0.00     0.014 C 
HETATM   12  C   LIG     1      26.446  23.491  21.437  1.00  0.00    -0.018 C 
HETATM   13  C   LIG     1      26.011  23.450  20.086  1.00  0.00    -0.040 C 
HETATM   14  C   LIG     1      26.617  24.388  19.054  1.00  0.00     0.050 C 
HETATM   15  C   LIG     1      24.972  22.554  19.716  1.00  0.00    -0.019 A 
HETATM   16  C   LIG     1      24.341  21.753  20.707  1.00  0.00    -0.019 A 
HETATM   17  C   LIG     1      23.295  20.883  20.320  1.00  0.00     0.013 A 
HETATM   18  C   LIG     1      22.906  20.774  18.987  1.00  0.00     0.001 A 
HETATM   19  C   LIG     1      23.555  21.517  18.011  1.00  0.00     0.001 A 
HETATM   20  C   LIG     1      24.580  22.393  18.363  1.00  0.00     0.013 A 
ENDROOT
TORSDOF 0
ENDMDL
MODEL 12
REMARK VINA RESULT:      -5.7      9.648     14.277
REMARK  0 active torsions:
REMARK  status: ('A' for Active; 'I' for Inactive)
ROOT
HETATM    1  C   LIG     1      27.836  22.867  20.689  1.00  0.00     0.050 C 
HETATM    2  C   LIG     1      26.890  23.181  21.838  1.00  0.00    -0.039 C 
HETATM    3  C   LIG     1      25.562  22.662  21.854  1.00  0.00    -0.007 C 
HETATM    4  C   LIG     1      24.832  22.332  20.667  1.00  0.00    -0.014 C 
HETATM    5  C   LIG     1      25.111  22.914  19.408  1.00  0.00     0.013 C 
HETATM    6  C   LIG     1      24.402  22.532  18.267  1.00  0.00     0.001 C 
HETATM    7  C   LIG     1      23.374  21.598  18.359  1.00  0.00     0.001 C 
HETATM    8  C   LIG     1      23.013  21.081  19.601  1.00  0.00     0.012 C 
HETATM    9  C   LIG     1      23.705  21.473  20.759  1.00  0.00    -0.025 C 
HETATM   10  C   LIG     1      23.255  21.049  22.008  1.00  0.00     0.013 C 
HETATM   11  C   LIG     1      23.831  21.555  23.167  1.00  0.00     0.014 C 
HETATM   12  C   LIG     1      24.943  22.426  23.113  1.00  0.00    -0.018 C 
HETATM   13  C   LIG     1      25.457  23.035  24.289  1.00  0.00    -0.040 C 
HETATM   14  C   LIG     1      24.643  23.034  25.574  1.00  0.00     0.050 C 
HETATM   15  C   LIG     1      26.719  23.685  24.241  1.00  0.00    -0.019 A 
HETATM   16  C   LIG     1      27.426  23.769  23.010  1.00  0.00    -0.019 A 
HETATM   17  C   LIG     1      28.672  24.439  22.981  1.00  0.00     0.013 A 
HETATM   18  C   LIG     1      29.227  24.977  24.140  1.00  0.00     0.001 A 
HETATM   19  C   LIG     1      28.562  24.851  25.351  1.00  0.00     0.001 A 
HETATM   20  C   LIG     1      27.327  24.209  25.410  1.00  0.00     0.013 A 
ENDROOT
TORSDOF 0
ENDMDL
MODEL 13
REMARK VINA RESULT:      -5.7      9.140     12.264
REMARK  0 active torsions:
REMARK  status: ('A' for Active; 'I' for Inactive)
ROOT
HETATM    1  C   LIG     1      24.350  22.705  22.145  1.00  0.00     0.050 C 
HETATM    2  C   LIG     1      24.585  22.138  23.537  1.00  0.00    -0.039 C 
HETATM    3  C   LIG     1      25.431  22.809  24.466  1.00  0.00    -0.007 C 
HETATM    4  C   LIG     1      26.514  23.660  24.072  1.00  0.00    -0.014 C 
HETATM    5  C   LIG     1      27.162  23.546  22.819  1.00  0.00     0.013 C 
HETATM    6  C   LIG     1      28.186  24.424  22.458  1.00  0.00     0.001 C 
HETATM    7  C   LIG     1      28.618  25.403  23.349  1.00  0.00     0.001 C 
HETATM    8  C   LIG     1      28.065  25.475  24.626  1.00  0.00     0.012 C 
HETATM    9  C   LIG     1      27.049  24.585  25.008  1.00  0.00    -0.025 C 
HETATM   10  C   LIG     1      26.593  24.582  26.325  1.00  0.00     0.013 C 
HETATM   11  C   LIG     1      25.705  23.604  26.755  1.00  0.00     0.014 C 
HETATM   12  C   LIG     1      25.166  22.657  25.856  1.00  0.00    -0.018 C 
HETATM   13  C   LIG     1      24.352  21.587  26.316  1.00  0.00    -0.040 C 
HETATM   14  C   LIG     1      24.304  21.239  27.796  1.00  0.00     0.050 C 
HETATM   15  C   LIG     1      23.618  20.817  25.375  1.00  0.00    -0.019 A 
HETATM   16  C   LIG     1      23.748  21.085  23.985  1.00  0.00    -0.019 A 
HETATM   17  C   LIG     1      23.023  20.292  23.064  1.00  0.00     0.013 A 
HETATM   18  C   LIG     1      22.162  19.288  23.501  1.00  0.00     0.001 A 
HETATM   19  C   LIG     1      21.996  19.059  24.859  1.00  0.00     0.001 A 
HETATM   20  C   LIG     1      22.706  19.814  25.790  1.00  0.00     0.013 A 
ENDROOT
TORSDOF 0
ENDMDL
MODEL 14
REMARK VINA RESULT:      -5.7      2.050      6.521
REMARK  0 active torsions:
REMARK  status: ('A' for Active; 'I' for Inactive)
ROOT
HETATM    1  C   LIG     1      27.699  29.874  33.347  1.00  0.00     0.050 C 
HETATM    2  C   LIG     1      27.195  28.993  34.480  1.00  0.00    -0.039 C 
HETATM    3  C   LIG     1      27.344  27.577  34.426  1.00  0.00    -0.007 C 
HETATM    4  C   LIG     1      27.418  26.839  33.200  1.00  0.00    -0.014 C 
HETATM    5  C   LIG     1      26.877  27.318  31.984  1.00  0.00     0.013 C 
HETATM    6  C   LIG     1      27.008  26.586  30.802  1.00  0.00     0.001 C 
HETATM    7  C   LIG     1      27.640  25.345  30.811  1.00  0.00     0.001 C 
HETATM    8  C   LIG     1      28.095  24.805  32.012  1.00  0.00     0.012 C 
HETATM    9  C   LIG     1      27.951  25.523  33.210  1.00  0.00    -0.025 C 
HETATM   10  C   LIG     1      28.294  24.922  34.420  1.00  0.00     0.013 C 
HETATM   11  C   LIG     1      28.009  25.558  35.622  1.00  0.00     0.014 C 
HETATM   12  C   LIG     1      27.462  26.860  35.650  1.00  0.00    -0.018 C 
HETATM   13  C   LIG     1      27.062  27.463  36.873  1.00  0.00    -0.040 C 
HETATM   14  C   LIG     1      26.902  26.621  38.129  1.00  0.00     0.050 C 
HETATM   15  C   LIG     1      26.768  28.853  36.900  1.00  0.00    -0.019 A 
HETATM   16  C   LIG     1      26.821  29.611  35.699  1.00  0.00    -0.019 A 
HETATM   17  C   LIG     1      26.504  30.990  35.746  1.00  0.00     0.013 A 
HETATM   18  C   LIG     1      26.182  31.614  36.948  1.00  0.00     0.001 A 
HETATM   19  C   LIG     1      26.179  30.885  38.129  1.00  0.00     0.001 A 
HETATM   20  C   LIG     1      26.474  29.523  38.114  1.00  0.00     0.013 A 
ENDROOT
TORSDOF 0
ENDMDL
MODEL 15
REMARK VINA RESULT:      -5.7      7.996     12.030
REMARK  0 active torsions:
REMARK  status: ('A' for Active; 'I' for Inactive)
ROOT
HETATM    1  C   LIG     1      27.471  23.526  22.407  1.00  0.00     0.050 C 
HETATM    2  C   LIG     1      26.938  23.859  23.791  1.00  0.00    -0.039 C 
HETATM    3  C   LIG     1      25.818  23.162  24.330  1.00  0.00    -0.007 C 
HETATM    4  C   LIG     1      24.798  22.565  23.521  1.00  0.00    -0.014 C 
HETATM    5  C   LIG     1      24.514  22.998  22.204  1.00  0.00     0.013 C 
HETATM    6  C   LIG     1      23.539  22.360  21.433  1.00  0.00     0.001 C 
HETATM    7  C   LIG     1      22.798  21.310  21.967  1.00  0.00     0.001 C 
HETATM    8  C   LIG     1      22.989  20.927  23.293  1.00  0.00     0.012 C 
HETATM    9  C   LIG     1      23.952  21.574  24.085  1.00  0.00    -0.025 C 
HETATM   10  C   LIG     1      24.047  21.271  25.441  1.00  0.00     0.013 C 
HETATM   11  C   LIG     1      24.882  22.013  26.267  1.00  0.00     0.014 C 
HETATM   12  C   LIG     1      25.725  23.018  25.743  1.00  0.00    -0.018 C 
HETATM   13  C   LIG     1      26.490  23.855  26.599  1.00  0.00    -0.040 C 
HETATM   14  C   LIG     1      26.184  23.918  28.087  1.00  0.00     0.050 C 
HETATM   15  C   LIG     1      27.515  24.668  26.044  1.00  0.00    -0.019 A 
HETATM   16  C   LIG     1      27.726  24.679  24.638  1.00  0.00    -0.019 A 
HETATM   17  C   LIG     1      28.738  25.511  24.105  1.00  0.00     0.013 A 
HETATM   18  C   LIG     1      29.548  26.282  24.935  1.00  0.00     0.001 A 
HETATM   19  C   LIG     1      29.376  26.234  26.311  1.00  0.00     0.001 A 
HETATM   20  C   LIG     1      28.379  25.434  26.866  1.00  0.00     0.013 A 
ENDROOT
TORSDOF 0
ENDMDL
MODEL 16
REMARK VINA RESULT:      -5.6      7.793     11.748
REMARK  0 active torsions:
REMARK  status: ('A' for Active; 'I' for Inactive)
ROOT
HETATM    1  C   LIG     1      24.526  22.031  24.945  1.00  0.00     0.050 C 
HETATM    2  C   LIG     1      25.151  22.790  23.785  1.00  0.00    -0.039 C 
HETATM    3  C   LIG     1      26.386  23.483  23.945  1.00  0.00    -0.007 C 
HETATM    4  C   LIG     1      26.838  24.006  25.200  1.00  0.00    -0.014 C 
HETATM    5  C   LIG     1      25.955  24.334  26.256  1.00  0.00     0.013 C 
HETATM    6  C   LIG     1      26.441  24.802  27.479  1.00  0.00     0.001 C 
HETATM    7  C   LIG     1      27.807  24.995  27.664  1.00  0.00     0.001 C 
HETATM    8  C   LIG     1      28.690  24.772  26.610  1.00  0.00     0.012 C 
HETATM    9  C   LIG     1      28.212  24.321  25.369  1.00  0.00    -0.025 C 
HETATM   10  C   LIG     1      29.084  24.224  24.287  1.00  0.00     0.013 C 
HETATM   11  C   LIG     1      28.596  23.933  23.019  1.00  0.00     0.014 C 
HETATM   12  C   LIG     1      27.232  23.632  22.810  1.00  0.00    -0.018 C 
HETATM   13  C   LIG     1      26.711  23.451  21.502  1.00  0.00    -0.040 C 
HETATM   14  C   LIG     1      27.513  23.892  20.287  1.00  0.00     0.050 C 
HETATM   15  C   LIG     1      25.414  22.894  21.339  1.00  0.00    -0.019 A 
HETATM   16  C   LIG     1      24.631  22.580  22.483  1.00  0.00    -0.019 A 
HETATM   17  C   LIG     1      23.333  22.045  22.298  1.00  0.00     0.013 A 
HETATM   18  C   LIG     1      22.835  21.791  21.023  1.00  0.00     0.001 A 
HETATM   19  C   LIG     1      23.618  22.051  19.907  1.00  0.00     0.001 A 
HETATM   20  C   LIG     1      24.894  22.589  20.056  1.00  0.00     0.013 A 
ENDROOT
TORSDOF 0
ENDMDL
MODEL 17
REMARK VINA RESULT:      -5.5      1.343      6.281
REMARK  0 active torsions:
REMARK  status: ('A' for Active; 'I' for Inactive)
ROOT
HETATM    1  C   LIG     1      30.416  30.830  32.472  1.00  0.00     0.050 C 
HETATM    2  C   LIG     1      29.129  30.021  32.421  1.00  0.00    -0.039 C 
HETATM    3  C   LIG     1      28.902  29.074  31.381  1.00  0.00    -0.007 C 
HETATM    4  C   LIG     1      29.491  29.177  30.079  1.00  0.00    -0.014 C 
HETATM    5  C   LIG     1      29.926  30.407  29.531  1.00  0.00     0.013 C 
HETATM    6  C   LIG     1      30.535  30.458  28.275  1.00  0.00     0.001 C 
HETATM    7  C   LIG     1      30.684  29.298  27.519  1.00  0.00     0.001 C 
HETATM    8  C   LIG     1      30.177  28.089  27.993  1.00  0.00     0.012 C 
HETATM    9  C   LIG     1      29.545  28.029  29.246  1.00  0.00    -0.025 C 
HETATM   10  C   LIG     1      28.930  26.846  29.652  1.00  0.00     0.013 C 
HETATM   11  C   LIG     1      28.168  26.819  30.813  1.00  0.00     0.014 C 
HETATM   12  C   LIG     1      28.078  27.947  31.658  1.00  0.00    -0.018 C 
HETATM   13  C   LIG     1      27.206  27.957  32.780  1.00  0.00    -0.040 C 
HETATM   14  C   LIG     1      26.119  26.903  32.919  1.00  0.00     0.050 C 
HETATM   15  C   LIG     1      27.332  28.988  33.749  1.00  0.00    -0.019 A 
HETATM   16  C   LIG     1      28.283  30.027  33.559  1.00  0.00    -0.019 A 
HETATM   17  C   LIG     1      28.377  31.055  34.527  1.00  0.00     0.013 A 
HETATM   18  C   LIG     1      27.583  31.041  35.671  1.00  0.00     0.001 A 
HETATM   19  C   LIG     1      26.689  30.001  35.882  1.00  0.00     0.001 A 
HETATM   20  C   LIG     1      26.565  28.981  34.942  1.00  0.00     0.013 A 
ENDROOT
TORSDOF 0
ENDMDL
MODEL 18
REMARK VINA RESULT:      -5.5     14.208     16.337
REMARK  0 active torsions:
REMARK  status: ('A' for Active; 'I' for Inactive)
ROOT
HETATM    1  C   LIG     1      23.348  23.124  21.774  1.00  0.00     0.050 C 
HETATM    2  C   LIG     1      24.256  22.369  20.817  1.00  0.00    -0.039 C 
HETATM    3  C   LIG     1      24.054  20.982  20.559  1.00  0.00    -0.007 C 
HETATM    4  C   LIG     1      23.444  20.087  21.496  1.00  0.00    -0.014 C 
HETATM    5  C   LIG     1      23.433  20.329  22.890  1.00  0.00     0.013 C 
HETATM    6  C   LIG     1      22.790  19.452  23.766  1.00  0.00     0.001 C 
HETATM    7  C   LIG     1      22.183  18.295  23.282  1.00  0.00     0.001 C 
HETATM    8  C   LIG     1      22.263  17.983  21.927  1.00  0.00     0.012 C 
HETATM    9  C   LIG     1      22.925  18.847  21.039  1.00  0.00    -0.025 C 
HETATM   10  C   LIG     1      23.109  18.464  19.712  1.00  0.00     0.013 C 
HETATM   11  C   LIG     1      23.897  19.234  18.866  1.00  0.00     0.014 C 
HETATM   12  C   LIG     1      24.444  20.465  19.291  1.00  0.00    -0.018 C 
HETATM   13  C   LIG     1      25.344  21.193  18.468  1.00  0.00    -0.040 C 
HETATM   14  C   LIG     1      25.995  20.529  17.264  1.00  0.00     0.050 C 
HETATM   15  C   LIG     1      25.665  22.535  18.805  1.00  0.00    -0.019 A 
HETATM   16  C   LIG     1      25.132  23.115  19.989  1.00  0.00    -0.019 A 
HETATM   17  C   LIG     1      25.482  24.446  20.316  1.00  0.00     0.013 A 
HETATM   18  C   LIG     1      26.302  25.201  19.482  1.00  0.00     0.001 A 
HETATM   19  C   LIG     1      26.783  24.653  18.301  1.00  0.00     0.001 A 
HETATM   20  C   LIG     1      26.467  23.340  17.957  1.00  0.00     0.013 A 
ENDROOT
TORSDOF 0
ENDMDL
MODEL 19
REMARK VINA RESULT:      -5.5     12.878     15.855
REMARK  0 active torsions:
REMARK  status: ('A' for Active; 'I' for Inactive)
ROOT
HETATM    1  C   LIG     1      25.855  22.719  22.956  1.00  0.00     0.050 C 
HETATM    2  C   LIG     1      24.853  21.952  22.108  1.00  0.00    -0.039 C 
HETATM    3  C   LIG     1      24.958  21.936  20.687  1.00  0.00    -0.007 C 
HETATM    4  C   LIG     1      25.564  22.991  19.931  1.00  0.00    -0.014 C 
HETATM    5  C   LIG     1      25.666  24.318  20.411  1.00  0.00     0.013 C 
HETATM    6  C   LIG     1      26.303  25.307  19.659  1.00  0.00     0.001 C 
HETATM    7  C   LIG     1      26.813  25.012  18.398  1.00  0.00     0.001 C 
HETATM    8  C   LIG     1      26.641  23.738  17.859  1.00  0.00     0.012 C 
HETATM    9  C   LIG     1      25.984  22.740  18.598  1.00  0.00    -0.025 C 
HETATM   10  C   LIG     1      25.706  21.511  18.002  1.00  0.00     0.013 C 
HETATM   11  C   LIG     1      24.920  20.576  18.664  1.00  0.00     0.014 C 
HETATM   12  C   LIG     1      24.470  20.799  19.984  1.00  0.00    -0.018 C 
HETATM   13  C   LIG     1      23.571  19.899  20.616  1.00  0.00    -0.040 C 
HETATM   14  C   LIG     1      22.818  18.862  19.797  1.00  0.00     0.050 C 
HETATM   15  C   LIG     1      23.348  20.005  22.015  1.00  0.00    -0.019 A 
HETATM   16  C   LIG     1      23.979  21.042  22.755  1.00  0.00    -0.019 A 
HETATM   17  C   LIG     1      23.727  21.143  24.144  1.00  0.00     0.013 A 
HETATM   18  C   LIG     1      22.908  20.223  24.795  1.00  0.00     0.001 A 
HETATM   19  C   LIG     1      22.332  19.181  24.083  1.00  0.00     0.001 A 
HETATM   20  C   LIG     1      22.551  19.063  22.712  1.00  0.00     0.013 A 
ENDROOT
TORSDOF 0
ENDMDL
MODEL 20
REMARK VINA RESULT:      -5.4     13.653     16.611
REMARK  0 active torsions:
REMARK  status: ('A' for Active; 'I' for Inactive)
ROOT
HETATM    1  C   LIG     1      26.920  24.731  20.861  1.00  0.00     0.050 C 
HETATM    2  C   LIG     1      26.303  23.810  19.820  1.00  0.00    -0.039 C 
HETATM    3  C   LIG     1      27.002  23.493  18.619  1.00  0.00    -0.007 C 
HETATM    4  C   LIG     1      27.975  24.359  18.023  1.00  0.00    -0.014 C 
HETATM    5  C   LIG     1      27.995  25.757  18.242  1.00  0.00     0.013 C 
HETATM    6  C   LIG     1      28.987  26.559  17.675  1.00  0.00     0.001 C 
HETATM    7  C   LIG     1      29.954  25.999  16.844  1.00  0.00     0.001 C 
HETATM    8  C   LIG     1      29.901  24.642  16.533  1.00  0.00     0.012 C 
HETATM    9  C   LIG     1      28.896  23.828  17.081  1.00  0.00    -0.025 C 
HETATM   10  C   LIG     1      28.777  22.504  16.664  1.00  0.00     0.013 C 
HETATM   11  C   LIG     1      27.694  21.736  17.077  1.00  0.00     0.014 C 
HETATM   12  C   LIG     1      26.749  22.237  17.999  1.00  0.00    -0.018 C 
HETATM   13  C   LIG     1      25.582  21.499  18.329  1.00  0.00    -0.040 C 
HETATM   14  C   LIG     1      25.150  20.319  17.473  1.00  0.00     0.050 C 
HETATM   15  C   LIG     1      24.796  21.901  19.443  1.00  0.00    -0.019 A 
HETATM   16  C   LIG     1      25.151  23.066  20.176  1.00  0.00    -0.019 A 
HETATM   17  C   LIG     1      24.342  23.460  21.269  1.00  0.00     0.013 A 
HETATM   18  C   LIG     1      23.236  22.706  21.654  1.00  0.00     0.001 A 
HETATM   19  C   LIG     1      22.918  21.541  20.970  1.00  0.00     0.001 A 
HETATM   20  C   LIG     1      23.687  21.134  19.882  1.00  0.00     0.013 A 
ENDROOT
TORSDOF 0
ENDMDL
