REMARK  0 active torsions:
REMARK  status: ('A' for Active; 'I' for Inactive)
ROOT
HETATM    1  C   LIG     1      -3.150   0.468  -0.302  1.00  0.00     0.049 C 
HETATM    2  C   LIG     1      -1.851  -0.286  -0.155  1.00  0.00    -0.051 A 
HETATM    3  C   LIG     1      -0.599   0.381  -0.069  1.00  0.00    -0.019 A 
HETATM    4  C   LIG     1      -0.513   1.787  -0.117  1.00  0.00     0.013 A 
HETATM    5  C   LIG     1       0.721   2.427  -0.031  1.00  0.00     0.001 A 
HETATM    6  C   LIG     1       1.891   1.687   0.103  1.00  0.00     0.007 A 
HETATM    7  C   LIG     1       1.851   0.286   0.155  1.00  0.00    -0.051 A 
HETATM    8  C   LIG     1       3.150  -0.468   0.302  1.00  0.00     0.049 C 
HETATM    9  C   LIG     1       0.599  -0.381   0.069  1.00  0.00    -0.019 A 
HETATM   10  C   LIG     1       0.513  -1.787   0.117  1.00  0.00     0.013 A 
HETATM   11  C   LIG     1      -0.721  -2.428   0.031  1.00  0.00     0.001 A 
HETATM   12  C   LIG     1      -1.891  -1.687  -0.103  1.00  0.00     0.007 A 
ENDROOT
TORSDOF 0
