MODEL 1
REMARK VINA RESULT:      -7.8      0.000      0.000
REMARK  0 active torsions:
REMARK  status: ('A' for Active; 'I' for Inactive)
ROOT
HETATM    1  C   LIG     1      17.187  34.559  26.027  1.00  0.00     0.049 C 
HETATM    2  C   LIG     1      17.386  35.906  25.375  1.00  0.00    -0.051 A 
HETATM    3  C   LIG     1      17.307  36.079  23.967  1.00  0.00    -0.019 A 
HETATM    4  C   LIG     1      17.037  34.994  23.109  1.00  0.00     0.013 A 
HETATM    5  C   LIG     1      16.962  35.179  21.730  1.00  0.00     0.001 A 
HETATM    6  C   LIG     1      17.153  36.441  21.177  1.00  0.00     0.007 A 
HETATM    7  C   LIG     1      17.424  37.548  21.994  1.00  0.00    -0.051 A 
HETATM    8  C   LIG     1      17.623  38.895  21.342  1.00  0.00     0.049 C 
HETATM    9  C   LIG     1      17.503  37.375  23.402  1.00  0.00    -0.019 A 
HETATM   10  C   LIG     1      17.773  38.460  24.260  1.00  0.00     0.013 A 
HETATM   11  C   LIG     1      17.849  38.276  25.639  1.00  0.00     0.001 A 
HETATM   12  C   LIG     1      17.657  37.013  26.192  1.00  0.00     0.007 A 
ENDROOT
TORSDOF 0
ENDMDL
MODEL 2
REMARK VINA RESULT:      -7.7      0.056      4.516
REMARK  0 active torsions:
REMARK  status: ('A' for Active; 'I' for Inactive)
ROOT
HETATM    1  C   LIG     1      17.556  38.922  21.398  1.00  0.00     0.049 C 
HETATM    2  C   LIG     1      17.385  37.568  22.043  1.00  0.00    -0.051 A 
HETATM    3  C   LIG     1      17.474  37.387  23.449  1.00  0.00    -0.019 A 
HETATM    4  C   LIG     1      17.727  38.472  24.313  1.00  0.00     0.013 A 
HETATM    5  C   LIG     1      17.810  38.279  25.690  1.00  0.00     0.001 A 
HETATM    6  C   LIG     1      17.646  37.011  26.236  1.00  0.00     0.007 A 
HETATM    7  C   LIG     1      17.393  35.904  25.413  1.00  0.00    -0.051 A 
HETATM    8  C   LIG     1      17.222  34.550  26.057  1.00  0.00     0.049 C 
HETATM    9  C   LIG     1      17.304  36.085  24.006  1.00  0.00    -0.019 A 
HETATM   10  C   LIG     1      17.052  35.000  23.142  1.00  0.00     0.013 A 
HETATM   11  C   LIG     1      16.968  35.192  21.765  1.00  0.00     0.001 A 
HETATM   12  C   LIG     1      17.132  36.461  21.219  1.00  0.00     0.007 A 
ENDROOT
TORSDOF 0
ENDMDL
MODEL 3
REMARK VINA RESULT:      -7.5      1.352      3.446
REMARK  0 active torsions:
REMARK  status: ('A' for Active; 'I' for Inactive)
ROOT
HETATM    1  C   LIG     1      17.195  38.109  24.972  1.00  0.00     0.049 C 
HETATM    2  C   LIG     1      17.268  37.314  23.692  1.00  0.00    -0.051 A 
HETATM    3  C   LIG     1      17.814  37.858  22.498  1.00  0.00    -0.019 A 
HETATM    4  C   LIG     1      18.315  39.174  22.455  1.00  0.00     0.013 A 
HETATM    5  C   LIG     1      18.847  39.694  21.278  1.00  0.00     0.001 A 
HETATM    6  C   LIG     1      18.892  38.921  20.122  1.00  0.00     0.007 A 
HETATM    7  C   LIG     1      18.404  37.606  20.121  1.00  0.00    -0.051 A 
HETATM    8  C   LIG     1      18.477  36.811  18.840  1.00  0.00     0.049 C 
HETATM    9  C   LIG     1      17.858  37.062  21.315  1.00  0.00    -0.019 A 
HETATM   10  C   LIG     1      17.357  35.745  21.358  1.00  0.00     0.013 A 
HETATM   11  C   LIG     1      16.824  35.225  22.535  1.00  0.00     0.001 A 
HETATM   12  C   LIG     1      16.780  35.999  23.690  1.00  0.00     0.007 A 
ENDROOT
TORSDOF 0
ENDMDL
MODEL 4
REMARK VINA RESULT:      -7.5      1.377      4.038
REMARK  0 active torsions:
REMARK  status: ('A' for Active; 'I' for Inactive)
ROOT
HETATM    1  C   LIG     1      18.592  36.783  18.806  1.00  0.00     0.049 C 
HETATM    2  C   LIG     1      18.449  37.568  20.087  1.00  0.00    -0.051 A 
HETATM    3  C   LIG     1      17.866  37.004  21.254  1.00  0.00    -0.019 A 
HETATM    4  C   LIG     1      17.391  35.677  21.268  1.00  0.00     0.013 A 
HETATM    5  C   LIG     1      16.823  35.138  22.420  1.00  0.00     0.001 A 
HETATM    6  C   LIG     1      16.713  35.902  23.576  1.00  0.00     0.007 A 
HETATM    7  C   LIG     1      17.173  37.227  23.606  1.00  0.00    -0.051 A 
HETATM    8  C   LIG     1      17.030  38.012  24.887  1.00  0.00     0.049 C 
HETATM    9  C   LIG     1      17.756  37.791  22.439  1.00  0.00    -0.019 A 
HETATM   10  C   LIG     1      18.230  39.118  22.425  1.00  0.00     0.013 A 
HETATM   11  C   LIG     1      18.799  39.658  21.273  1.00  0.00     0.001 A 
HETATM   12  C   LIG     1      18.908  38.893  20.117  1.00  0.00     0.007 A 
ENDROOT
TORSDOF 0
ENDMDL
MODEL 5
REMARK VINA RESULT:      -6.6      0.843      2.778
REMARK  0 active torsions:
REMARK  status: ('A' for Active; 'I' for Inactive)
ROOT
HETATM    1  C   LIG     1      17.643  38.571  26.376  1.00  0.00     0.049 C 
HETATM    2  C   LIG     1      17.504  37.277  25.611  1.00  0.00    -0.051 A 
HETATM    3  C   LIG     1      17.290  37.252  24.207  1.00  0.00    -0.019 A 
HETATM    4  C   LIG     1      17.198  38.442  23.458  1.00  0.00     0.013 A 
HETATM    5  C   LIG     1      16.988  38.402  22.082  1.00  0.00     0.001 A 
HETATM    6  C   LIG     1      16.865  37.183  21.423  1.00  0.00     0.007 A 
HETATM    7  C   LIG     1      16.951  35.975  22.129  1.00  0.00    -0.051 A 
HETATM    8  C   LIG     1      16.812  34.681  21.365  1.00  0.00     0.049 C 
HETATM    9  C   LIG     1      17.165  36.000  23.534  1.00  0.00    -0.019 A 
HETATM   10  C   LIG     1      17.257  34.809  24.282  1.00  0.00     0.013 A 
HETATM   11  C   LIG     1      17.467  34.849  25.659  1.00  0.00     0.001 A 
HETATM   12  C   LIG     1      17.589  36.068  26.318  1.00  0.00     0.007 A 
ENDROOT
TORSDOF 0
ENDMDL
MODEL 6
REMARK VINA RESULT:      -6.6      0.836      3.581
REMARK  0 active torsions:
REMARK  status: ('A' for Active; 'I' for Inactive)
ROOT
HETATM    1  C   LIG     1      16.826  34.751  21.287  1.00  0.00     0.049 C 
HETATM    2  C   LIG     1      16.974  36.030  22.074  1.00  0.00    -0.051 A 
HETATM    3  C   LIG     1      17.175  36.029  23.481  1.00  0.00    -0.019 A 
HETATM    4  C   LIG     1      17.247  34.824  24.210  1.00  0.00     0.013 A 
HETATM    5  C   LIG     1      17.445  34.839  25.589  1.00  0.00     0.001 A 
HETATM    6  C   LIG     1      17.574  36.045  26.270  1.00  0.00     0.007 A 
HETATM    7  C   LIG     1      17.509  37.266  25.583  1.00  0.00    -0.051 A 
HETATM    8  C   LIG     1      17.656  38.545  26.371  1.00  0.00     0.049 C 
HETATM    9  C   LIG     1      17.308  37.267  24.177  1.00  0.00    -0.019 A 
HETATM   10  C   LIG     1      17.236  38.471  23.448  1.00  0.00     0.013 A 
HETATM   11  C   LIG     1      17.037  38.458  22.069  1.00  0.00     0.001 A 
HETATM   12  C   LIG     1      16.908  37.251  21.388  1.00  0.00     0.007 A 
ENDROOT
TORSDOF 0
ENDMDL
MODEL 7
REMARK VINA RESULT:      -6.5      2.592      3.536
REMARK  0 active torsions:
REMARK  status: ('A' for Active; 'I' for Inactive)
ROOT
HETATM    1  C   LIG     1      16.041  34.511  20.528  1.00  0.00     0.049 C 
HETATM    2  C   LIG     1      16.280  35.844  21.194  1.00  0.00    -0.051 A 
HETATM    3  C   LIG     1      17.365  36.685  20.828  1.00  0.00    -0.019 A 
HETATM    4  C   LIG     1      18.274  36.310  19.818  1.00  0.00     0.013 A 
HETATM    5  C   LIG     1      19.333  37.146  19.470  1.00  0.00     0.001 A 
HETATM    6  C   LIG     1      19.511  38.365  20.115  1.00  0.00     0.007 A 
HETATM    7  C   LIG     1      18.629  38.777  21.125  1.00  0.00    -0.051 A 
HETATM    8  C   LIG     1      18.868  40.110  21.791  1.00  0.00     0.049 C 
HETATM    9  C   LIG     1      17.544  37.935  21.491  1.00  0.00    -0.019 A 
HETATM   10  C   LIG     1      16.635  38.310  22.501  1.00  0.00     0.013 A 
HETATM   11  C   LIG     1      15.575  37.475  22.850  1.00  0.00     0.001 A 
HETATM   12  C   LIG     1      15.398  36.255  22.205  1.00  0.00     0.007 A 
ENDROOT
TORSDOF 0
ENDMDL
MODEL 8
REMARK VINA RESULT:      -6.5      2.587      4.632
REMARK  0 active torsions:
REMARK  status: ('A' for Active; 'I' for Inactive)
ROOT
HETATM    1  C   LIG     1      18.914  40.093  21.749  1.00  0.00     0.049 C 
HETATM    2  C   LIG     1      18.645  38.759  21.097  1.00  0.00    -0.051 A 
HETATM    3  C   LIG     1      17.551  37.939  21.484  1.00  0.00    -0.019 A 
HETATM    4  C   LIG     1      16.661  38.336  22.502  1.00  0.00     0.013 A 
HETATM    5  C   LIG     1      15.593  37.522  22.870  1.00  0.00     0.001 A 
HETATM    6  C   LIG     1      15.387  36.300  22.239  1.00  0.00     0.007 A 
HETATM    7  C   LIG     1      16.249  35.866  21.220  1.00  0.00    -0.051 A 
HETATM    8  C   LIG     1      15.980  34.532  20.568  1.00  0.00     0.049 C 
HETATM    9  C   LIG     1      17.343  36.686  20.833  1.00  0.00    -0.019 A 
HETATM   10  C   LIG     1      18.233  36.289  19.815  1.00  0.00     0.013 A 
HETATM   11  C   LIG     1      19.301  37.103  19.446  1.00  0.00     0.001 A 
HETATM   12  C   LIG     1      19.506  38.325  20.078  1.00  0.00     0.007 A 
ENDROOT
TORSDOF 0
ENDMDL
MODEL 9
REMARK VINA RESULT:      -6.4      1.424      4.350
REMARK  0 active torsions:
REMARK  status: ('A' for Active; 'I' for Inactive)
ROOT
HETATM    1  C   LIG     1      17.948  36.413  18.989  1.00  0.00     0.049 C 
HETATM    2  C   LIG     1      17.517  36.278  20.429  1.00  0.00    -0.051 A 
HETATM    3  C   LIG     1      17.765  37.297  21.388  1.00  0.00    -0.019 A 
HETATM    4  C   LIG     1      18.429  38.489  21.035  1.00  0.00     0.013 A 
HETATM    5  C   LIG     1      18.665  39.480  21.985  1.00  0.00     0.001 A 
HETATM    6  C   LIG     1      18.249  39.308  23.301  1.00  0.00     0.007 A 
HETATM    7  C   LIG     1      17.584  38.137  23.695  1.00  0.00    -0.051 A 
HETATM    8  C   LIG     1      17.152  38.003  25.135  1.00  0.00     0.049 C 
HETATM    9  C   LIG     1      17.335  37.118  22.736  1.00  0.00    -0.019 A 
HETATM   10  C   LIG     1      16.671  35.926  23.089  1.00  0.00     0.013 A 
HETATM   11  C   LIG     1      16.435  34.935  22.139  1.00  0.00     0.001 A 
HETATM   12  C   LIG     1      16.852  35.108  20.823  1.00  0.00     0.007 A 
ENDROOT
TORSDOF 0
ENDMDL
MODEL 10
REMARK VINA RESULT:      -6.3      7.644     10.290
REMARK  0 active torsions:
REMARK  status: ('A' for Active; 'I' for Inactive)
ROOT
HETATM    1  C   LIG     1      15.005  34.372  17.472  1.00  0.00     0.049 C 
HETATM    2  C   LIG     1      15.496  33.450  16.383  1.00  0.00    -0.051 A 
HETATM    3  C   LIG     1      14.798  32.264  16.028  1.00  0.00    -0.019 A 
HETATM    4  C   LIG     1      13.606  31.892  16.683  1.00  0.00     0.013 A 
HETATM    5  C   LIG     1      12.932  30.727  16.325  1.00  0.00     0.001 A 
HETATM    6  C   LIG     1      13.426  29.910  15.314  1.00  0.00     0.007 A 
HETATM    7  C   LIG     1      14.609  30.242  14.637  1.00  0.00    -0.051 A 
HETATM    8  C   LIG     1      15.100  29.320  13.548  1.00  0.00     0.049 C 
HETATM    9  C   LIG     1      15.307  31.428  14.991  1.00  0.00    -0.019 A 
HETATM   10  C   LIG     1      16.499  31.799  14.337  1.00  0.00     0.013 A 
HETATM   11  C   LIG     1      17.174  32.964  14.694  1.00  0.00     0.001 A 
HETATM   12  C   LIG     1      16.679  33.782  15.705  1.00  0.00     0.007 A 
ENDROOT
TORSDOF 0
ENDMDL
MODEL 11
REMARK VINA RESULT:      -6.3      1.401      2.603
REMARK  0 active torsions:
REMARK  status: ('A' for Active; 'I' for Inactive)
ROOT
HETATM    1  C   LIG     1      17.157  37.876  25.205  1.00  0.00     0.049 C 
HETATM    2  C   LIG     1      17.621  38.051  23.780  1.00  0.00    -0.051 A 
HETATM    3  C   LIG     1      17.356  37.080  22.777  1.00  0.00    -0.019 A 
HETATM    4  C   LIG     1      16.641  35.901  23.070  1.00  0.00     0.013 A 
HETATM    5  C   LIG     1      16.388  34.958  22.076  1.00  0.00     0.001 A 
HETATM    6  C   LIG     1      16.838  35.165  20.777  1.00  0.00     0.007 A 
HETATM    7  C   LIG     1      17.553  36.324  20.442  1.00  0.00    -0.051 A 
HETATM    8  C   LIG     1      18.017  36.499  19.017  1.00  0.00     0.049 C 
HETATM    9  C   LIG     1      17.818  37.295  21.445  1.00  0.00    -0.019 A 
HETATM   10  C   LIG     1      18.533  38.474  21.152  1.00  0.00     0.013 A 
HETATM   11  C   LIG     1      18.787  39.418  22.145  1.00  0.00     0.001 A 
HETATM   12  C   LIG     1      18.336  39.210  23.445  1.00  0.00     0.007 A 
ENDROOT
TORSDOF 0
ENDMDL
MODEL 12
REMARK VINA RESULT:      -6.2      7.983     10.458
REMARK  0 active torsions:
REMARK  status: ('A' for Active; 'I' for Inactive)
ROOT
HETATM    1  C   LIG     1      12.676  30.437  16.424  1.00  0.00     0.049 C 
HETATM    2  C   LIG     1      13.866  30.702  15.534  1.00  0.00    -0.051 A 
HETATM    3  C   LIG     1      14.702  31.837  15.712  1.00  0.00    -0.019 A 
HETATM    4  C   LIG     1      14.457  32.774  16.737  1.00  0.00     0.013 A 
HETATM    5  C   LIG     1      15.286  33.881  16.900  1.00  0.00     0.001 A 
HETATM    6  C   LIG     1      16.370  34.081  16.052  1.00  0.00     0.007 A 
HETATM    7  C   LIG     1      16.650  33.174  15.020  1.00  0.00    -0.051 A 
HETATM    8  C   LIG     1      17.839  33.438  14.129  1.00  0.00     0.049 C 
HETATM    9  C   LIG     1      15.814  32.039  14.841  1.00  0.00    -0.019 A 
HETATM   10  C   LIG     1      16.058  31.102  13.817  1.00  0.00     0.013 A 
HETATM   11  C   LIG     1      15.230  29.994  13.653  1.00  0.00     0.001 A 
HETATM   12  C   LIG     1      14.146  29.794  14.502  1.00  0.00     0.007 A 
ENDROOT
TORSDOF 0
ENDMDL
MODEL 13
REMARK VINA RESULT:      -6.2      7.969     10.360
REMARK  0 active torsions:
REMARK  status: ('A' for Active; 'I' for Inactive)
ROOT
HETATM    1  C   LIG     1      17.827  33.453  14.130  1.00  0.00     0.049 C 
HETATM    2  C   LIG     1      16.641  33.186  15.025  1.00  0.00    -0.051 A 
HETATM    3  C   LIG     1      15.802  32.053  14.844  1.00  0.00    -0.019 A 
HETATM    4  C   LIG     1      16.041  31.121  13.815  1.00  0.00     0.013 A 
HETATM    5  C   LIG     1      15.211  30.015  13.650  1.00  0.00     0.001 A 
HETATM    6  C   LIG     1      14.129  29.813  14.500  1.00  0.00     0.007 A 
HETATM    7  C   LIG     1      13.854  30.717  15.538  1.00  0.00    -0.051 A 
HETATM    8  C   LIG     1      12.668  30.450  16.432  1.00  0.00     0.049 C 
HETATM    9  C   LIG     1      14.693  31.849  15.718  1.00  0.00    -0.019 A 
HETATM   10  C   LIG     1      14.454  32.782  16.748  1.00  0.00     0.013 A 
HETATM   11  C   LIG     1      15.284  33.888  16.913  1.00  0.00     0.001 A 
HETATM   12  C   LIG     1      16.367  34.089  16.062  1.00  0.00     0.007 A 
ENDROOT
TORSDOF 0
ENDMDL
MODEL 14
REMARK VINA RESULT:      -6.0      1.696      4.947
REMARK  0 active torsions:
REMARK  status: ('A' for Active; 'I' for Inactive)
ROOT
HETATM    1  C   LIG     1      19.148  40.102  20.286  1.00  0.00     0.049 C 
HETATM    2  C   LIG     1      18.650  38.679  20.344  1.00  0.00    -0.051 A 
HETATM    3  C   LIG     1      17.988  38.159  21.489  1.00  0.00    -0.019 A 
HETATM    4  C   LIG     1      17.764  38.955  22.631  1.00  0.00     0.013 A 
HETATM    5  C   LIG     1      17.114  38.432  23.746  1.00  0.00     0.001 A 
HETATM    6  C   LIG     1      16.674  37.112  23.751  1.00  0.00     0.007 A 
HETATM    7  C   LIG     1      16.876  36.285  22.636  1.00  0.00    -0.051 A 
HETATM    8  C   LIG     1      16.378  34.862  22.694  1.00  0.00     0.049 C 
HETATM    9  C   LIG     1      17.538  36.805  21.491  1.00  0.00    -0.019 A 
HETATM   10  C   LIG     1      17.761  36.009  20.349  1.00  0.00     0.013 A 
HETATM   11  C   LIG     1      18.412  36.532  19.234  1.00  0.00     0.001 A 
HETATM   12  C   LIG     1      18.852  37.852  19.230  1.00  0.00     0.007 A 
ENDROOT
TORSDOF 0
ENDMDL
MODEL 15
REMARK VINA RESULT:      -5.9      8.320     10.718
REMARK  0 active torsions:
REMARK  status: ('A' for Active; 'I' for Inactive)
ROOT
HETATM    1  C   LIG     1      17.037  34.397  15.964  1.00  0.00     0.049 C 
HETATM    2  C   LIG     1      16.493  33.253  15.143  1.00  0.00    -0.051 A 
HETATM    3  C   LIG     1      15.445  32.418  15.617  1.00  0.00    -0.019 A 
HETATM    4  C   LIG     1      14.861  32.623  16.884  1.00  0.00     0.013 A 
HETATM    5  C   LIG     1      13.834  31.798  17.334  1.00  0.00     0.001 A 
HETATM    6  C   LIG     1      13.367  30.755  16.541  1.00  0.00     0.007 A 
HETATM    7  C   LIG     1      13.920  30.516  15.274  1.00  0.00    -0.051 A 
HETATM    8  C   LIG     1      13.376  29.373  14.453  1.00  0.00     0.049 C 
HETATM    9  C   LIG     1      14.968  31.351  14.800  1.00  0.00    -0.019 A 
HETATM   10  C   LIG     1      15.552  31.146  13.534  1.00  0.00     0.013 A 
HETATM   11  C   LIG     1      16.580  31.971  13.082  1.00  0.00     0.001 A 
HETATM   12  C   LIG     1      17.046  33.014  13.877  1.00  0.00     0.007 A 
ENDROOT
TORSDOF 0
ENDMDL
MODEL 16
REMARK VINA RESULT:      -5.9      7.830      9.898
REMARK  0 active torsions:
REMARK  status: ('A' for Active; 'I' for Inactive)
ROOT
HETATM    1  C   LIG     1      12.835  30.079  16.308  1.00  0.00     0.049 C 
HETATM    2  C   LIG     1      13.878  31.166  16.408  1.00  0.00    -0.051 A 
HETATM    3  C   LIG     1      14.788  31.435  15.350  1.00  0.00    -0.019 A 
HETATM    4  C   LIG     1      14.759  30.693  14.152  1.00  0.00     0.013 A 
HETATM    5  C   LIG     1      15.658  30.968  13.124  1.00  0.00     0.001 A 
HETATM    6  C   LIG     1      16.601  31.981  13.264  1.00  0.00     0.007 A 
HETATM    7  C   LIG     1      16.665  32.743  14.440  1.00  0.00    -0.051 A 
HETATM    8  C   LIG     1      17.707  33.830  14.540  1.00  0.00     0.049 C 
HETATM    9  C   LIG     1      15.754  32.474  15.497  1.00  0.00    -0.019 A 
HETATM   10  C   LIG     1      15.783  33.215  16.696  1.00  0.00     0.013 A 
HETATM   11  C   LIG     1      14.885  32.941  17.725  1.00  0.00     0.001 A 
HETATM   12  C   LIG     1      13.941  31.928  17.583  1.00  0.00     0.007 A 
ENDROOT
TORSDOF 0
ENDMDL
MODEL 17
REMARK VINA RESULT:      -5.8      8.030     10.777
REMARK  0 active torsions:
REMARK  status: ('A' for Active; 'I' for Inactive)
ROOT
HETATM    1  C   LIG     1      13.578  28.710  14.164  1.00  0.00     0.049 C 
HETATM    2  C   LIG     1      14.441  29.945  14.250  1.00  0.00    -0.051 A 
HETATM    3  C   LIG     1      14.358  30.846  15.346  1.00  0.00    -0.019 A 
HETATM    4  C   LIG     1      13.461  30.626  16.410  1.00  0.00     0.013 A 
HETATM    5  C   LIG     1      13.391  31.517  17.478  1.00  0.00     0.001 A 
HETATM    6  C   LIG     1      14.208  32.643  17.511  1.00  0.00     0.007 A 
HETATM    7  C   LIG     1      15.115  32.900  16.473  1.00  0.00    -0.051 A 
HETATM    8  C   LIG     1      15.978  34.136  16.559  1.00  0.00     0.049 C 
HETATM    9  C   LIG     1      15.198  31.999  15.377  1.00  0.00    -0.019 A 
HETATM   10  C   LIG     1      16.095  32.220  14.313  1.00  0.00     0.013 A 
HETATM   11  C   LIG     1      16.165  31.329  13.244  1.00  0.00     0.001 A 
HETATM   12  C   LIG     1      15.348  30.203  13.212  1.00  0.00     0.007 A 
ENDROOT
TORSDOF 0
ENDMDL
MODEL 18
REMARK VINA RESULT:      -5.6      2.261      3.107
REMARK  0 active torsions:
REMARK  status: ('A' for Active; 'I' for Inactive)
ROOT
HETATM    1  C   LIG     1      15.552  36.662  22.906  1.00  0.00     0.049 C 
HETATM    2  C   LIG     1      16.700  37.563  22.521  1.00  0.00    -0.051 A 
HETATM    3  C   LIG     1      17.433  37.376  21.317  1.00  0.00    -0.019 A 
HETATM    4  C   LIG     1      17.118  36.333  20.423  1.00  0.00     0.013 A 
HETATM    5  C   LIG     1      17.845  36.162  19.247  1.00  0.00     0.001 A 
HETATM    6  C   LIG     1      18.895  37.020  18.936  1.00  0.00     0.007 A 
HETATM    7  C   LIG     1      19.242  38.070  19.798  1.00  0.00    -0.051 A 
HETATM    8  C   LIG     1      20.389  38.971  19.413  1.00  0.00     0.049 C 
HETATM    9  C   LIG     1      18.509  38.257  21.002  1.00  0.00    -0.019 A 
HETATM   10  C   LIG     1      18.823  39.300  21.896  1.00  0.00     0.013 A 
HETATM   11  C   LIG     1      18.097  39.472  23.073  1.00  0.00     0.001 A 
HETATM   12  C   LIG     1      17.046  38.614  23.383  1.00  0.00     0.007 A 
ENDROOT
TORSDOF 0
ENDMDL
MODEL 19
REMARK VINA RESULT:      -5.5      1.759      3.954
REMARK  0 active torsions:
REMARK  status: ('A' for Active; 'I' for Inactive)
ROOT
HETATM    1  C   LIG     1      15.153  34.537  21.492  1.00  0.00     0.049 C 
HETATM    2  C   LIG     1      16.212  35.539  21.103  1.00  0.00    -0.051 A 
HETATM    3  C   LIG     1      16.684  36.525  22.011  1.00  0.00    -0.019 A 
HETATM    4  C   LIG     1      16.181  36.613  23.324  1.00  0.00     0.013 A 
HETATM    5  C   LIG     1      16.653  37.585  24.203  1.00  0.00     0.001 A 
HETATM    6  C   LIG     1      17.631  38.487  23.797  1.00  0.00     0.007 A 
HETATM    7  C   LIG     1      18.159  38.436  22.499  1.00  0.00    -0.051 A 
HETATM    8  C   LIG     1      19.218  39.438  22.110  1.00  0.00     0.049 C 
HETATM    9  C   LIG     1      17.687  37.449  21.591  1.00  0.00    -0.019 A 
HETATM   10  C   LIG     1      18.190  37.361  20.277  1.00  0.00     0.013 A 
HETATM   11  C   LIG     1      17.718  36.390  19.398  1.00  0.00     0.001 A 
HETATM   12  C   LIG     1      16.740  35.487  19.805  1.00  0.00     0.007 A 
ENDROOT
TORSDOF 0
ENDMDL
MODEL 20
REMARK VINA RESULT:      -4.9      0.892      3.397
REMARK  0 active torsions:
REMARK  status: ('A' for Active; 'I' for Inactive)
ROOT
HETATM    1  C   LIG     1      16.892  39.306  21.994  1.00  0.00     0.049 C 
HETATM    2  C   LIG     1      17.100  38.646  23.335  1.00  0.00    -0.051 A 
HETATM    3  C   LIG     1      17.132  37.232  23.481  1.00  0.00    -0.019 A 
HETATM    4  C   LIG     1      16.972  36.377  22.372  1.00  0.00     0.013 A 
HETATM    5  C   LIG     1      17.007  34.994  22.531  1.00  0.00     0.001 A 
HETATM    6  C   LIG     1      17.200  34.433  23.789  1.00  0.00     0.007 A 
HETATM    7  C   LIG     1      17.364  35.247  24.919  1.00  0.00    -0.051 A 
HETATM    8  C   LIG     1      17.572  34.587  26.260  1.00  0.00     0.049 C 
HETATM    9  C   LIG     1      17.331  36.661  24.773  1.00  0.00    -0.019 A 
HETATM   10  C   LIG     1      17.492  37.516  25.881  1.00  0.00     0.013 A 
HETATM   11  C   LIG     1      17.457  38.900  25.724  1.00  0.00     0.001 A 
HETATM   12  C   LIG     1      17.264  39.460  24.465  1.00  0.00     0.007 A 
ENDROOT
TORSDOF 0
ENDMDL
