REMARK  0 active torsions:
REMARK  status: ('A' for Active; 'I' for Inactive)
ROOT
HETATM    1  C   LIG     1       3.056   0.069  -0.367  1.00  0.00     0.049 C 
HETATM    2  C   LIG     1       1.620  -0.376  -0.243  1.00  0.00    -0.051 A 
HETATM    3  C   LIG     1       0.566   0.544  -0.006  1.00  0.00    -0.019 A 
HETATM    4  C   LIG     1       0.815   1.928   0.126  1.00  0.00     0.013 A 
HETATM    5  C   LIG     1      -0.230   2.822   0.358  1.00  0.00     0.001 A 
HETATM    6  C   LIG     1      -1.537   2.359   0.465  1.00  0.00     0.001 A 
HETATM    7  C   LIG     1      -1.813   0.998   0.339  1.00  0.00     0.013 A 
HETATM    8  C   LIG     1      -0.775   0.069   0.103  1.00  0.00    -0.019 A 
HETATM    9  C   LIG     1      -1.042  -1.318  -0.026  1.00  0.00    -0.051 A 
HETATM   10  C   LIG     1      -2.439  -1.877   0.080  1.00  0.00     0.049 C 
HETATM   11  C   LIG     1       0.019  -2.203  -0.260  1.00  0.00     0.008 A 
HETATM   12  C   LIG     1       1.326  -1.740  -0.366  1.00  0.00     0.008 A 
ENDROOT
TORSDOF 0
