MODEL 1
REMARK VINA RESULT:      -7.4      0.000      0.000
REMARK  0 active torsions:
REMARK  status: ('A' for Active; 'I' for Inactive)
ROOT
HETATM    1  C   LIG     1      17.958  39.570  22.425  1.00  0.00     0.049 C 
HETATM    2  C   LIG     1      17.761  38.326  23.255  1.00  0.00    -0.051 A 
HETATM    3  C   LIG     1      17.355  37.095  22.679  1.00  0.00    -0.019 A 
HETATM    4  C   LIG     1      17.114  36.977  21.292  1.00  0.00     0.013 A 
HETATM    5  C   LIG     1      16.716  35.760  20.738  1.00  0.00     0.001 A 
HETATM    6  C   LIG     1      16.548  34.643  21.549  1.00  0.00     0.001 A 
HETATM    7  C   LIG     1      16.778  34.730  22.921  1.00  0.00     0.013 A 
HETATM    8  C   LIG     1      17.183  35.948  23.510  1.00  0.00    -0.019 A 
HETATM    9  C   LIG     1      17.420  36.050  24.905  1.00  0.00    -0.051 A 
HETATM   10  C   LIG     1      17.255  34.872  25.833  1.00  0.00     0.049 C 
HETATM   11  C   LIG     1      17.821  37.279  25.446  1.00  0.00     0.008 A 
HETATM   12  C   LIG     1      17.988  38.396  24.635  1.00  0.00     0.008 A 
ENDROOT
TORSDOF 0
ENDMDL
MODEL 2
REMARK VINA RESULT:      -7.4      0.144      3.055
REMARK  0 active torsions:
REMARK  status: ('A' for Active; 'I' for Inactive)
ROOT
HETATM    1  C   LIG     1      17.218  34.907  25.746  1.00  0.00     0.049 C 
HETATM    2  C   LIG     1      17.430  36.060  24.797  1.00  0.00    -0.051 A 
HETATM    3  C   LIG     1      17.187  35.941  23.404  1.00  0.00    -0.019 A 
HETATM    4  C   LIG     1      16.734  34.729  22.838  1.00  0.00     0.013 A 
HETATM    5  C   LIG     1      16.499  34.626  21.467  1.00  0.00     0.001 A 
HETATM    6  C   LIG     1      16.711  35.720  20.636  1.00  0.00     0.001 A 
HETATM    7  C   LIG     1      17.158  36.930  21.166  1.00  0.00     0.013 A 
HETATM    8  C   LIG     1      17.404  37.065  22.551  1.00  0.00    -0.019 A 
HETATM    9  C   LIG     1      17.860  38.289  23.103  1.00  0.00    -0.051 A 
HETATM   10  C   LIG     1      18.107  39.508  22.251  1.00  0.00     0.049 C 
HETATM   11  C   LIG     1      18.091  38.377  24.483  1.00  0.00     0.008 A 
HETATM   12  C   LIG     1      17.880  37.282  25.314  1.00  0.00     0.008 A 
ENDROOT
TORSDOF 0
ENDMDL
MODEL 3
REMARK VINA RESULT:      -7.4      1.386      2.570
REMARK  0 active torsions:
REMARK  status: ('A' for Active; 'I' for Inactive)
ROOT
HETATM    1  C   LIG     1      19.031  38.044  19.049  1.00  0.00     0.049 C 
HETATM    2  C   LIG     1      18.557  38.052  20.481  1.00  0.00    -0.051 A 
HETATM    3  C   LIG     1      17.718  37.032  21.000  1.00  0.00    -0.019 A 
HETATM    4  C   LIG     1      17.286  35.956  20.195  1.00  0.00     0.013 A 
HETATM    5  C   LIG     1      16.462  34.959  20.718  1.00  0.00     0.001 A 
HETATM    6  C   LIG     1      16.052  35.014  22.046  1.00  0.00     0.001 A 
HETATM    7  C   LIG     1      16.464  36.065  22.865  1.00  0.00     0.013 A 
HETATM    8  C   LIG     1      17.298  37.089  22.363  1.00  0.00    -0.019 A 
HETATM    9  C   LIG     1      17.723  38.164  23.185  1.00  0.00    -0.051 A 
HETATM   10  C   LIG     1      17.311  38.275  24.632  1.00  0.00     0.049 C 
HETATM   11  C   LIG     1      18.551  39.157  22.644  1.00  0.00     0.008 A 
HETATM   12  C   LIG     1      18.960  39.102  21.316  1.00  0.00     0.008 A 
ENDROOT
TORSDOF 0
ENDMDL
MODEL 4
REMARK VINA RESULT:      -7.4      1.407      3.444
REMARK  0 active torsions:
REMARK  status: ('A' for Active; 'I' for Inactive)
ROOT
HETATM    1  C   LIG     1      17.221  38.219  24.630  1.00  0.00     0.049 C 
HETATM    2  C   LIG     1      17.660  38.144  23.189  1.00  0.00    -0.051 A 
HETATM    3  C   LIG     1      17.255  37.086  22.334  1.00  0.00    -0.019 A 
HETATM    4  C   LIG     1      16.417  36.048  22.796  1.00  0.00     0.013 A 
HETATM    5  C   LIG     1      16.026  35.014  21.946  1.00  0.00     0.001 A 
HETATM    6  C   LIG     1      16.460  34.992  20.625  1.00  0.00     0.001 A 
HETATM    7  C   LIG     1      17.288  36.004  20.140  1.00  0.00     0.013 A 
HETATM    8  C   LIG     1      17.700  37.064  20.978  1.00  0.00    -0.019 A 
HETATM    9  C   LIG     1      18.543  38.098  20.498  1.00  0.00    -0.051 A 
HETATM   10  C   LIG     1      19.045  38.127  19.076  1.00  0.00     0.049 C 
HETATM   11  C   LIG     1      18.927  39.130  21.365  1.00  0.00     0.008 A 
HETATM   12  C   LIG     1      18.493  39.152  22.686  1.00  0.00     0.008 A 
ENDROOT
TORSDOF 0
ENDMDL
MODEL 5
REMARK VINA RESULT:      -7.1      1.538      3.827
REMARK  0 active torsions:
REMARK  status: ('A' for Active; 'I' for Inactive)
ROOT
HETATM    1  C   LIG     1      19.602  39.337  20.185  1.00  0.00     0.049 C 
HETATM    2  C   LIG     1      18.697  38.153  20.420  1.00  0.00    -0.051 A 
HETATM    3  C   LIG     1      18.015  37.961  21.649  1.00  0.00    -0.019 A 
HETATM    4  C   LIG     1      18.154  38.875  22.717  1.00  0.00     0.013 A 
HETATM    5  C   LIG     1      17.477  38.675  23.920  1.00  0.00     0.001 A 
HETATM    6  C   LIG     1      16.655  37.566  24.085  1.00  0.00     0.001 A 
HETATM    7  C   LIG     1      16.499  36.646  23.048  1.00  0.00     0.013 A 
HETATM    8  C   LIG     1      17.171  36.823  21.818  1.00  0.00    -0.019 A 
HETATM    9  C   LIG     1      17.022  35.895  20.756  1.00  0.00    -0.051 A 
HETATM   10  C   LIG     1      16.143  34.675  20.878  1.00  0.00     0.049 C 
HETATM   11  C   LIG     1      17.707  36.111  19.554  1.00  0.00     0.008 A 
HETATM   12  C   LIG     1      18.530  37.219  19.389  1.00  0.00     0.008 A 
ENDROOT
TORSDOF 0
ENDMDL
MODEL 6
REMARK VINA RESULT:      -7.1      1.471      4.645
REMARK  0 active torsions:
REMARK  status: ('A' for Active; 'I' for Inactive)
ROOT
HETATM    1  C   LIG     1      16.058  34.648  21.128  1.00  0.00     0.049 C 
HETATM    2  C   LIG     1      16.946  35.854  20.950  1.00  0.00    -0.051 A 
HETATM    3  C   LIG     1      17.153  36.795  21.992  1.00  0.00    -0.019 A 
HETATM    4  C   LIG     1      16.532  36.645  23.251  1.00  0.00     0.013 A 
HETATM    5  C   LIG     1      16.744  37.577  24.267  1.00  0.00     0.001 A 
HETATM    6  C   LIG     1      17.572  38.673  24.050  1.00  0.00     0.001 A 
HETATM    7  C   LIG     1      18.199  38.847  22.817  1.00  0.00     0.013 A 
HETATM    8  C   LIG     1      18.004  37.919  21.769  1.00  0.00    -0.019 A 
HETATM    9  C   LIG     1      18.634  38.085  20.510  1.00  0.00    -0.051 A 
HETATM   10  C   LIG     1      19.543  39.253  20.218  1.00  0.00     0.049 C 
HETATM   11  C   LIG     1      18.411  37.139  19.500  1.00  0.00     0.008 A 
HETATM   12  C   LIG     1      17.582  36.044  19.717  1.00  0.00     0.008 A 
ENDROOT
TORSDOF 0
ENDMDL
MODEL 7
REMARK VINA RESULT:      -7.0      2.209      4.004
REMARK  0 active torsions:
REMARK  status: ('A' for Active; 'I' for Inactive)
ROOT
HETATM    1  C   LIG     1      16.294  34.692  20.422  1.00  0.00     0.049 C 
HETATM    2  C   LIG     1      16.510  36.002  21.138  1.00  0.00    -0.051 A 
HETATM    3  C   LIG     1      17.565  36.884  20.790  1.00  0.00    -0.019 A 
HETATM    4  C   LIG     1      18.468  36.574  19.750  1.00  0.00     0.013 A 
HETATM    5  C   LIG     1      19.501  37.451  19.417  1.00  0.00     0.001 A 
HETATM    6  C   LIG     1      19.656  38.646  20.111  1.00  0.00     0.001 A 
HETATM    7  C   LIG     1      18.779  38.979  21.143  1.00  0.00     0.013 A 
HETATM    8  C   LIG     1      17.723  38.111  21.502  1.00  0.00    -0.019 A 
HETATM    9  C   LIG     1      16.825  38.437  22.550  1.00  0.00    -0.051 A 
HETATM   10  C   LIG     1      16.944  39.719  23.335  1.00  0.00     0.049 C 
HETATM   11  C   LIG     1      15.792  37.546  22.871  1.00  0.00     0.008 A 
HETATM   12  C   LIG     1      15.638  36.350  22.178  1.00  0.00     0.008 A 
ENDROOT
TORSDOF 0
ENDMDL
MODEL 8
REMARK VINA RESULT:      -6.8      7.410     10.437
REMARK  0 active torsions:
REMARK  status: ('A' for Active; 'I' for Inactive)
ROOT
HETATM    1  C   LIG     1      13.421  29.227  14.353  1.00  0.00     0.049 C 
HETATM    2  C   LIG     1      14.427  30.347  14.448  1.00  0.00    -0.051 A 
HETATM    3  C   LIG     1      14.573  31.130  15.622  1.00  0.00    -0.019 A 
HETATM    4  C   LIG     1      13.777  30.894  16.765  1.00  0.00     0.013 A 
HETATM    5  C   LIG     1      13.931  31.670  17.914  1.00  0.00     0.001 A 
HETATM    6  C   LIG     1      14.873  32.692  17.948  1.00  0.00     0.001 A 
HETATM    7  C   LIG     1      15.674  32.947  16.835  1.00  0.00     0.013 A 
HETATM    8  C   LIG     1      15.541  32.177  15.658  1.00  0.00    -0.019 A 
HETATM    9  C   LIG     1      16.348  32.427  14.518  1.00  0.00    -0.051 A 
HETATM   10  C   LIG     1      17.387  33.521  14.498  1.00  0.00     0.049 C 
HETATM   11  C   LIG     1      16.182  31.638  13.372  1.00  0.00     0.008 A 
HETATM   12  C   LIG     1      15.238  30.617  13.338  1.00  0.00     0.008 A 
ENDROOT
TORSDOF 0
ENDMDL
MODEL 9
REMARK VINA RESULT:      -6.8      7.403     10.152
REMARK  0 active torsions:
REMARK  status: ('A' for Active; 'I' for Inactive)
ROOT
HETATM    1  C   LIG     1      17.426  33.494  14.449  1.00  0.00     0.049 C 
HETATM    2  C   LIG     1      16.374  32.413  14.482  1.00  0.00    -0.051 A 
HETATM    3  C   LIG     1      15.567  32.184  15.626  1.00  0.00    -0.019 A 
HETATM    4  C   LIG     1      15.712  32.964  16.795  1.00  0.00     0.013 A 
HETATM    5  C   LIG     1      14.911  32.730  17.912  1.00  0.00     0.001 A 
HETATM    6  C   LIG     1      13.956  31.719  17.890  1.00  0.00     0.001 A 
HETATM    7  C   LIG     1      13.790  30.933  16.750  1.00  0.00     0.013 A 
HETATM    8  C   LIG     1      14.586  31.148  15.603  1.00  0.00    -0.019 A 
HETATM    9  C   LIG     1      14.429  30.355  14.437  1.00  0.00    -0.051 A 
HETATM   10  C   LIG     1      13.410  29.246  14.355  1.00  0.00     0.049 C 
HETATM   11  C   LIG     1      15.241  30.604  13.322  1.00  0.00     0.008 A 
HETATM   12  C   LIG     1      16.196  31.614  13.345  1.00  0.00     0.008 A 
ENDROOT
TORSDOF 0
ENDMDL
MODEL 10
REMARK VINA RESULT:      -6.7      7.118      9.998
REMARK  0 active torsions:
REMARK  status: ('A' for Active; 'I' for Inactive)
ROOT
HETATM    1  C   LIG     1      13.418  29.383  14.268  1.00  0.00     0.049 C 
HETATM    2  C   LIG     1      13.925  30.442  15.214  1.00  0.00    -0.051 A 
HETATM    3  C   LIG     1      14.987  31.316  14.865  1.00  0.00    -0.019 A 
HETATM    4  C   LIG     1      15.622  31.233  13.606  1.00  0.00     0.013 A 
HETATM    5  C   LIG     1      16.665  32.098  13.274  1.00  0.00     0.001 A 
HETATM    6  C   LIG     1      17.095  33.057  14.185  1.00  0.00     0.001 A 
HETATM    7  C   LIG     1      16.487  33.163  15.435  1.00  0.00     0.013 A 
HETATM    8  C   LIG     1      15.428  32.300  15.798  1.00  0.00    -0.019 A 
HETATM    9  C   LIG     1      14.802  32.396  17.067  1.00  0.00    -0.051 A 
HETATM   10  C   LIG     1      15.226  33.417  18.094  1.00  0.00     0.049 C 
HETATM   11  C   LIG     1      13.755  31.520  17.385  1.00  0.00     0.008 A 
HETATM   12  C   LIG     1      13.325  30.561  16.475  1.00  0.00     0.008 A 
ENDROOT
TORSDOF 0
ENDMDL
MODEL 11
REMARK VINA RESULT:      -5.9      8.106      9.945
REMARK  0 active torsions:
REMARK  status: ('A' for Active; 'I' for Inactive)
ROOT
HETATM    1  C   LIG     1      17.499  32.931  14.860  1.00  0.00     0.049 C 
HETATM    2  C   LIG     1      16.144  32.552  15.404  1.00  0.00    -0.051 A 
HETATM    3  C   LIG     1      15.445  31.405  14.948  1.00  0.00    -0.019 A 
HETATM    4  C   LIG     1      15.990  30.560  13.956  1.00  0.00     0.013 A 
HETATM    5  C   LIG     1      15.293  29.434  13.517  1.00  0.00     0.001 A 
HETATM    6  C   LIG     1      14.045  29.130  14.051  1.00  0.00     0.001 A 
HETATM    7  C   LIG     1      13.482  29.947  15.031  1.00  0.00     0.013 A 
HETATM    8  C   LIG     1      14.165  31.093  15.496  1.00  0.00    -0.019 A 
HETATM    9  C   LIG     1      13.604  31.932  16.492  1.00  0.00    -0.051 A 
HETATM   10  C   LIG     1      12.255  31.652  17.108  1.00  0.00     0.049 C 
HETATM   11  C   LIG     1      14.317  33.059  16.924  1.00  0.00     0.008 A 
HETATM   12  C   LIG     1      15.564  33.363  16.389  1.00  0.00     0.008 A 
ENDROOT
TORSDOF 0
ENDMDL
MODEL 12
REMARK VINA RESULT:      -5.7      7.728     10.125
REMARK  0 active torsions:
REMARK  status: ('A' for Active; 'I' for Inactive)
ROOT
HETATM    1  C   LIG     1      14.236  32.383  17.810  1.00  0.00     0.049 C 
HETATM    2  C   LIG     1      15.071  32.542  16.564  1.00  0.00    -0.051 A 
HETATM    3  C   LIG     1      15.020  31.604  15.500  1.00  0.00    -0.019 A 
HETATM    4  C   LIG     1      14.178  30.471  15.559  1.00  0.00     0.013 A 
HETATM    5  C   LIG     1      14.136  29.558  14.506  1.00  0.00     0.001 A 
HETATM    6  C   LIG     1      14.928  29.751  13.379  1.00  0.00     0.001 A 
HETATM    7  C   LIG     1      15.768  30.860  13.293  1.00  0.00     0.013 A 
HETATM    8  C   LIG     1      15.831  31.803  14.343  1.00  0.00    -0.019 A 
HETATM    9  C   LIG     1      16.682  32.935  14.268  1.00  0.00    -0.051 A 
HETATM   10  C   LIG     1      17.562  33.196  13.071  1.00  0.00     0.049 C 
HETATM   11  C   LIG     1      16.712  33.844  15.334  1.00  0.00     0.008 A 
HETATM   12  C   LIG     1      15.921  33.650  16.461  1.00  0.00     0.008 A 
ENDROOT
TORSDOF 0
ENDMDL
MODEL 13
REMARK VINA RESULT:      -4.8     19.843     20.876
REMARK  0 active torsions:
REMARK  status: ('A' for Active; 'I' for Inactive)
ROOT
HETATM    1  C   LIG     1      12.361  18.373  14.378  1.00  0.00     0.049 C 
HETATM    2  C   LIG     1      13.831  18.284  14.702  1.00  0.00    -0.051 A 
HETATM    3  C   LIG     1      14.818  18.167  13.690  1.00  0.00    -0.019 A 
HETATM    4  C   LIG     1      14.466  18.127  12.322  1.00  0.00     0.013 A 
HETATM    5  C   LIG     1      15.446  18.012  11.336  1.00  0.00     0.001 A 
HETATM    6  C   LIG     1      16.789  17.933  11.690  1.00  0.00     0.001 A 
HETATM    7  C   LIG     1      17.166  17.969  13.031  1.00  0.00     0.013 A 
HETATM    8  C   LIG     1      16.196  18.086  14.052  1.00  0.00    -0.019 A 
HETATM    9  C   LIG     1      16.566  18.123  15.421  1.00  0.00    -0.051 A 
HETATM   10  C   LIG     1      18.006  18.042  15.862  1.00  0.00     0.049 C 
HETATM   11  C   LIG     1      15.569  18.240  16.399  1.00  0.00     0.008 A 
HETATM   12  C   LIG     1      14.227  18.318  16.046  1.00  0.00     0.008 A 
ENDROOT
TORSDOF 0
ENDMDL
MODEL 14
REMARK VINA RESULT:      -4.8     19.656     21.126
REMARK  0 active torsions:
REMARK  status: ('A' for Active; 'I' for Inactive)
ROOT
HETATM    1  C   LIG     1      11.857  18.312  14.125  1.00  0.00     0.049 C 
HETATM    2  C   LIG     1      13.290  18.216  13.662  1.00  0.00    -0.051 A 
HETATM    3  C   LIG     1      14.376  18.218  14.575  1.00  0.00    -0.019 A 
HETATM    4  C   LIG     1      14.164  18.311  15.969  1.00  0.00     0.013 A 
HETATM    5  C   LIG     1      15.240  18.311  16.855  1.00  0.00     0.001 A 
HETATM    6  C   LIG     1      16.543  18.221  16.376  1.00  0.00     0.001 A 
HETATM    7  C   LIG     1      16.782  18.128  15.005  1.00  0.00     0.013 A 
HETATM    8  C   LIG     1      15.712  18.125  14.083  1.00  0.00    -0.019 A 
HETATM    9  C   LIG     1      15.942  18.033  12.687  1.00  0.00    -0.051 A 
HETATM   10  C   LIG     1      17.332  17.933  12.110  1.00  0.00     0.049 C 
HETATM   11  C   LIG     1      14.850  18.033  11.809  1.00  0.00     0.008 A 
HETATM   12  C   LIG     1      13.547  18.124  12.289  1.00  0.00     0.008 A 
ENDROOT
TORSDOF 0
ENDMDL
