MODEL 1
REMARK VINA RESULT:      -8.7      0.000      0.000
REMARK  0 active torsions:
REMARK  status: ('A' for Active; 'I' for Inactive)
ROOT
HETATM    1  C   LIG     1      17.233  39.132  22.825  1.00  0.00     0.049 C 
HETATM    2  C   LIG     1      17.099  37.634  22.940  1.00  0.00    -0.050 A 
HETATM    3  C   LIG     1      17.410  36.946  24.140  1.00  0.00    -0.020 A 
HETATM    4  C   LIG     1      17.857  37.622  25.296  1.00  0.00     0.013 A 
HETATM    5  C   LIG     1      18.160  36.913  26.461  1.00  0.00     0.001 A 
HETATM    6  C   LIG     1      18.025  35.525  26.496  1.00  0.00     0.001 A 
HETATM    7  C   LIG     1      17.585  34.835  25.365  1.00  0.00     0.012 A 
HETATM    8  C   LIG     1      17.275  35.532  24.186  1.00  0.00    -0.025 A 
HETATM    9  C   LIG     1      16.833  34.832  23.056  1.00  0.00     0.019 A 
HETATM   10  C   LIG     1      16.509  35.514  21.878  1.00  0.00    -0.061 A 
HETATM   11  C   LIG     1      16.074  34.753  20.661  1.00  0.00     0.048 C 
HETATM   12  C   LIG     1      16.658  36.906  21.821  1.00  0.00     0.014 A 
ENDROOT
TORSDOF 0
ENDMDL
MODEL 2
REMARK VINA RESULT:      -8.5      0.917      2.875
REMARK  0 active torsions:
REMARK  status: ('A' for Active; 'I' for Inactive)
ROOT
HETATM    1  C   LIG     1      16.246  34.911  22.045  1.00  0.00     0.049 C 
HETATM    2  C   LIG     1      16.929  36.075  22.719  1.00  0.00    -0.050 A 
HETATM    3  C   LIG     1      17.340  36.017  24.075  1.00  0.00    -0.020 A 
HETATM    4  C   LIG     1      17.139  34.868  24.870  1.00  0.00     0.013 A 
HETATM    5  C   LIG     1      17.552  34.846  26.204  1.00  0.00     0.001 A 
HETATM    6  C   LIG     1      18.168  35.963  26.770  1.00  0.00     0.001 A 
HETATM    7  C   LIG     1      18.377  37.110  26.004  1.00  0.00     0.012 A 
HETATM    8  C   LIG     1      17.970  37.149  24.660  1.00  0.00    -0.025 A 
HETATM    9  C   LIG     1      18.184  38.305  23.897  1.00  0.00     0.019 A 
HETATM   10  C   LIG     1      17.794  38.353  22.555  1.00  0.00    -0.061 A 
HETATM   11  C   LIG     1      17.993  39.608  21.757  1.00  0.00     0.048 C 
HETATM   12  C   LIG     1      17.157  37.248  21.978  1.00  0.00     0.014 A 
ENDROOT
TORSDOF 0
ENDMDL
MODEL 3
REMARK VINA RESULT:      -8.2      2.104      5.047
REMARK  0 active torsions:
REMARK  status: ('A' for Active; 'I' for Inactive)
ROOT
HETATM    1  C   LIG     1      16.666  34.926  21.569  1.00  0.00     0.049 C 
HETATM    2  C   LIG     1      17.176  36.272  22.019  1.00  0.00    -0.050 A 
HETATM    3  C   LIG     1      17.879  37.137  21.143  1.00  0.00    -0.020 A 
HETATM    4  C   LIG     1      18.138  36.792  19.799  1.00  0.00     0.013 A 
HETATM    5  C   LIG     1      18.838  37.664  18.963  1.00  0.00     0.001 A 
HETATM    6  C   LIG     1      19.292  38.891  19.447  1.00  0.00     0.001 A 
HETATM    7  C   LIG     1      19.049  39.254  20.772  1.00  0.00     0.012 A 
HETATM    8  C   LIG     1      18.345  38.390  21.626  1.00  0.00    -0.025 A 
HETATM    9  C   LIG     1      18.104  38.762  22.955  1.00  0.00     0.019 A 
HETATM   10  C   LIG     1      17.394  37.916  23.813  1.00  0.00    -0.061 A 
HETATM   11  C   LIG     1      17.174  38.306  25.245  1.00  0.00     0.048 C 
HETATM   12  C   LIG     1      16.949  36.673  23.348  1.00  0.00     0.014 A 
ENDROOT
TORSDOF 0
ENDMDL
MODEL 4
REMARK VINA RESULT:      -8.1      2.644      4.170
REMARK  0 active torsions:
REMARK  status: ('A' for Active; 'I' for Inactive)
ROOT
HETATM    1  C   LIG     1      16.723  39.176  23.191  1.00  0.00     0.049 C 
HETATM    2  C   LIG     1      16.938  38.022  22.244  1.00  0.00    -0.050 A 
HETATM    3  C   LIG     1      17.976  38.032  21.277  1.00  0.00    -0.020 A 
HETATM    4  C   LIG     1      18.869  39.117  21.148  1.00  0.00     0.013 A 
HETATM    5  C   LIG     1      19.877  39.098  20.181  1.00  0.00     0.001 A 
HETATM    6  C   LIG     1      20.014  38.002  19.328  1.00  0.00     0.001 A 
HETATM    7  C   LIG     1      19.142  36.918  19.436  1.00  0.00     0.012 A 
HETATM    8  C   LIG     1      18.124  36.920  20.404  1.00  0.00    -0.025 A 
HETATM    9  C   LIG     1      17.254  35.826  20.507  1.00  0.00     0.019 A 
HETATM   10  C   LIG     1      16.243  35.811  21.473  1.00  0.00    -0.061 A 
HETATM   11  C   LIG     1      15.292  34.653  21.550  1.00  0.00     0.048 C 
HETATM   12  C   LIG     1      16.080  36.911  22.324  1.00  0.00     0.014 A 
ENDROOT
TORSDOF 0
ENDMDL
MODEL 5
REMARK VINA RESULT:      -7.2      2.616      4.301
REMARK  0 active torsions:
REMARK  status: ('A' for Active; 'I' for Inactive)
ROOT
HETATM    1  C   LIG     1      17.445  39.265  23.246  1.00  0.00     0.049 C 
HETATM    2  C   LIG     1      17.843  38.501  22.007  1.00  0.00    -0.050 A 
HETATM    3  C   LIG     1      17.152  37.334  21.595  1.00  0.00    -0.020 A 
HETATM    4  C   LIG     1      16.051  36.822  22.316  1.00  0.00     0.013 A 
HETATM    5  C   LIG     1      15.395  35.666  21.885  1.00  0.00     0.001 A 
HETATM    6  C   LIG     1      15.822  35.001  20.736  1.00  0.00     0.001 A 
HETATM    7  C   LIG     1      16.908  35.488  20.007  1.00  0.00     0.012 A 
HETATM    8  C   LIG     1      17.578  36.650  20.425  1.00  0.00    -0.025 A 
HETATM    9  C   LIG     1      18.667  37.133  19.687  1.00  0.00     0.019 A 
HETATM   10  C   LIG     1      19.336  38.295  20.085  1.00  0.00    -0.061 A 
HETATM   11  C   LIG     1      20.524  38.782  19.311  1.00  0.00     0.048 C 
HETATM   12  C   LIG     1      18.932  38.963  21.248  1.00  0.00     0.014 A 
ENDROOT
TORSDOF 0
ENDMDL
MODEL 6
REMARK VINA RESULT:      -7.1      1.070      4.051
REMARK  0 active torsions:
REMARK  status: ('A' for Active; 'I' for Inactive)
ROOT
HETATM    1  C   LIG     1      16.537  34.698  21.400  1.00  0.00     0.049 C 
HETATM    2  C   LIG     1      16.985  35.488  22.604  1.00  0.00    -0.050 A 
HETATM    3  C   LIG     1      17.417  36.834  22.497  1.00  0.00    -0.020 A 
HETATM    4  C   LIG     1      17.449  37.514  21.261  1.00  0.00     0.013 A 
HETATM    5  C   LIG     1      17.886  38.838  21.189  1.00  0.00     0.001 A 
HETATM    6  C   LIG     1      18.298  39.508  22.341  1.00  0.00     0.001 A 
HETATM    7  C   LIG     1      18.275  38.857  23.575  1.00  0.00     0.012 A 
HETATM    8  C   LIG     1      17.838  37.525  23.666  1.00  0.00    -0.025 A 
HETATM    9  C   LIG     1      17.816  36.879  24.909  1.00  0.00     0.019 A 
HETATM   10  C   LIG     1      17.372  35.557  25.016  1.00  0.00    -0.061 A 
HETATM   11  C   LIG     1      17.390  34.861  26.344  1.00  0.00     0.048 C 
HETATM   12  C   LIG     1      16.974  34.865  23.865  1.00  0.00     0.014 A 
ENDROOT
TORSDOF 0
ENDMDL
MODEL 7
REMARK VINA RESULT:      -7.0      1.397      4.098
REMARK  0 active torsions:
REMARK  status: ('A' for Active; 'I' for Inactive)
ROOT
HETATM    1  C   LIG     1      18.477  39.129  20.865  1.00  0.00     0.049 C 
HETATM    2  C   LIG     1      17.908  38.197  21.906  1.00  0.00    -0.050 A 
HETATM    3  C   LIG     1      17.302  36.963  21.554  1.00  0.00    -0.020 A 
HETATM    4  C   LIG     1      17.202  36.535  20.213  1.00  0.00     0.013 A 
HETATM    5  C   LIG     1      16.594  35.317  19.900  1.00  0.00     0.001 A 
HETATM    6  C   LIG     1      16.078  34.507  20.911  1.00  0.00     0.001 A 
HETATM    7  C   LIG     1      16.165  34.910  22.244  1.00  0.00     0.012 A 
HETATM    8  C   LIG     1      16.774  36.131  22.577  1.00  0.00    -0.025 A 
HETATM    9  C   LIG     1      16.859  36.527  23.918  1.00  0.00     0.019 A 
HETATM   10  C   LIG     1      17.472  37.735  24.265  1.00  0.00    -0.061 A 
HETATM   11  C   LIG     1      17.524  38.170  25.700  1.00  0.00     0.048 C 
HETATM   12  C   LIG     1      17.979  38.569  23.260  1.00  0.00     0.014 A 
ENDROOT
TORSDOF 0
ENDMDL
MODEL 8
REMARK VINA RESULT:      -6.6      8.355     10.602
REMARK  0 active torsions:
REMARK  status: ('A' for Active; 'I' for Inactive)
ROOT
HETATM    1  C   LIG     1      14.221  32.099  17.643  1.00  0.00     0.049 C 
HETATM    2  C   LIG     1      14.507  31.557  16.265  1.00  0.00    -0.050 A 
HETATM    3  C   LIG     1      15.488  32.137  15.421  1.00  0.00    -0.020 A 
HETATM    4  C   LIG     1      16.257  33.250  15.824  1.00  0.00     0.013 A 
HETATM    5  C   LIG     1      17.212  33.801  14.966  1.00  0.00     0.001 A 
HETATM    6  C   LIG     1      17.419  33.257  13.699  1.00  0.00     0.001 A 
HETATM    7  C   LIG     1      16.670  32.156  13.279  1.00  0.00     0.012 A 
HETATM    8  C   LIG     1      15.707  31.588  14.129  1.00  0.00    -0.025 A 
HETATM    9  C   LIG     1      14.961  30.482  13.700  1.00  0.00     0.019 A 
HETATM   10  C   LIG     1      14.006  29.900  14.540  1.00  0.00    -0.061 A 
HETATM   11  C   LIG     1      13.185  28.741  14.059  1.00  0.00     0.048 C 
HETATM   12  C   LIG     1      13.773  30.447  15.808  1.00  0.00     0.014 A 
ENDROOT
TORSDOF 0
ENDMDL
MODEL 9
REMARK VINA RESULT:      -6.3     16.586     17.518
REMARK  0 active torsions:
REMARK  status: ('A' for Active; 'I' for Inactive)
ROOT
HETATM    1  C   LIG     1       4.129  43.951  33.981  1.00  0.00     0.049 C 
HETATM    2  C   LIG     1       4.012  42.453  33.855  1.00  0.00    -0.050 A 
HETATM    3  C   LIG     1       3.622  41.833  32.640  1.00  0.00    -0.020 A 
HETATM    4  C   LIG     1       3.326  42.581  31.480  1.00  0.00     0.013 A 
HETATM    5  C   LIG     1       2.939  41.940  30.301  1.00  0.00     0.001 A 
HETATM    6  C   LIG     1       2.839  40.549  30.255  1.00  0.00     0.001 A 
HETATM    7  C   LIG     1       3.127  39.789  31.390  1.00  0.00     0.012 A 
HETATM    8  C   LIG     1       3.519  40.417  32.583  1.00  0.00    -0.025 A 
HETATM    9  C   LIG     1       3.807  39.646  33.717  1.00  0.00     0.019 A 
HETATM   10  C   LIG     1       4.210  40.258  34.909  1.00  0.00    -0.061 A 
HETATM   11  C   LIG     1       4.479  39.428  36.129  1.00  0.00     0.048 C 
HETATM   12  C   LIG     1       4.295  41.654  34.977  1.00  0.00     0.014 A 
ENDROOT
TORSDOF 0
ENDMDL
MODEL 10
REMARK VINA RESULT:      -6.3     16.717     17.710
REMARK  0 active torsions:
REMARK  status: ('A' for Active; 'I' for Inactive)
ROOT
HETATM    1  C   LIG     1       2.945  39.913  31.174  1.00  0.00     0.049 C 
HETATM    2  C   LIG     1       3.440  40.471  32.485  1.00  0.00    -0.050 A 
HETATM    3  C   LIG     1       3.629  41.863  32.683  1.00  0.00    -0.020 A 
HETATM    4  C   LIG     1       3.361  42.805  31.667  1.00  0.00     0.013 A 
HETATM    5  C   LIG     1       3.562  44.169  31.892  1.00  0.00     0.001 A 
HETATM    6  C   LIG     1       4.033  44.617  33.127  1.00  0.00     0.001 A 
HETATM    7  C   LIG     1       4.306  43.703  34.146  1.00  0.00     0.012 A 
HETATM    8  C   LIG     1       4.108  42.329  33.937  1.00  0.00    -0.025 A 
HETATM    9  C   LIG     1       4.382  41.418  34.966  1.00  0.00     0.019 A 
HETATM   10  C   LIG     1       4.178  40.048  34.776  1.00  0.00    -0.061 A 
HETATM   11  C   LIG     1       4.512  39.077  35.869  1.00  0.00     0.048 C 
HETATM   12  C   LIG     1       3.725  39.580  33.536  1.00  0.00     0.014 A 
ENDROOT
TORSDOF 0
ENDMDL
MODEL 11
REMARK VINA RESULT:      -6.2     16.510     16.966
REMARK  0 active torsions:
REMARK  status: ('A' for Active; 'I' for Inactive)
ROOT
HETATM    1  C   LIG     1       3.290  43.923  30.311  1.00  0.00     0.049 C 
HETATM    2  C   LIG     1       3.313  42.564  30.965  1.00  0.00    -0.050 A 
HETATM    3  C   LIG     1       3.643  42.399  32.335  1.00  0.00    -0.020 A 
HETATM    4  C   LIG     1       3.964  43.496  33.164  1.00  0.00     0.013 A 
HETATM    5  C   LIG     1       4.289  43.299  34.508  1.00  0.00     0.001 A 
HETATM    6  C   LIG     1       4.303  42.013  35.049  1.00  0.00     0.001 A 
HETATM    7  C   LIG     1       3.990  40.913  34.248  1.00  0.00     0.012 A 
HETATM    8  C   LIG     1       3.659  41.093  32.895  1.00  0.00    -0.025 A 
HETATM    9  C   LIG     1       3.344  39.985  32.098  1.00  0.00     0.019 A 
HETATM   10  C   LIG     1       3.001  40.150  30.752  1.00  0.00    -0.061 A 
HETATM   11  C   LIG     1       2.704  38.954  29.898  1.00  0.00     0.048 C 
HETATM   12  C   LIG     1       3.003  41.433  30.190  1.00  0.00     0.014 A 
ENDROOT
TORSDOF 0
ENDMDL
MODEL 12
REMARK VINA RESULT:      -6.2      1.207      3.217
REMARK  0 active torsions:
REMARK  status: ('A' for Active; 'I' for Inactive)
ROOT
HETATM    1  C   LIG     1      16.973  35.018  25.095  1.00  0.00     0.049 C 
HETATM    2  C   LIG     1      16.955  35.396  23.635  1.00  0.00    -0.050 A 
HETATM    3  C   LIG     1      17.393  36.669  23.187  1.00  0.00    -0.020 A 
HETATM    4  C   LIG     1      17.874  37.651  24.079  1.00  0.00     0.013 A 
HETATM    5  C   LIG     1      18.292  38.897  23.606  1.00  0.00     0.001 A 
HETATM    6  C   LIG     1      18.239  39.187  22.242  1.00  0.00     0.001 A 
HETATM    7  C   LIG     1      17.766  38.231  21.341  1.00  0.00     0.012 A 
HETATM    8  C   LIG     1      17.343  36.973  21.800  1.00  0.00    -0.025 A 
HETATM    9  C   LIG     1      16.872  36.019  20.889  1.00  0.00     0.019 A 
HETATM   10  C   LIG     1      16.458  34.758  21.330  1.00  0.00    -0.061 A 
HETATM   11  C   LIG     1      15.918  33.757  20.352  1.00  0.00     0.048 C 
HETATM   12  C   LIG     1      16.486  34.459  22.698  1.00  0.00     0.014 A 
ENDROOT
TORSDOF 0
ENDMDL
MODEL 13
REMARK VINA RESULT:      -6.1     16.725     17.577
REMARK  0 active torsions:
REMARK  status: ('A' for Active; 'I' for Inactive)
ROOT
HETATM    1  C   LIG     1       2.948  41.053  30.578  1.00  0.00     0.049 C 
HETATM    2  C   LIG     1       3.393  41.899  31.744  1.00  0.00    -0.050 A 
HETATM    3  C   LIG     1       3.752  41.326  32.990  1.00  0.00    -0.020 A 
HETATM    4  C   LIG     1       3.718  39.932  33.210  1.00  0.00     0.013 A 
HETATM    5  C   LIG     1       4.073  39.400  34.452  1.00  0.00     0.001 A 
HETATM    6  C   LIG     1       4.465  40.241  35.493  1.00  0.00     0.001 A 
HETATM    7  C   LIG     1       4.506  41.622  35.299  1.00  0.00     0.012 A 
HETATM    8  C   LIG     1       4.155  42.175  34.056  1.00  0.00    -0.025 A 
HETATM    9  C   LIG     1       4.200  43.563  33.870  1.00  0.00     0.019 A 
HETATM   10  C   LIG     1       3.864  44.125  32.634  1.00  0.00    -0.061 A 
HETATM   11  C   LIG     1       3.878  45.614  32.455  1.00  0.00     0.048 C 
HETATM   12  C   LIG     1       3.448  43.295  31.585  1.00  0.00     0.014 A 
ENDROOT
TORSDOF 0
ENDMDL
MODEL 14
REMARK VINA RESULT:      -6.1      7.246     10.325
REMARK  0 active torsions:
REMARK  status: ('A' for Active; 'I' for Inactive)
ROOT
HETATM    1  C   LIG     1      13.341  29.879  14.823  1.00  0.00     0.049 C 
HETATM    2  C   LIG     1      14.191  30.844  15.611  1.00  0.00    -0.050 A 
HETATM    3  C   LIG     1      15.216  31.609  14.999  1.00  0.00    -0.020 A 
HETATM    4  C   LIG     1      15.497  31.516  13.619  1.00  0.00     0.013 A 
HETATM    5  C   LIG     1      16.517  32.281  13.048  1.00  0.00     0.001 A 
HETATM    6  C   LIG     1      17.275  33.147  13.837  1.00  0.00     0.001 A 
HETATM    7  C   LIG     1      17.016  33.255  15.204  1.00  0.00     0.012 A 
HETATM    8  C   LIG     1      15.992  32.495  15.794  1.00  0.00    -0.025 A 
HETATM    9  C   LIG     1      15.738  32.611  17.167  1.00  0.00     0.019 A 
HETATM   10  C   LIG     1      14.715  31.869  17.766  1.00  0.00    -0.061 A 
HETATM   11  C   LIG     1      14.475  31.970  19.243  1.00  0.00     0.048 C 
HETATM   12  C   LIG     1      13.959  30.980  16.991  1.00  0.00     0.014 A 
ENDROOT
TORSDOF 0
ENDMDL
MODEL 15
REMARK VINA RESULT:      -6.0      7.547     10.067
REMARK  0 active torsions:
REMARK  status: ('A' for Active; 'I' for Inactive)
ROOT
HETATM    1  C   LIG     1      16.800  32.559  13.297  1.00  0.00     0.049 C 
HETATM    2  C   LIG     1      15.818  31.751  14.107  1.00  0.00    -0.050 A 
HETATM    3  C   LIG     1      15.381  32.171  15.389  1.00  0.00    -0.020 A 
HETATM    4  C   LIG     1      15.836  33.370  15.979  1.00  0.00     0.013 A 
HETATM    5  C   LIG     1      15.390  33.752  17.246  1.00  0.00     0.001 A 
HETATM    6  C   LIG     1      14.487  32.952  17.947  1.00  0.00     0.001 A 
HETATM    7  C   LIG     1      14.024  31.761  17.384  1.00  0.00     0.012 A 
HETATM    8  C   LIG     1      14.461  31.362  16.110  1.00  0.00    -0.025 A 
HETATM    9  C   LIG     1      13.990  30.167  15.552  1.00  0.00     0.019 A 
HETATM   10  C   LIG     1      14.408  29.763  14.280  1.00  0.00    -0.061 A 
HETATM   11  C   LIG     1      13.929  28.463  13.706  1.00  0.00     0.048 C 
HETATM   12  C   LIG     1      15.328  30.546  13.572  1.00  0.00     0.014 A 
ENDROOT
TORSDOF 0
ENDMDL
MODEL 16
REMARK VINA RESULT:      -6.0     16.596     17.317
REMARK  0 active torsions:
REMARK  status: ('A' for Active; 'I' for Inactive)
ROOT
HETATM    1  C   LIG     1       4.151  41.117  34.694  1.00  0.00     0.049 C 
HETATM    2  C   LIG     1       3.786  41.322  33.245  1.00  0.00    -0.050 A 
HETATM    3  C   LIG     1       3.774  42.610  32.652  1.00  0.00    -0.020 A 
HETATM    4  C   LIG     1       4.106  43.772  33.380  1.00  0.00     0.013 A 
HETATM    5  C   LIG     1       4.079  45.027  32.767  1.00  0.00     0.001 A 
HETATM    6  C   LIG     1       3.722  45.147  31.424  1.00  0.00     0.001 A 
HETATM    7  C   LIG     1       3.389  44.012  30.683  1.00  0.00     0.012 A 
HETATM    8  C   LIG     1       3.412  42.742  31.284  1.00  0.00    -0.025 A 
HETATM    9  C   LIG     1       3.078  41.607  30.533  1.00  0.00     0.019 A 
HETATM   10  C   LIG     1       3.109  40.336  31.115  1.00  0.00    -0.061 A 
HETATM   11  C   LIG     1       2.712  39.131  30.314  1.00  0.00     0.048 C 
HETATM   12  C   LIG     1       3.446  40.200  32.467  1.00  0.00     0.014 A 
ENDROOT
TORSDOF 0
ENDMDL
MODEL 17
REMARK VINA RESULT:      -5.8      0.999      3.736
REMARK  0 active torsions:
REMARK  status: ('A' for Active; 'I' for Inactive)
ROOT
HETATM    1  C   LIG     1      17.384  39.051  25.139  1.00  0.00     0.049 C 
HETATM    2  C   LIG     1      17.353  37.572  24.843  1.00  0.00    -0.050 A 
HETATM    3  C   LIG     1      17.314  37.076  23.515  1.00  0.00    -0.020 A 
HETATM    4  C   LIG     1      17.308  37.936  22.395  1.00  0.00     0.013 A 
HETATM    5  C   LIG     1      17.264  37.415  21.100  1.00  0.00     0.001 A 
HETATM    6  C   LIG     1      17.225  36.035  20.896  1.00  0.00     0.001 A 
HETATM    7  C   LIG     1      17.230  35.166  21.988  1.00  0.00     0.012 A 
HETATM    8  C   LIG     1      17.275  35.673  23.297  1.00  0.00    -0.025 A 
HETATM    9  C   LIG     1      17.281  34.793  24.388  1.00  0.00     0.019 A 
HETATM   10  C   LIG     1      17.337  35.283  25.696  1.00  0.00    -0.061 A 
HETATM   11  C   LIG     1      17.304  34.335  26.858  1.00  0.00     0.048 C 
HETATM   12  C   LIG     1      17.357  36.666  25.918  1.00  0.00     0.014 A 
ENDROOT
TORSDOF 0
ENDMDL
