REMARK  0 active torsions:
REMARK  status: ('A' for Active; 'I' for Inactive)
ROOT
HETATM    1  C   LIG     1       0.139   2.761   0.315  1.00  0.00     0.049 C 
HETATM    2  C   LIG     1       0.334   1.275   0.145  1.00  0.00    -0.050 A 
HETATM    3  C   LIG     1      -0.764   0.387   0.013  1.00  0.00    -0.020 A 
HETATM    4  C   LIG     1      -2.100   0.842   0.028  1.00  0.00     0.013 A 
HETATM    5  C   LIG     1      -3.159  -0.060  -0.099  1.00  0.00     0.001 A 
HETATM    6  C   LIG     1      -2.909  -1.425  -0.242  1.00  0.00     0.001 A 
HETATM    7  C   LIG     1      -1.596  -1.898  -0.259  1.00  0.00     0.012 A 
HETATM    8  C   LIG     1      -0.519  -1.005  -0.134  1.00  0.00    -0.025 A 
HETATM    9  C   LIG     1       0.796  -1.488  -0.154  1.00  0.00     0.019 A 
HETATM   10  C   LIG     1       1.878  -0.609  -0.042  1.00  0.00    -0.061 A 
HETATM   11  C   LIG     1       3.281  -1.139  -0.025  1.00  0.00     0.048 C 
HETATM   12  C   LIG     1       1.643   0.762   0.122  1.00  0.00     0.014 A 
ENDROOT
TORSDOF 0
