REMARK  1 active torsions:
REMARK  status: ('A' for Active; 'I' for Inactive)
REMARK    1  A    between atoms: C_3  and  O_4 
ROOT
HETATM    1  C   LIG     1       2.376  -0.961   0.364  1.00  0.00     0.051 C 
HETATM    2  C   LIG     1       1.165  -0.102   0.119  1.00  0.00    -0.028 A 
HETATM    3  C   LIG     1      -0.128  -0.669   0.018  1.00  0.00     0.077 A 
HETATM    4  C   LIG     1      -1.242   0.163  -0.212  1.00  0.00    -0.028 A 
HETATM    5  C   LIG     1      -2.619  -0.429  -0.320  1.00  0.00     0.051 C 
HETATM    6  C   LIG     1      -1.061   1.549  -0.339  1.00  0.00     0.009 A 
HETATM    7  C   LIG     1       0.214   2.105  -0.240  1.00  0.00     0.001 A 
HETATM    8  C   LIG     1       1.321   1.287  -0.012  1.00  0.00     0.009 A 
ENDROOT
BRANCH   3   9
HETATM    9  O   LIG     1      -0.331  -2.047   0.142  1.00  0.00    -0.360 OA
HETATM   10  H   LIG     1       0.419  -2.706   0.307  1.00  0.00     0.217 HD
ENDBRANCH   3   9
TORSDOF 1
