MODEL 1
REMARK VINA RESULT:      -6.6      0.000      0.000
REMARK  1 active torsions:
REMARK  status: ('A' for Active; 'I' for Inactive)
REMARK    1  A    between atoms: C_3  and  O_4 
ROOT
HETATM    1  C   LIG     1      16.464  38.853  22.746  1.00  0.00     0.051 C 
HETATM    2  C   LIG     1      16.806  37.541  23.398  1.00  0.00    -0.028 A 
HETATM    3  C   LIG     1      17.246  37.483  24.742  1.00  0.00     0.077 A 
HETATM    4  C   LIG     1      17.559  36.238  25.324  1.00  0.00    -0.028 A 
HETATM    5  C   LIG     1      18.026  36.166  26.751  1.00  0.00     0.051 C 
HETATM    6  C   LIG     1      17.432  35.064  24.566  1.00  0.00     0.009 A 
HETATM    7  C   LIG     1      17.000  35.124  23.241  1.00  0.00     0.001 A 
HETATM    8  C   LIG     1      16.688  36.353  22.659  1.00  0.00     0.009 A 
ENDROOT
BRANCH   3   9
HETATM    9  O   LIG     1      17.378  38.640  25.516  1.00  0.00    -0.360 OA
HETATM   10  H   LIG     1      16.965  38.745  26.434  1.00  0.00     0.217 HD
ENDBRANCH   3   9
TORSDOF 1
ENDMDL
MODEL 2
REMARK VINA RESULT:      -6.6      0.065      2.888
REMARK  1 active torsions:
REMARK  status: ('A' for Active; 'I' for Inactive)
REMARK    1  A    between atoms: C_3  and  O_4 
ROOT
HETATM    1  C   LIG     1      18.064  36.171  26.789  1.00  0.00     0.051 C 
HETATM    2  C   LIG     1      17.594  36.234  25.362  1.00  0.00    -0.028 A 
HETATM    3  C   LIG     1      17.277  37.470  24.748  1.00  0.00     0.077 A 
HETATM    4  C   LIG     1      16.839  37.495  23.409  1.00  0.00    -0.028 A 
HETATM    5  C   LIG     1      16.502  38.802  22.748  1.00  0.00     0.051 C 
HETATM    6  C   LIG     1      16.720  36.294  22.693  1.00  0.00     0.009 A 
HETATM    7  C   LIG     1      17.031  35.078  23.300  1.00  0.00     0.001 A 
HETATM    8  C   LIG     1      17.466  35.046  24.625  1.00  0.00     0.009 A 
ENDROOT
BRANCH   3   9
HETATM    9  O   LIG     1      17.390  38.678  25.443  1.00  0.00    -0.360 OA
HETATM   10  H   LIG     1      16.984  39.546  25.117  1.00  0.00     0.217 HD
ENDBRANCH   3   9
TORSDOF 1
ENDMDL
MODEL 3
REMARK VINA RESULT:      -6.2      3.210      4.142
REMARK  1 active torsions:
REMARK  status: ('A' for Active; 'I' for Inactive)
REMARK    1  A    between atoms: C_3  and  O_4 
ROOT
HETATM    1  C   LIG     1      20.258  38.852  19.261  1.00  0.00     0.051 C 
HETATM    2  C   LIG     1      19.176  38.181  20.063  1.00  0.00    -0.028 A 
HETATM    3  C   LIG     1      18.550  38.841  21.147  1.00  0.00     0.077 A 
HETATM    4  C   LIG     1      17.539  38.184  21.878  1.00  0.00    -0.028 A 
HETATM    5  C   LIG     1      16.868  38.877  23.030  1.00  0.00     0.051 C 
HETATM    6  C   LIG     1      17.162  36.880  21.525  1.00  0.00     0.009 A 
HETATM    7  C   LIG     1      17.781  36.231  20.457  1.00  0.00     0.001 A 
HETATM    8  C   LIG     1      18.781  36.875  19.729  1.00  0.00     0.009 A 
ENDROOT
BRANCH   3   9
HETATM    9  O   LIG     1      18.910  40.141  21.515  1.00  0.00    -0.360 OA
HETATM   10  H   LIG     1      18.477  40.642  22.280  1.00  0.00     0.217 HD
ENDBRANCH   3   9
TORSDOF 1
ENDMDL
MODEL 4
REMARK VINA RESULT:      -6.2      3.188      4.484
REMARK  1 active torsions:
REMARK  status: ('A' for Active; 'I' for Inactive)
REMARK    1  A    between atoms: C_3  and  O_4 
ROOT
HETATM    1  C   LIG     1      16.873  38.717  23.121  1.00  0.00     0.051 C 
HETATM    2  C   LIG     1      17.545  38.095  21.926  1.00  0.00    -0.028 A 
HETATM    3  C   LIG     1      18.545  38.790  21.203  1.00  0.00     0.077 A 
HETATM    4  C   LIG     1      19.155  38.180  20.089  1.00  0.00    -0.028 A 
HETATM    5  C   LIG     1      20.217  38.908  19.315  1.00  0.00     0.051 C 
HETATM    6  C   LIG     1      18.767  36.887  19.704  1.00  0.00     0.009 A 
HETATM    7  C   LIG     1      17.781  36.206  20.417  1.00  0.00     0.001 A 
HETATM    8  C   LIG     1      17.173  36.803  21.521  1.00  0.00     0.009 A 
ENDROOT
BRANCH   3   9
HETATM    9  O   LIG     1      18.947  40.078  21.570  1.00  0.00    -0.360 OA
HETATM   10  H   LIG     1      18.401  40.907  21.373  1.00  0.00     0.217 HD
ENDBRANCH   3   9
TORSDOF 1
ENDMDL
MODEL 5
REMARK VINA RESULT:      -6.2      3.466      5.067
REMARK  1 active torsions:
REMARK  status: ('A' for Active; 'I' for Inactive)
REMARK    1  A    between atoms: C_3  and  O_4 
ROOT
HETATM    1  C   LIG     1      16.778  35.445  21.140  1.00  0.00     0.051 C 
HETATM    2  C   LIG     1      17.436  36.794  21.243  1.00  0.00    -0.028 A 
HETATM    3  C   LIG     1      18.391  37.219  20.288  1.00  0.00     0.077 A 
HETATM    4  C   LIG     1      18.989  38.489  20.413  1.00  0.00    -0.028 A 
HETATM    5  C   LIG     1      20.004  38.949  19.404  1.00  0.00     0.051 C 
HETATM    6  C   LIG     1      18.632  39.324  21.482  1.00  0.00     0.009 A 
HETATM    7  C   LIG     1      17.692  38.903  22.422  1.00  0.00     0.001 A 
HETATM    8  C   LIG     1      17.095  37.647  22.304  1.00  0.00     0.009 A 
ENDROOT
BRANCH   3   9
HETATM    9  O   LIG     1      18.760  36.403  19.215  1.00  0.00    -0.360 OA
HETATM   10  H   LIG     1      18.092  35.975  18.587  1.00  0.00     0.217 HD
ENDBRANCH   3   9
TORSDOF 1
ENDMDL
MODEL 6
REMARK VINA RESULT:      -6.2      3.492      4.694
REMARK  1 active torsions:
REMARK  status: ('A' for Active; 'I' for Inactive)
REMARK    1  A    between atoms: C_3  and  O_4 
ROOT
HETATM    1  C   LIG     1      20.040  39.015  19.518  1.00  0.00     0.051 C 
HETATM    2  C   LIG     1      18.976  38.517  20.459  1.00  0.00    -0.028 A 
HETATM    3  C   LIG     1      18.393  37.237  20.295  1.00  0.00     0.077 A 
HETATM    4  C   LIG     1      17.399  36.800  21.193  1.00  0.00    -0.028 A 
HETATM    5  C   LIG     1      16.774  35.443  21.029  1.00  0.00     0.051 C 
HETATM    6  C   LIG     1      16.994  37.637  22.245  1.00  0.00     0.009 A 
HETATM    7  C   LIG     1      17.569  38.898  22.403  1.00  0.00     0.001 A 
HETATM    8  C   LIG     1      18.554  39.336  21.518  1.00  0.00     0.009 A 
ENDROOT
BRANCH   3   9
HETATM    9  O   LIG     1      18.782  36.387  19.255  1.00  0.00    -0.360 OA
HETATM   10  H   LIG     1      19.129  36.721  18.365  1.00  0.00     0.217 HD
ENDBRANCH   3   9
TORSDOF 1
ENDMDL
MODEL 7
REMARK VINA RESULT:      -5.9      1.598      2.604
REMARK  1 active torsions:
REMARK  status: ('A' for Active; 'I' for Inactive)
REMARK    1  A    between atoms: C_3  and  O_4 
ROOT
HETATM    1  C   LIG     1      16.456  35.085  22.025  1.00  0.00     0.051 C 
HETATM    2  C   LIG     1      16.878  36.205  22.937  1.00  0.00    -0.028 A 
HETATM    3  C   LIG     1      17.291  35.951  24.267  1.00  0.00     0.077 A 
HETATM    4  C   LIG     1      17.680  37.022  25.097  1.00  0.00    -0.028 A 
HETATM    5  C   LIG     1      18.121  36.764  26.510  1.00  0.00     0.051 C 
HETATM    6  C   LIG     1      17.656  38.334  24.597  1.00  0.00     0.009 A 
HETATM    7  C   LIG     1      17.248  38.581  23.287  1.00  0.00     0.001 A 
HETATM    8  C   LIG     1      16.862  37.525  22.460  1.00  0.00     0.009 A 
ENDROOT
BRANCH   3   9
HETATM    9  O   LIG     1      17.323  34.653  24.785  1.00  0.00    -0.360 OA
HETATM   10  H   LIG     1      16.493  34.093  24.933  1.00  0.00     0.217 HD
ENDBRANCH   3   9
TORSDOF 1
ENDMDL
MODEL 8
REMARK VINA RESULT:      -5.5      9.787     11.219
REMARK  1 active torsions:
REMARK  status: ('A' for Active; 'I' for Inactive)
REMARK    1  A    between atoms: C_3  and  O_4 
ROOT
HETATM    1  C   LIG     1      17.019  32.945  14.947  1.00  0.00     0.051 C 
HETATM    2  C   LIG     1      15.784  32.209  15.391  1.00  0.00    -0.028 A 
HETATM    3  C   LIG     1      15.270  31.122  14.644  1.00  0.00     0.077 A 
HETATM    4  C   LIG     1      14.111  30.453  15.086  1.00  0.00    -0.028 A 
HETATM    5  C   LIG     1      13.557  29.298  14.300  1.00  0.00     0.051 C 
HETATM    6  C   LIG     1      13.475  30.869  16.267  1.00  0.00     0.009 A 
HETATM    7  C   LIG     1      13.984  31.940  17.001  1.00  0.00     0.001 A 
HETATM    8  C   LIG     1      15.131  32.606  16.568  1.00  0.00     0.009 A 
ENDROOT
BRANCH   3   9
HETATM    9  O   LIG     1      15.887  30.691  13.465  1.00  0.00    -0.360 OA
HETATM   10  H   LIG     1      15.476  30.011  12.840  1.00  0.00     0.217 HD
ENDBRANCH   3   9
TORSDOF 1
ENDMDL
MODEL 9
REMARK VINA RESULT:      -5.5      9.775     11.235
REMARK  1 active torsions:
REMARK  status: ('A' for Active; 'I' for Inactive)
REMARK    1  A    between atoms: C_3  and  O_4 
ROOT
HETATM    1  C   LIG     1      13.567  29.304  14.297  1.00  0.00     0.051 C 
HETATM    2  C   LIG     1      14.130  30.464  15.074  1.00  0.00    -0.028 A 
HETATM    3  C   LIG     1      15.295  31.140  14.642  1.00  0.00     0.077 A 
HETATM    4  C   LIG     1      15.797  32.222  15.392  1.00  0.00    -0.028 A 
HETATM    5  C   LIG     1      17.034  32.947  14.941  1.00  0.00     0.051 C 
HETATM    6  C   LIG     1      15.136  32.622  16.564  1.00  0.00     0.009 A 
HETATM    7  C   LIG     1      13.988  31.953  16.989  1.00  0.00     0.001 A 
HETATM    8  C   LIG     1      13.486  30.881  16.250  1.00  0.00     0.009 A 
ENDROOT
BRANCH   3   9
HETATM    9  O   LIG     1      15.969  30.758  13.477  1.00  0.00    -0.360 OA
HETATM   10  H   LIG     1      15.715  31.090  12.555  1.00  0.00     0.217 HD
ENDBRANCH   3   9
TORSDOF 1
ENDMDL
MODEL 10
REMARK VINA RESULT:      -5.5      1.192      1.959
REMARK  1 active torsions:
REMARK  status: ('A' for Active; 'I' for Inactive)
REMARK    1  A    between atoms: C_3  and  O_4 
ROOT
HETATM    1  C   LIG     1      16.558  36.321  21.148  1.00  0.00     0.051 C 
HETATM    2  C   LIG     1      16.872  36.225  22.616  1.00  0.00    -0.028 A 
HETATM    3  C   LIG     1      16.992  37.385  23.418  1.00  0.00     0.077 A 
HETATM    4  C   LIG     1      17.287  37.261  24.791  1.00  0.00    -0.028 A 
HETATM    5  C   LIG     1      17.416  38.486  25.651  1.00  0.00     0.051 C 
HETATM    6  C   LIG     1      17.460  35.986  25.353  1.00  0.00     0.009 A 
HETATM    7  C   LIG     1      17.342  34.845  24.560  1.00  0.00     0.001 A 
HETATM    8  C   LIG     1      17.050  34.961  23.201  1.00  0.00     0.009 A 
ENDROOT
BRANCH   3   9
HETATM    9  O   LIG     1      16.824  38.664  22.879  1.00  0.00    -0.360 OA
HETATM   10  H   LIG     1      17.426  39.048  22.162  1.00  0.00     0.217 HD
ENDBRANCH   3   9
TORSDOF 1
ENDMDL
MODEL 11
REMARK VINA RESULT:      -5.4     10.082     11.556
REMARK  1 active torsions:
REMARK  status: ('A' for Active; 'I' for Inactive)
REMARK    1  A    between atoms: C_3  and  O_4 
ROOT
HETATM    1  C   LIG     1      14.277  32.487  17.417  1.00  0.00     0.051 C 
HETATM    2  C   LIG     1      14.526  31.720  16.147  1.00  0.00    -0.028 A 
HETATM    3  C   LIG     1      13.673  30.663  15.749  1.00  0.00     0.077 A 
HETATM    4  C   LIG     1      13.934  29.964  14.553  1.00  0.00    -0.028 A 
HETATM    5  C   LIG     1      13.033  28.841  14.121  1.00  0.00     0.051 C 
HETATM    6  C   LIG     1      15.038  30.322  13.765  1.00  0.00     0.009 A 
HETATM    7  C   LIG     1      15.878  31.363  14.159  1.00  0.00     0.001 A 
HETATM    8  C   LIG     1      15.625  32.059  15.342  1.00  0.00     0.009 A 
ENDROOT
BRANCH   3   9
HETATM    9  O   LIG     1      12.567  30.291  16.518  1.00  0.00    -0.360 OA
HETATM   10  H   LIG     1      11.961  30.958  16.979  1.00  0.00     0.217 HD
ENDBRANCH   3   9
TORSDOF 1
ENDMDL
MODEL 12
REMARK VINA RESULT:      -5.4      9.488     10.772
REMARK  1 active torsions:
REMARK  status: ('A' for Active; 'I' for Inactive)
REMARK    1  A    between atoms: C_3  and  O_4 
ROOT
HETATM    1  C   LIG     1      17.059  32.989  13.422  1.00  0.00     0.051 C 
HETATM    2  C   LIG     1      16.049  32.134  14.138  1.00  0.00    -0.028 A 
HETATM    3  C   LIG     1      15.563  32.490  15.418  1.00  0.00     0.077 A 
HETATM    4  C   LIG     1      14.616  31.667  16.062  1.00  0.00    -0.028 A 
HETATM    5  C   LIG     1      14.094  32.037  17.422  1.00  0.00     0.051 C 
HETATM    6  C   LIG     1      14.162  30.501  15.428  1.00  0.00     0.009 A 
HETATM    7  C   LIG     1      14.643  30.152  14.167  1.00  0.00     0.001 A 
HETATM    8  C   LIG     1      15.580  30.961  13.524  1.00  0.00     0.009 A 
ENDROOT
BRANCH   3   9
HETATM    9  O   LIG     1      16.001  33.648  16.068  1.00  0.00    -0.360 OA
HETATM   10  H   LIG     1      15.922  33.788  17.067  1.00  0.00     0.217 HD
ENDBRANCH   3   9
TORSDOF 1
ENDMDL
MODEL 13
REMARK VINA RESULT:      -5.4      2.970      4.076
REMARK  1 active torsions:
REMARK  status: ('A' for Active; 'I' for Inactive)
REMARK    1  A    between atoms: C_3  and  O_4 
ROOT
HETATM    1  C   LIG     1      16.653  34.861  20.973  1.00  0.00     0.051 C 
HETATM    2  C   LIG     1      17.320  36.209  20.958  1.00  0.00    -0.028 A 
HETATM    3  C   LIG     1      16.992  37.200  21.914  1.00  0.00     0.077 A 
HETATM    4  C   LIG     1      17.635  38.454  21.873  1.00  0.00    -0.028 A 
HETATM    5  C   LIG     1      17.295  39.512  22.884  1.00  0.00     0.051 C 
HETATM    6  C   LIG     1      18.597  38.710  20.884  1.00  0.00     0.009 A 
HETATM    7  C   LIG     1      18.918  37.732  19.943  1.00  0.00     0.001 A 
HETATM    8  C   LIG     1      18.285  36.489  19.978  1.00  0.00     0.009 A 
ENDROOT
BRANCH   3   9
HETATM    9  O   LIG     1      16.037  36.966  22.908  1.00  0.00    -0.360 OA
HETATM   10  H   LIG     1      16.042  37.436  23.805  1.00  0.00     0.217 HD
ENDBRANCH   3   9
TORSDOF 1
ENDMDL
MODEL 14
REMARK VINA RESULT:      -5.4      9.444     10.933
REMARK  1 active torsions:
REMARK  status: ('A' for Active; 'I' for Inactive)
REMARK    1  A    between atoms: C_3  and  O_4 
ROOT
HETATM    1  C   LIG     1      13.931  31.806  17.472  1.00  0.00     0.051 C 
HETATM    2  C   LIG     1      14.519  31.547  16.111  1.00  0.00    -0.028 A 
HETATM    3  C   LIG     1      15.529  32.382  15.577  1.00  0.00     0.077 A 
HETATM    4  C   LIG     1      16.059  32.113  14.299  1.00  0.00    -0.028 A 
HETATM    5  C   LIG     1      17.132  32.994  13.724  1.00  0.00     0.051 C 
HETATM    6  C   LIG     1      15.581  31.017  13.565  1.00  0.00     0.009 A 
HETATM    7  C   LIG     1      14.585  30.196  14.092  1.00  0.00     0.001 A 
HETATM    8  C   LIG     1      14.056  30.457  15.357  1.00  0.00     0.009 A 
ENDROOT
BRANCH   3   9
HETATM    9  O   LIG     1      16.020  33.479  16.292  1.00  0.00    -0.360 OA
HETATM   10  H   LIG     1      16.902  33.930  16.081  1.00  0.00     0.217 HD
ENDBRANCH   3   9
TORSDOF 1
ENDMDL
MODEL 15
REMARK VINA RESULT:      -4.4      5.985      7.310
REMARK  1 active torsions:
REMARK  status: ('A' for Active; 'I' for Inactive)
REMARK    1  A    between atoms: C_3  and  O_4 
ROOT
HETATM    1  C   LIG     1      14.894  32.284  16.228  1.00  0.00     0.051 C 
HETATM    2  C   LIG     1      14.979  32.517  17.712  1.00  0.00    -0.028 A 
HETATM    3  C   LIG     1      15.414  33.758  18.235  1.00  0.00     0.077 A 
HETATM    4  C   LIG     1      15.482  33.945  19.630  1.00  0.00    -0.028 A 
HETATM    5  C   LIG     1      15.943  35.259  20.196  1.00  0.00     0.051 C 
HETATM    6  C   LIG     1      15.117  32.899  20.491  1.00  0.00     0.009 A 
HETATM    7  C   LIG     1      14.689  31.677  19.973  1.00  0.00     0.001 A 
HETATM    8  C   LIG     1      14.619  31.485  18.593  1.00  0.00     0.009 A 
ENDROOT
BRANCH   3   9
HETATM    9  O   LIG     1      15.783  34.814  17.396  1.00  0.00    -0.360 OA
HETATM   10  H   LIG     1      16.295  34.684  16.533  1.00  0.00     0.217 HD
ENDBRANCH   3   9
TORSDOF 1
ENDMDL
MODEL 16
REMARK VINA RESULT:      -4.3      9.527     10.929
REMARK  1 active torsions:
REMARK  status: ('A' for Active; 'I' for Inactive)
REMARK    1  A    between atoms: C_3  and  O_4 
ROOT
HETATM    1  C   LIG     1      17.750  34.214  13.874  1.00  0.00     0.051 C 
HETATM    2  C   LIG     1      16.760  33.388  14.651  1.00  0.00    -0.028 A 
HETATM    3  C   LIG     1      16.208  32.203  14.108  1.00  0.00     0.077 A 
HETATM    4  C   LIG     1      15.284  31.452  14.862  1.00  0.00    -0.028 A 
HETATM    5  C   LIG     1      14.693  30.192  14.295  1.00  0.00     0.051 C 
HETATM    6  C   LIG     1      14.917  31.885  16.145  1.00  0.00     0.009 A 
HETATM    7  C   LIG     1      15.461  33.054  16.677  1.00  0.00     0.001 A 
HETATM    8  C   LIG     1      16.377  33.802  15.936  1.00  0.00     0.009 A 
ENDROOT
BRANCH   3   9
HETATM    9  O   LIG     1      16.561  31.753  12.832  1.00  0.00    -0.360 OA
HETATM   10  H   LIG     1      17.366  31.167  12.653  1.00  0.00     0.217 HD
ENDBRANCH   3   9
TORSDOF 1
ENDMDL
MODEL 17
REMARK VINA RESULT:      -3.8     11.368     12.823
REMARK  1 active torsions:
REMARK  status: ('A' for Active; 'I' for Inactive)
REMARK    1  A    between atoms: C_3  and  O_4 
ROOT
HETATM    1  C   LIG     1      17.532  33.373  14.419  1.00  0.00     0.051 C 
HETATM    2  C   LIG     1      18.601  33.692  13.410  1.00  0.00    -0.028 A 
HETATM    3  C   LIG     1      18.295  34.374  12.208  1.00  0.00     0.077 A 
HETATM    4  C   LIG     1      19.320  34.658  11.283  1.00  0.00    -0.028 A 
HETATM    5  C   LIG     1      19.005  35.383  10.005  1.00  0.00     0.051 C 
HETATM    6  C   LIG     1      20.637  34.263  11.561  1.00  0.00     0.009 A 
HETATM    7  C   LIG     1      20.936  33.590  12.745  1.00  0.00     0.001 A 
HETATM    8  C   LIG     1      19.926  33.306  13.665  1.00  0.00     0.009 A 
ENDROOT
BRANCH   3   9
HETATM    9  O   LIG     1      16.989  34.778  11.912  1.00  0.00    -0.360 OA
HETATM   10  H   LIG     1      16.576  34.688  10.992  1.00  0.00     0.217 HD
ENDBRANCH   3   9
TORSDOF 1
ENDMDL
