REMARK  1 active torsions:
REMARK  status: ('A' for Active; 'I' for Inactive)
REMARK    1  A    between atoms: N_1  and  C_2 
ROOT
HETATM    1  C   LIG     1      -2.291   0.966  -0.275  1.00  0.00     0.038 A 
HETATM    2  C   LIG     1      -1.014   0.345  -0.181  1.00  0.00     0.020 A 
HETATM    3  C   LIG     1       0.199   1.049  -0.337  1.00  0.00     0.030 A 
HETATM    4  C   LIG     1       1.425   0.381  -0.227  1.00  0.00    -0.006 A 
HETATM    5  C   LIG     1       2.642   1.065  -0.376  1.00  0.00     0.014 A 
HETATM    6  C   LIG     1       3.853   0.374  -0.261  1.00  0.00     0.001 A 
HETATM    7  C   LIG     1       3.856  -0.999   0.000  1.00  0.00     0.002 A 
HETATM    8  C   LIG     1       2.649  -1.689   0.148  1.00  0.00     0.032 A 
HETATM    9  C   LIG     1       1.433  -1.005   0.035  1.00  0.00     0.067 A 
HETATM   10  N   LIG     1       0.261  -1.674   0.173  1.00  0.00    -0.247 NA
HETATM   11  C   LIG     1      -0.943  -1.052   0.072  1.00  0.00     0.070 A 
HETATM   12  C   LIG     1      -2.112  -1.804   0.214  1.00  0.00     0.032 A 
HETATM   13  C   LIG     1      -3.358  -1.190   0.106  1.00  0.00     0.005 A 
HETATM   14  C   LIG     1      -3.446   0.180  -0.137  1.00  0.00     0.030 A 
ENDROOT
BRANCH   1  15
HETATM   15  N   LIG     1      -2.454   2.375  -0.500  1.00  0.00    -0.398 N 
HETATM   16  H   LIG     1      -3.409   2.777  -0.632  1.00  0.00     0.156 HD
HETATM   17  H   LIG     1      -1.668   3.057  -0.477  1.00  0.00     0.156 HD
ENDBRANCH   1  15
TORSDOF 1
