REMARK  1 active torsions:
REMARK  status: ('A' for Active; 'I' for Inactive)
REMARK    1  A    between atoms: O_1  and  C_2 
ROOT
HETATM    1  C   LIG     1      -1.179   1.038  -0.034  1.00  0.00     0.078 A 
HETATM    2  C   LIG     1       0.089   0.401   0.001  1.00  0.00     0.026 A 
HETATM    3  C   LIG     1       1.306   1.111   0.028  1.00  0.00     0.018 A 
HETATM    4  C   LIG     1       2.520   0.423   0.062  1.00  0.00     0.020 A 
HETATM    5  C   LIG     1       2.523  -0.971   0.068  1.00  0.00     0.117 A 
HETATM    6  N   LIG     1       1.350  -1.653   0.041  1.00  0.00    -0.260 NA
HETATM    7  C   LIG     1       0.148  -1.017   0.008  1.00  0.00     0.069 A 
HETATM    8  C   LIG     1      -1.028  -1.772  -0.019  1.00  0.00     0.032 A 
HETATM    9  C   LIG     1      -2.268  -1.136  -0.053  1.00  0.00     0.005 A 
HETATM   10  C   LIG     1      -2.342   0.257  -0.060  1.00  0.00     0.037 A 
ENDROOT
BRANCH   1  11
HETATM   11  O   LIG     1      -1.338   2.427  -0.044  1.00  0.00    -0.360 OA
HETATM   12  H   LIG     1      -0.575   3.088  -0.027  1.00  0.00     0.217 HD
ENDBRANCH   1  11
TORSDOF 1
