MODEL 1
REMARK VINA RESULT:      -7.5      0.000      0.000
REMARK  1 active torsions:
REMARK  status: ('A' for Active; 'I' for Inactive)
REMARK    1  A    between atoms: N_1  and  C_2 
ROOT
HETATM    1  C   LIG     1      17.336  37.414  24.597  1.00  0.00     0.038 A 
HETATM    2  C   LIG     1      17.634  37.404  23.205  1.00  0.00     0.020 A 
HETATM    3  C   LIG     1      18.009  38.561  22.490  1.00  0.00     0.030 A 
HETATM    4  C   LIG     1      18.295  38.485  21.121  1.00  0.00    -0.006 A 
HETATM    5  C   LIG     1      18.672  39.625  20.392  1.00  0.00     0.014 A 
HETATM    6  C   LIG     1      18.954  39.522  19.026  1.00  0.00     0.001 A 
HETATM    7  C   LIG     1      18.858  38.286  18.380  1.00  0.00     0.002 A 
HETATM    8  C   LIG     1      18.481  37.146  19.097  1.00  0.00     0.032 A 
HETATM    9  C   LIG     1      18.198  37.240  20.465  1.00  0.00     0.067 A 
HETATM   10  N   LIG     1      17.827  36.136  21.160  1.00  0.00    -0.247 NA
HETATM   11  C   LIG     1      17.544  36.180  22.489  1.00  0.00     0.070 A 
HETATM   12  C   LIG     1      17.157  35.007  23.141  1.00  0.00     0.032 A 
HETATM   13  C   LIG     1      16.853  35.028  24.501  1.00  0.00     0.005 A 
HETATM   14  C   LIG     1      16.941  36.219  25.220  1.00  0.00     0.030 A 
ENDROOT
BRANCH   1  15
HETATM   15  N   LIG     1      17.428  38.599  25.402  1.00  0.00    -0.398 N 
HETATM   16  H   LIG     1      18.356  38.916  25.763  1.00  0.00     0.156 HD
HETATM   17  H   LIG     1      16.619  39.221  25.607  1.00  0.00     0.156 HD
ENDBRANCH   1  15
TORSDOF 1
ENDMDL
MODEL 2
REMARK VINA RESULT:      -7.1      1.182      5.535
REMARK  1 active torsions:
REMARK  status: ('A' for Active; 'I' for Inactive)
REMARK    1  A    between atoms: N_1  and  C_2 
ROOT
HETATM    1  C   LIG     1      17.793  37.166  20.451  1.00  0.00     0.038 A 
HETATM    2  C   LIG     1      17.824  37.116  21.872  1.00  0.00     0.020 A 
HETATM    3  C   LIG     1      17.447  35.974  22.612  1.00  0.00     0.030 A 
HETATM    4  C   LIG     1      17.505  35.986  24.011  1.00  0.00    -0.006 A 
HETATM    5  C   LIG     1      17.137  34.859  24.763  1.00  0.00     0.014 A 
HETATM    6  C   LIG     1      17.204  34.896  26.160  1.00  0.00     0.001 A 
HETATM    7  C   LIG     1      17.635  36.055  26.812  1.00  0.00     0.002 A 
HETATM    8  C   LIG     1      18.002  37.183  26.071  1.00  0.00     0.032 A 
HETATM    9  C   LIG     1      17.938  37.154  24.673  1.00  0.00     0.067 A 
HETATM   10  N   LIG     1      18.288  38.249  23.953  1.00  0.00    -0.247 NA
HETATM   11  C   LIG     1      18.242  38.266  22.595  1.00  0.00     0.070 A 
HETATM   12  C   LIG     1      18.606  39.432  21.916  1.00  0.00     0.032 A 
HETATM   13  C   LIG     1      18.560  39.477  20.525  1.00  0.00     0.005 A 
HETATM   14  C   LIG     1      18.156  38.356  19.800  1.00  0.00     0.030 A 
ENDROOT
BRANCH   1  15
HETATM   15  N   LIG     1      17.411  36.042  19.642  1.00  0.00    -0.398 N 
HETATM   16  H   LIG     1      18.002  35.757  18.830  1.00  0.00     0.156 HD
HETATM   17  H   LIG     1      16.594  35.433  19.852  1.00  0.00     0.156 HD
ENDBRANCH   1  15
TORSDOF 1
ENDMDL
MODEL 3
REMARK VINA RESULT:      -6.5      1.396      2.479
REMARK  1 active torsions:
REMARK  status: ('A' for Active; 'I' for Inactive)
REMARK    1  A    between atoms: N_1  and  C_2 
ROOT
HETATM    1  C   LIG     1      17.189  36.152  23.999  1.00  0.00     0.038 A 
HETATM    2  C   LIG     1      17.615  36.980  22.923  1.00  0.00     0.020 A 
HETATM    3  C   LIG     1      17.811  36.498  21.611  1.00  0.00     0.030 A 
HETATM    4  C   LIG     1      18.225  37.366  20.592  1.00  0.00    -0.006 A 
HETATM    5  C   LIG     1      18.423  36.905  19.281  1.00  0.00     0.014 A 
HETATM    6  C   LIG     1      18.837  37.793  18.282  1.00  0.00     0.001 A 
HETATM    7  C   LIG     1      19.057  39.139  18.585  1.00  0.00     0.002 A 
HETATM    8  C   LIG     1      18.864  39.606  19.889  1.00  0.00     0.032 A 
HETATM    9  C   LIG     1      18.450  38.725  20.894  1.00  0.00     0.067 A 
HETATM   10  N   LIG     1      18.267  39.176  22.161  1.00  0.00    -0.247 NA
HETATM   11  C   LIG     1      17.866  38.357  23.169  1.00  0.00     0.070 A 
HETATM   12  C   LIG     1      17.708  38.885  24.453  1.00  0.00     0.032 A 
HETATM   13  C   LIG     1      17.306  38.064  25.504  1.00  0.00     0.005 A 
HETATM   14  C   LIG     1      17.050  36.712  25.279  1.00  0.00     0.030 A 
ENDROOT
BRANCH   1  15
HETATM   15  N   LIG     1      16.887  34.758  23.834  1.00  0.00    -0.398 N 
HETATM   16  H   LIG     1      15.976  34.376  24.175  1.00  0.00     0.156 HD
HETATM   17  H   LIG     1      17.503  34.091  23.325  1.00  0.00     0.156 HD
ENDBRANCH   1  15
TORSDOF 1
ENDMDL
MODEL 4
REMARK VINA RESULT:      -6.1      2.269      4.417
REMARK  1 active torsions:
REMARK  status: ('A' for Active; 'I' for Inactive)
REMARK    1  A    between atoms: N_1  and  C_2 
ROOT
HETATM    1  C   LIG     1      17.676  38.556  22.468  1.00  0.00     0.038 A 
HETATM    2  C   LIG     1      17.241  37.404  21.754  1.00  0.00     0.020 A 
HETATM    3  C   LIG     1      16.262  36.516  22.246  1.00  0.00     0.030 A 
HETATM    4  C   LIG     1      15.872  35.402  21.491  1.00  0.00    -0.006 A 
HETATM    5  C   LIG     1      14.897  34.509  21.962  1.00  0.00     0.014 A 
HETATM    6  C   LIG     1      14.525  33.404  21.188  1.00  0.00     0.001 A 
HETATM    7  C   LIG     1      15.124  33.185  19.944  1.00  0.00     0.002 A 
HETATM    8  C   LIG     1      16.097  34.068  19.467  1.00  0.00     0.032 A 
HETATM    9  C   LIG     1      16.474  35.176  20.235  1.00  0.00     0.067 A 
HETATM   10  N   LIG     1      17.422  36.031  19.776  1.00  0.00    -0.247 NA
HETATM   11  C   LIG     1      17.819  37.120  20.487  1.00  0.00     0.070 A 
HETATM   12  C   LIG     1      18.809  37.953  19.959  1.00  0.00     0.032 A 
HETATM   13  C   LIG     1      19.239  39.070  20.673  1.00  0.00     0.005 A 
HETATM   14  C   LIG     1      18.679  39.367  21.914  1.00  0.00     0.030 A 
ENDROOT
BRANCH   1  15
HETATM   15  N   LIG     1      17.125  38.933  23.740  1.00  0.00    -0.398 N 
HETATM   16  H   LIG     1      17.659  39.570  24.373  1.00  0.00     0.156 HD
HETATM   17  H   LIG     1      16.173  38.659  24.060  1.00  0.00     0.156 HD
ENDBRANCH   1  15
TORSDOF 1
ENDMDL
MODEL 5
REMARK VINA RESULT:      -6.1      8.113      9.463
REMARK  1 active torsions:
REMARK  status: ('A' for Active; 'I' for Inactive)
REMARK    1  A    between atoms: N_1  and  C_2 
ROOT
HETATM    1  C   LIG     1      13.944  31.377  16.575  1.00  0.00     0.038 A 
HETATM    2  C   LIG     1      14.902  31.744  15.588  1.00  0.00     0.020 A 
HETATM    3  C   LIG     1      15.775  32.843  15.733  1.00  0.00     0.030 A 
HETATM    4  C   LIG     1      16.701  33.149  14.728  1.00  0.00    -0.006 A 
HETATM    5  C   LIG     1      17.580  34.236  14.855  1.00  0.00     0.014 A 
HETATM    6  C   LIG     1      18.496  34.520  13.836  1.00  0.00     0.001 A 
HETATM    7  C   LIG     1      18.537  33.725  12.687  1.00  0.00     0.002 A 
HETATM    8  C   LIG     1      17.664  32.641  12.551  1.00  0.00     0.032 A 
HETATM    9  C   LIG     1      16.746  32.350  13.566  1.00  0.00     0.067 A 
HETATM   10  N   LIG     1      15.895  31.302  13.433  1.00  0.00    -0.247 NA
HETATM   11  C   LIG     1      14.987  30.981  14.392  1.00  0.00     0.070 A 
HETATM   12  C   LIG     1      14.133  29.895  14.185  1.00  0.00     0.032 A 
HETATM   13  C   LIG     1      13.188  29.552  15.150  1.00  0.00     0.005 A 
HETATM   14  C   LIG     1      13.094  30.286  16.332  1.00  0.00     0.030 A 
ENDROOT
BRANCH   1  15
HETATM   15  N   LIG     1      13.810  32.074  17.823  1.00  0.00    -0.398 N 
HETATM   16  H   LIG     1      14.118  31.620  18.712  1.00  0.00     0.156 HD
HETATM   17  H   LIG     1      13.476  33.057  17.902  1.00  0.00     0.156 HD
ENDBRANCH   1  15
TORSDOF 1
ENDMDL
MODEL 6
REMARK VINA RESULT:      -6.1      7.944      9.654
REMARK  1 active torsions:
REMARK  status: ('A' for Active; 'I' for Inactive)
REMARK    1  A    between atoms: N_1  and  C_2 
ROOT
HETATM    1  C   LIG     1      13.865  30.367  15.074  1.00  0.00     0.038 A 
HETATM    2  C   LIG     1      14.877  31.352  14.905  1.00  0.00     0.020 A 
HETATM    3  C   LIG     1      15.723  31.403  13.777  1.00  0.00     0.030 A 
HETATM    4  C   LIG     1      16.698  32.403  13.667  1.00  0.00    -0.006 A 
HETATM    5  C   LIG     1      17.546  32.471  12.550  1.00  0.00     0.014 A 
HETATM    6  C   LIG     1      18.511  33.480  12.464  1.00  0.00     0.001 A 
HETATM    7  C   LIG     1      18.636  34.422  13.489  1.00  0.00     0.002 A 
HETATM    8  C   LIG     1      17.796  34.361  14.606  1.00  0.00     0.032 A 
HETATM    9  C   LIG     1      16.828  33.355  14.699  1.00  0.00     0.067 A 
HETATM   10  N   LIG     1      16.016  33.291  15.784  1.00  0.00    -0.247 NA
HETATM   11  C   LIG     1      15.062  32.333  15.918  1.00  0.00     0.070 A 
HETATM   12  C   LIG     1      14.267  32.319  17.067  1.00  0.00     0.032 A 
HETATM   13  C   LIG     1      13.288  31.341  17.231  1.00  0.00     0.005 A 
HETATM   14  C   LIG     1      13.090  30.375  16.245  1.00  0.00     0.030 A 
ENDROOT
BRANCH   1  15
HETATM   15  N   LIG     1      13.592  29.358  14.089  1.00  0.00    -0.398 N 
HETATM   16  H   LIG     1      14.351  29.029  13.453  1.00  0.00     0.156 HD
HETATM   17  H   LIG     1      12.677  28.869  14.004  1.00  0.00     0.156 HD
ENDBRANCH   1  15
TORSDOF 1
ENDMDL
MODEL 7
REMARK VINA RESULT:      -6.1      2.677      3.286
REMARK  1 active torsions:
REMARK  status: ('A' for Active; 'I' for Inactive)
REMARK    1  A    between atoms: N_1  and  C_2 
ROOT
HETATM    1  C   LIG     1      17.493  37.759  25.479  1.00  0.00     0.038 A 
HETATM    2  C   LIG     1      17.176  36.835  24.445  1.00  0.00     0.020 A 
HETATM    3  C   LIG     1      16.584  37.218  23.223  1.00  0.00     0.030 A 
HETATM    4  C   LIG     1      16.302  36.259  22.241  1.00  0.00    -0.006 A 
HETATM    5  C   LIG     1      15.716  36.622  21.018  1.00  0.00     0.014 A 
HETATM    6  C   LIG     1      15.445  35.645  20.054  1.00  0.00     0.001 A 
HETATM    7  C   LIG     1      15.753  34.305  20.306  1.00  0.00     0.002 A 
HETATM    8  C   LIG     1      16.334  33.934  21.522  1.00  0.00     0.032 A 
HETATM    9  C   LIG     1      16.610  34.906  22.492  1.00  0.00     0.067 A 
HETATM   10  N   LIG     1      17.169  34.547  23.674  1.00  0.00    -0.247 NA
HETATM   11  C   LIG     1      17.454  35.455  24.644  1.00  0.00     0.070 A 
HETATM   12  C   LIG     1      18.020  35.015  25.843  1.00  0.00     0.032 A 
HETATM   13  C   LIG     1      18.314  35.926  26.856  1.00  0.00     0.005 A 
HETATM   14  C   LIG     1      18.052  37.283  26.676  1.00  0.00     0.030 A 
ENDROOT
BRANCH   1  15
HETATM   15  N   LIG     1      17.272  39.173  25.351  1.00  0.00    -0.398 N 
HETATM   16  H   LIG     1      16.631  39.537  24.610  1.00  0.00     0.156 HD
HETATM   17  H   LIG     1      17.667  39.880  26.005  1.00  0.00     0.156 HD
ENDBRANCH   1  15
TORSDOF 1
ENDMDL
MODEL 8
REMARK VINA RESULT:      -5.9      2.417      3.737
REMARK  1 active torsions:
REMARK  status: ('A' for Active; 'I' for Inactive)
REMARK    1  A    between atoms: N_1  and  C_2 
ROOT
HETATM    1  C   LIG     1      17.385  35.987  25.221  1.00  0.00     0.038 A 
HETATM    2  C   LIG     1      17.086  35.919  23.831  1.00  0.00     0.020 A 
HETATM    3  C   LIG     1      16.591  34.756  23.205  1.00  0.00     0.030 A 
HETATM    4  C   LIG     1      16.310  34.755  21.833  1.00  0.00    -0.006 A 
HETATM    5  C   LIG     1      15.814  33.608  21.193  1.00  0.00     0.014 A 
HETATM    6  C   LIG     1      15.541  33.633  19.821  1.00  0.00     0.001 A 
HETATM    7  C   LIG     1      15.763  34.799  19.083  1.00  0.00     0.002 A 
HETATM    8  C   LIG     1      16.259  35.945  19.711  1.00  0.00     0.032 A 
HETATM    9  C   LIG     1      16.534  35.928  21.083  1.00  0.00     0.067 A 
HETATM   10  N   LIG     1      17.020  37.038  21.693  1.00  0.00    -0.247 NA
HETATM   11  C   LIG     1      17.301  37.068  23.023  1.00  0.00     0.070 A 
HETATM   12  C   LIG     1      17.810  38.242  23.584  1.00  0.00     0.032 A 
HETATM   13  C   LIG     1      18.114  38.295  24.943  1.00  0.00     0.005 A 
HETATM   14  C   LIG     1      17.904  37.178  25.752  1.00  0.00     0.030 A 
ENDROOT
BRANCH   1  15
HETATM   15  N   LIG     1      17.172  34.884  26.115  1.00  0.00    -0.398 N 
HETATM   16  H   LIG     1      17.475  33.922  25.842  1.00  0.00     0.156 HD
HETATM   17  H   LIG     1      16.782  34.987  27.075  1.00  0.00     0.156 HD
ENDBRANCH   1  15
TORSDOF 1
ENDMDL
MODEL 9
REMARK VINA RESULT:      -5.7      9.362     11.159
REMARK  1 active torsions:
REMARK  status: ('A' for Active; 'I' for Inactive)
REMARK    1  A    between atoms: N_1  and  C_2 
ROOT
HETATM    1  C   LIG     1      15.623  32.426  15.994  1.00  0.00     0.038 A 
HETATM    2  C   LIG     1      14.992  31.273  15.448  1.00  0.00     0.020 A 
HETATM    3  C   LIG     1      15.658  30.355  14.608  1.00  0.00     0.030 A 
HETATM    4  C   LIG     1      14.983  29.235  14.106  1.00  0.00    -0.006 A 
HETATM    5  C   LIG     1      15.630  28.309  13.272  1.00  0.00     0.014 A 
HETATM    6  C   LIG     1      14.932  27.199  12.784  1.00  0.00     0.001 A 
HETATM    7  C   LIG     1      13.590  27.008  13.124  1.00  0.00     0.002 A 
HETATM    8  C   LIG     1      12.937  27.926  13.952  1.00  0.00     0.032 A 
HETATM    9  C   LIG     1      13.628  29.039  14.445  1.00  0.00     0.067 A 
HETATM   10  N   LIG     1      12.994  29.933  15.244  1.00  0.00    -0.247 NA
HETATM   11  C   LIG     1      13.624  31.028  15.746  1.00  0.00     0.070 A 
HETATM   12  C   LIG     1      12.909  31.914  16.555  1.00  0.00     0.032 A 
HETATM   13  C   LIG     1      13.530  33.048  17.074  1.00  0.00     0.005 A 
HETATM   14  C   LIG     1      14.873  33.301  16.795  1.00  0.00     0.030 A 
ENDROOT
BRANCH   1  15
HETATM   15  N   LIG     1      17.007  32.734  15.768  1.00  0.00    -0.398 N 
HETATM   16  H   LIG     1      17.705  32.601  16.533  1.00  0.00     0.156 HD
HETATM   17  H   LIG     1      17.388  33.030  14.845  1.00  0.00     0.156 HD
ENDBRANCH   1  15
TORSDOF 1
ENDMDL
MODEL 10
REMARK VINA RESULT:      -5.6      2.517      4.064
REMARK  1 active torsions:
REMARK  status: ('A' for Active; 'I' for Inactive)
REMARK    1  A    between atoms: N_1  and  C_2 
ROOT
HETATM    1  C   LIG     1      17.886  38.313  22.060  1.00  0.00     0.038 A 
HETATM    2  C   LIG     1      17.237  37.076  21.786  1.00  0.00     0.020 A 
HETATM    3  C   LIG     1      16.941  36.634  20.479  1.00  0.00     0.030 A 
HETATM    4  C   LIG     1      16.305  35.403  20.274  1.00  0.00    -0.006 A 
HETATM    5  C   LIG     1      16.006  34.946  18.981  1.00  0.00     0.014 A 
HETATM    6  C   LIG     1      15.370  33.712  18.804  1.00  0.00     0.001 A 
HETATM    7  C   LIG     1      15.030  32.932  19.913  1.00  0.00     0.002 A 
HETATM    8  C   LIG     1      15.322  33.380  21.204  1.00  0.00     0.032 A 
HETATM    9  C   LIG     1      15.958  34.613  21.390  1.00  0.00     0.067 A 
HETATM   10  N   LIG     1      16.238  35.052  22.643  1.00  0.00    -0.247 NA
HETATM   11  C   LIG     1      16.855  36.242  22.871  1.00  0.00     0.070 A 
HETATM   12  C   LIG     1      17.103  36.638  24.188  1.00  0.00     0.032 A 
HETATM   13  C   LIG     1      17.726  37.857  24.448  1.00  0.00     0.005 A 
HETATM   14  C   LIG     1      18.112  38.685  23.395  1.00  0.00     0.030 A 
ENDROOT
BRANCH   1  15
HETATM   15  N   LIG     1      18.331  39.202  21.024  1.00  0.00    -0.398 N 
HETATM   16  H   LIG     1      18.654  38.819  20.108  1.00  0.00     0.156 HD
HETATM   17  H   LIG     1      18.294  40.240  21.100  1.00  0.00     0.156 HD
ENDBRANCH   1  15
TORSDOF 1
ENDMDL
MODEL 11
REMARK VINA RESULT:      -5.1      6.308      7.880
REMARK  1 active torsions:
REMARK  status: ('A' for Active; 'I' for Inactive)
REMARK    1  A    between atoms: N_1  and  C_2 
ROOT
HETATM    1  C   LIG     1      14.813  32.546  19.702  1.00  0.00     0.038 A 
HETATM    2  C   LIG     1      15.087  32.558  18.306  1.00  0.00     0.020 A 
HETATM    3  C   LIG     1      14.836  31.455  17.462  1.00  0.00     0.030 A 
HETATM    4  C   LIG     1      15.123  31.532  16.093  1.00  0.00    -0.006 A 
HETATM    5  C   LIG     1      14.878  30.446  15.237  1.00  0.00     0.014 A 
HETATM    6  C   LIG     1      15.172  30.549  13.873  1.00  0.00     0.001 A 
HETATM    7  C   LIG     1      15.713  31.730  13.358  1.00  0.00     0.002 A 
HETATM    8  C   LIG     1      15.962  32.816  14.204  1.00  0.00     0.032 A 
HETATM    9  C   LIG     1      15.670  32.722  15.569  1.00  0.00     0.067 A 
HETATM   10  N   LIG     1      15.916  33.772  16.391  1.00  0.00    -0.247 NA
HETATM   11  C   LIG     1      15.648  33.727  17.723  1.00  0.00     0.070 A 
HETATM   12  C   LIG     1      15.937  34.841  18.514  1.00  0.00     0.032 A 
HETATM   13  C   LIG     1      15.678  34.815  19.883  1.00  0.00     0.005 A 
HETATM   14  C   LIG     1      15.123  33.679  20.471  1.00  0.00     0.030 A 
ENDROOT
BRANCH   1  15
HETATM   15  N   LIG     1      14.221  31.419  20.367  1.00  0.00    -0.398 N 
HETATM   16  H   LIG     1      13.917  31.499  21.364  1.00  0.00     0.156 HD
HETATM   17  H   LIG     1      14.007  30.517  19.893  1.00  0.00     0.156 HD
ENDBRANCH   1  15
TORSDOF 1
ENDMDL
MODEL 12
REMARK VINA RESULT:      -5.1     17.219     18.447
REMARK  1 active torsions:
REMARK  status: ('A' for Active; 'I' for Inactive)
REMARK    1  A    between atoms: N_1  and  C_2 
ROOT
HETATM    1  C   LIG     1      27.126  28.141  33.026  1.00  0.00     0.038 A 
HETATM    2  C   LIG     1      27.373  29.077  34.070  1.00  0.00     0.020 A 
HETATM    3  C   LIG     1      26.437  29.360  35.087  1.00  0.00     0.030 A 
HETATM    4  C   LIG     1      26.742  30.287  36.092  1.00  0.00    -0.006 A 
HETATM    5  C   LIG     1      25.825  30.580  37.114  1.00  0.00     0.014 A 
HETATM    6  C   LIG     1      26.154  31.510  38.105  1.00  0.00     0.001 A 
HETATM    7  C   LIG     1      27.395  32.154  38.081  1.00  0.00     0.002 A 
HETATM    8  C   LIG     1      28.313  31.870  37.065  1.00  0.00     0.032 A 
HETATM    9  C   LIG     1      27.992  30.940  36.070  1.00  0.00     0.067 A 
HETATM   10  N   LIG     1      28.880  30.668  35.081  1.00  0.00    -0.247 NA
HETATM   11  C   LIG     1      28.612  29.772  34.095  1.00  0.00     0.070 A 
HETATM   12  C   LIG     1      29.567  29.548  33.100  1.00  0.00     0.032 A 
HETATM   13  C   LIG     1      29.312  28.641  32.074  1.00  0.00     0.005 A 
HETATM   14  C   LIG     1      28.104  27.946  32.037  1.00  0.00     0.030 A 
ENDROOT
BRANCH   1  15
HETATM   15  N   LIG     1      25.915  27.375  32.940  1.00  0.00    -0.398 N 
HETATM   16  H   LIG     1      24.993  27.830  33.127  1.00  0.00     0.156 HD
HETATM   17  H   LIG     1      25.882  26.381  32.633  1.00  0.00     0.156 HD
ENDBRANCH   1  15
TORSDOF 1
ENDMDL
MODEL 13
REMARK VINA RESULT:      -4.9     17.077     18.329
REMARK  1 active torsions:
REMARK  status: ('A' for Active; 'I' for Inactive)
REMARK    1  A    between atoms: N_1  and  C_2 
ROOT
HETATM    1  C   LIG     1      28.892  29.009  32.845  1.00  0.00     0.038 A 
HETATM    2  C   LIG     1      28.161  29.485  33.969  1.00  0.00     0.020 A 
HETATM    3  C   LIG     1      28.683  30.418  34.890  1.00  0.00     0.030 A 
HETATM    4  C   LIG     1      27.910  30.853  35.974  1.00  0.00    -0.006 A 
HETATM    5  C   LIG     1      28.412  31.782  36.899  1.00  0.00     0.014 A 
HETATM    6  C   LIG     1      27.618  32.201  37.972  1.00  0.00     0.001 A 
HETATM    7  C   LIG     1      26.326  31.694  38.129  1.00  0.00     0.002 A 
HETATM    8  C   LIG     1      25.818  30.766  37.214  1.00  0.00     0.032 A 
HETATM    9  C   LIG     1      26.605  30.343  36.137  1.00  0.00     0.067 A 
HETATM   10  N   LIG     1      26.116  29.439  35.252  1.00  0.00    -0.247 NA
HETATM   11  C   LIG     1      26.843  29.000  34.191  1.00  0.00     0.070 A 
HETATM   12  C   LIG     1      26.282  28.059  33.323  1.00  0.00     0.032 A 
HETATM   13  C   LIG     1      27.011  27.587  32.234  1.00  0.00     0.005 A 
HETATM   14  C   LIG     1      28.303  28.056  31.999  1.00  0.00     0.030 A 
ENDROOT
BRANCH   1  15
HETATM   15  N   LIG     1      30.217  29.466  32.531  1.00  0.00    -0.398 N 
HETATM   16  H   LIG     1      30.463  29.722  31.548  1.00  0.00     0.156 HD
HETATM   17  H   LIG     1      30.956  29.628  33.246  1.00  0.00     0.156 HD
ENDBRANCH   1  15
TORSDOF 1
ENDMDL
MODEL 14
REMARK VINA RESULT:      -4.9     17.094     18.216
REMARK  1 active torsions:
REMARK  status: ('A' for Active; 'I' for Inactive)
REMARK    1  A    between atoms: N_1  and  C_2 
ROOT
HETATM    1  C   LIG     1      28.586  31.693  37.019  1.00  0.00     0.038 A 
HETATM    2  C   LIG     1      28.055  30.787  36.060  1.00  0.00     0.020 A 
HETATM    3  C   LIG     1      28.811  30.270  34.986  1.00  0.00     0.030 A 
HETATM    4  C   LIG     1      28.231  29.375  34.078  1.00  0.00    -0.006 A 
HETATM    5  C   LIG     1      28.968  28.848  33.005  1.00  0.00     0.014 A 
HETATM    6  C   LIG     1      28.365  27.956  32.112  1.00  0.00     0.001 A 
HETATM    7  C   LIG     1      27.028  27.588  32.283  1.00  0.00     0.002 A 
HETATM    8  C   LIG     1      26.286  28.109  33.347  1.00  0.00     0.032 A 
HETATM    9  C   LIG     1      26.881  29.002  34.245  1.00  0.00     0.067 A 
HETATM   10  N   LIG     1      26.161  29.512  35.275  1.00  0.00    -0.247 NA
HETATM   11  C   LIG     1      26.697  30.381  36.171  1.00  0.00     0.070 A 
HETATM   12  C   LIG     1      25.894  30.877  37.202  1.00  0.00     0.032 A 
HETATM   13  C   LIG     1      26.419  31.776  38.129  1.00  0.00     0.005 A 
HETATM   14  C   LIG     1      27.750  32.180  38.037  1.00  0.00     0.030 A 
ENDROOT
BRANCH   1  15
HETATM   15  N   LIG     1      29.953  32.132  36.998  1.00  0.00    -0.398 N 
HETATM   16  H   LIG     1      30.725  31.437  36.891  1.00  0.00     0.156 HD
HETATM   17  H   LIG     1      30.237  33.134  37.019  1.00  0.00     0.156 HD
ENDBRANCH   1  15
TORSDOF 1
ENDMDL
MODEL 15
REMARK VINA RESULT:      -4.9     17.131     18.209
REMARK  1 active torsions:
REMARK  status: ('A' for Active; 'I' for Inactive)
REMARK    1  A    between atoms: N_1  and  C_2 
ROOT
HETATM    1  C   LIG     1      26.730  30.578  37.355  1.00  0.00     0.038 A 
HETATM    2  C   LIG     1      27.204  30.111  36.098  1.00  0.00     0.020 A 
HETATM    3  C   LIG     1      26.510  29.163  35.316  1.00  0.00     0.030 A 
HETATM    4  C   LIG     1      27.027  28.747  34.083  1.00  0.00    -0.006 A 
HETATM    5  C   LIG     1      26.349  27.807  33.289  1.00  0.00     0.014 A 
HETATM    6  C   LIG     1      26.887  27.409  32.061  1.00  0.00     0.001 A 
HETATM    7  C   LIG     1      28.101  27.943  31.620  1.00  0.00     0.002 A 
HETATM    8  C   LIG     1      28.784  28.878  32.404  1.00  0.00     0.032 A 
HETATM    9  C   LIG     1      28.253  29.282  33.634  1.00  0.00     0.067 A 
HETATM   10  N   LIG     1      28.917  30.185  34.398  1.00  0.00    -0.247 NA
HETATM   11  C   LIG     1      28.439  30.607  35.598  1.00  0.00     0.070 A 
HETATM   12  C   LIG     1      29.180  31.531  36.339  1.00  0.00     0.032 A 
HETATM   13  C   LIG     1      28.715  31.972  37.576  1.00  0.00     0.005 A 
HETATM   14  C   LIG     1      27.504  31.499  38.079  1.00  0.00     0.030 A 
ENDROOT
BRANCH   1  15
HETATM   15  N   LIG     1      25.481  30.151  37.921  1.00  0.00    -0.398 N 
HETATM   16  H   LIG     1      24.580  30.427  37.469  1.00  0.00     0.156 HD
HETATM   17  H   LIG     1      25.407  29.513  38.740  1.00  0.00     0.156 HD
ENDBRANCH   1  15
TORSDOF 1
ENDMDL
MODEL 16
REMARK VINA RESULT:      -4.8     17.044     18.878
REMARK  1 active torsions:
REMARK  status: ('A' for Active; 'I' for Inactive)
REMARK    1  A    between atoms: N_1  and  C_2 
ROOT
HETATM    1  C   LIG     1      27.564  25.947  34.734  1.00  0.00     0.038 A 
HETATM    2  C   LIG     1      27.194  27.283  35.058  1.00  0.00     0.020 A 
HETATM    3  C   LIG     1      27.293  27.816  36.361  1.00  0.00     0.030 A 
HETATM    4  C   LIG     1      26.919  29.141  36.614  1.00  0.00    -0.006 A 
HETATM    5  C   LIG     1      27.013  29.690  37.903  1.00  0.00     0.014 A 
HETATM    6  C   LIG     1      26.632  31.017  38.129  1.00  0.00     0.001 A 
HETATM    7  C   LIG     1      26.155  31.800  37.075  1.00  0.00     0.002 A 
HETATM    8  C   LIG     1      26.056  31.262  35.788  1.00  0.00     0.032 A 
HETATM    9  C   LIG     1      26.435  29.935  35.553  1.00  0.00     0.067 A 
HETATM   10  N   LIG     1      26.335  29.410  34.307  1.00  0.00    -0.247 NA
HETATM   11  C   LIG     1      26.691  28.128  34.032  1.00  0.00     0.070 A 
HETATM   12  C   LIG     1      26.551  27.647  32.727  1.00  0.00     0.032 A 
HETATM   13  C   LIG     1      26.902  26.334  32.422  1.00  0.00     0.005 A 
HETATM   14  C   LIG     1      27.402  25.493  33.416  1.00  0.00     0.030 A 
ENDROOT
BRANCH   1  15
HETATM   15  N   LIG     1      28.107  25.036  35.702  1.00  0.00    -0.398 N 
HETATM   16  H   LIG     1      29.079  24.671  35.590  1.00  0.00     0.156 HD
HETATM   17  H   LIG     1      27.608  24.753  36.571  1.00  0.00     0.156 HD
ENDBRANCH   1  15
TORSDOF 1
ENDMDL
MODEL 17
REMARK VINA RESULT:      -4.8     17.259     18.948
REMARK  1 active torsions:
REMARK  status: ('A' for Active; 'I' for Inactive)
REMARK    1  A    between atoms: N_1  and  C_2 
ROOT
HETATM    1  C   LIG     1      26.953  26.825  33.220  1.00  0.00     0.038 A 
HETATM    2  C   LIG     1      26.887  27.616  34.401  1.00  0.00     0.020 A 
HETATM    3  C   LIG     1      26.514  28.977  34.398  1.00  0.00     0.030 A 
HETATM    4  C   LIG     1      26.462  29.700  35.596  1.00  0.00    -0.006 A 
HETATM    5  C   LIG     1      26.090  31.054  35.613  1.00  0.00     0.014 A 
HETATM    6  C   LIG     1      26.046  31.754  36.823  1.00  0.00     0.001 A 
HETATM    7  C   LIG     1      26.375  31.109  38.019  1.00  0.00     0.002 A 
HETATM    8  C   LIG     1      26.749  29.762  38.012  1.00  0.00     0.032 A 
HETATM    9  C   LIG     1      26.795  29.055  36.805  1.00  0.00     0.067 A 
HETATM   10  N   LIG     1      27.162  27.749  36.796  1.00  0.00    -0.247 NA
HETATM   11  C   LIG     1      27.220  27.022  35.649  1.00  0.00     0.070 A 
HETATM   12  C   LIG     1      27.618  25.684  35.710  1.00  0.00     0.032 A 
HETATM   13  C   LIG     1      27.694  24.921  34.547  1.00  0.00     0.005 A 
HETATM   14  C   LIG     1      27.366  25.486  33.315  1.00  0.00     0.030 A 
ENDROOT
BRANCH   1  15
HETATM   15  N   LIG     1      26.607  27.336  31.923  1.00  0.00    -0.398 N 
HETATM   16  H   LIG     1      27.358  27.590  31.243  1.00  0.00     0.156 HD
HETATM   17  H   LIG     1      25.628  27.415  31.577  1.00  0.00     0.156 HD
ENDBRANCH   1  15
TORSDOF 1
ENDMDL
MODEL 18
REMARK VINA RESULT:      -4.6     15.298     16.538
REMARK  1 active torsions:
REMARK  status: ('A' for Active; 'I' for Inactive)
REMARK    1  A    between atoms: N_1  and  C_2 
ROOT
HETATM    1  C   LIG     1      24.094  21.274  19.060  1.00  0.00     0.038 A 
HETATM    2  C   LIG     1      24.929  22.416  19.208  1.00  0.00     0.020 A 
HETATM    3  C   LIG     1      25.881  22.806  18.242  1.00  0.00     0.030 A 
HETATM    4  C   LIG     1      26.670  23.946  18.444  1.00  0.00    -0.006 A 
HETATM    5  C   LIG     1      27.619  24.351  17.492  1.00  0.00     0.014 A 
HETATM    6  C   LIG     1      28.394  25.494  17.719  1.00  0.00     0.001 A 
HETATM    7  C   LIG     1      28.228  26.234  18.893  1.00  0.00     0.002 A 
HETATM    8  C   LIG     1      27.287  25.836  19.847  1.00  0.00     0.032 A 
HETATM    9  C   LIG     1      26.507  24.695  19.628  1.00  0.00     0.067 A 
HETATM   10  N   LIG     1      25.597  24.305  20.555  1.00  0.00    -0.247 NA
HETATM   11  C   LIG     1      24.817  23.205  20.386  1.00  0.00     0.070 A 
HETATM   12  C   LIG     1      23.908  22.854  21.386  1.00  0.00     0.032 A 
HETATM   13  C   LIG     1      23.104  21.725  21.239  1.00  0.00     0.005 A 
HETATM   14  C   LIG     1      23.197  20.943  20.088  1.00  0.00     0.030 A 
ENDROOT
BRANCH   1  15
HETATM   15  N   LIG     1      24.122  20.439  17.892  1.00  0.00    -0.398 N 
HETATM   16  H   LIG     1      23.309  20.429  17.236  1.00  0.00     0.156 HD
HETATM   17  H   LIG     1      24.947  19.871  17.609  1.00  0.00     0.156 HD
ENDBRANCH   1  15
TORSDOF 1
ENDMDL
MODEL 19
REMARK VINA RESULT:      -4.6     15.872     16.848
REMARK  1 active torsions:
REMARK  status: ('A' for Active; 'I' for Inactive)
REMARK    1  A    between atoms: N_1  and  C_2 
ROOT
HETATM    1  C   LIG     1      28.145  24.912  17.939  1.00  0.00     0.038 A 
HETATM    2  C   LIG     1      27.067  24.316  18.652  1.00  0.00     0.020 A 
HETATM    3  C   LIG     1      26.089  23.506  18.035  1.00  0.00     0.030 A 
HETATM    4  C   LIG     1      25.055  22.942  18.794  1.00  0.00    -0.006 A 
HETATM    5  C   LIG     1      24.075  22.132  18.199  1.00  0.00     0.014 A 
HETATM    6  C   LIG     1      23.053  21.581  18.979  1.00  0.00     0.001 A 
HETATM    7  C   LIG     1      23.003  21.836  20.352  1.00  0.00     0.002 A 
HETATM    8  C   LIG     1      23.973  22.644  20.953  1.00  0.00     0.032 A 
HETATM    9  C   LIG     1      24.999  23.199  20.180  1.00  0.00     0.067 A 
HETATM   10  N   LIG     1      25.938  23.987  20.760  1.00  0.00    -0.247 NA
HETATM   11  C   LIG     1      26.953  24.546  20.050  1.00  0.00     0.070 A 
HETATM   12  C   LIG     1      27.880  25.357  20.710  1.00  0.00     0.032 A 
HETATM   13  C   LIG     1      28.924  25.948  20.001  1.00  0.00     0.005 A 
HETATM   14  C   LIG     1      29.053  25.729  18.631  1.00  0.00     0.030 A 
ENDROOT
BRANCH   1  15
HETATM   15  N   LIG     1      28.351  24.709  16.533  1.00  0.00    -0.398 N 
HETATM   16  H   LIG     1      27.836  23.951  16.032  1.00  0.00     0.156 HD
HETATM   17  H   LIG     1      28.950  25.324  15.944  1.00  0.00     0.156 HD
ENDBRANCH   1  15
TORSDOF 1
ENDMDL
MODEL 20
REMARK VINA RESULT:      -4.6     15.610     16.203
REMARK  1 active torsions:
REMARK  status: ('A' for Active; 'I' for Inactive)
REMARK    1  A    between atoms: N_1  and  C_2 
ROOT
HETATM    1  C   LIG     1      24.017  22.521  21.047  1.00  0.00     0.038 A 
HETATM    2  C   LIG     1      24.977  23.141  20.199  1.00  0.00     0.020 A 
HETATM    3  C   LIG     1      25.877  24.131  20.647  1.00  0.00     0.030 A 
HETATM    4  C   LIG     1      26.803  24.699  19.764  1.00  0.00    -0.006 A 
HETATM    5  C   LIG     1      27.709  25.683  20.193  1.00  0.00     0.014 A 
HETATM    6  C   LIG     1      28.624  26.234  19.290  1.00  0.00     0.001 A 
HETATM    7  C   LIG     1      28.639  25.811  17.958  1.00  0.00     0.002 A 
HETATM    8  C   LIG     1      27.739  24.834  17.521  1.00  0.00     0.032 A 
HETATM    9  C   LIG     1      26.821  24.276  18.418  1.00  0.00     0.067 A 
HETATM   10  N   LIG     1      25.944  23.331  17.995  1.00  0.00    -0.247 NA
HETATM   11  C   LIG     1      25.035  22.762  18.830  1.00  0.00     0.070 A 
HETATM   12  C   LIG     1      24.154  21.803  18.325  1.00  0.00     0.032 A 
HETATM   13  C   LIG     1      23.208  21.211  19.159  1.00  0.00     0.005 A 
HETATM   14  C   LIG     1      23.140  21.567  20.505  1.00  0.00     0.030 A 
ENDROOT
BRANCH   1  15
HETATM   15  N   LIG     1      23.908  22.823  22.446  1.00  0.00    -0.398 N 
HETATM   16  H   LIG     1      23.108  22.447  23.002  1.00  0.00     0.156 HD
HETATM   17  H   LIG     1      24.627  23.355  22.979  1.00  0.00     0.156 HD
ENDBRANCH   1  15
TORSDOF 1
ENDMDL
