MODEL 1
REMARK VINA RESULT:      -7.2      0.000      0.000
REMARK  1 active torsions:
REMARK  status: ('A' for Active; 'I' for Inactive)
REMARK    1  A    between atoms: O_1  and  C_2 
ROOT
HETATM    1  C   LIG     1      17.469  37.616  25.553  1.00  0.00     0.078 A 
HETATM    2  C   LIG     1      17.076  36.993  24.339  1.00  0.00     0.026 A 
HETATM    3  C   LIG     1      16.527  37.704  23.253  1.00  0.00     0.018 A 
HETATM    4  C   LIG     1      16.161  37.031  22.086  1.00  0.00     0.020 A 
HETATM    5  C   LIG     1      16.339  35.651  22.001  1.00  0.00     0.117 A 
HETATM    6  N   LIG     1      16.867  34.968  23.049  1.00  0.00    -0.260 NA
HETATM    7  C   LIG     1      17.236  35.590  24.201  1.00  0.00     0.069 A 
HETATM    8  C   LIG     1      17.774  34.835  25.247  1.00  0.00     0.032 A 
HETATM    9  C   LIG     1      18.157  35.456  26.434  1.00  0.00     0.005 A 
HETATM   10  C   LIG     1      18.006  36.835  26.585  1.00  0.00     0.037 A 
ENDROOT
BRANCH   1  11
HETATM   11  O   LIG     1      17.350  38.990  25.782  1.00  0.00    -0.360 OA
HETATM   12  H   LIG     1      18.132  39.622  25.874  1.00  0.00     0.217 HD
ENDBRANCH   1  11
TORSDOF 1
ENDMDL
MODEL 2
REMARK VINA RESULT:      -7.0      2.198      4.107
REMARK  1 active torsions:
REMARK  status: ('A' for Active; 'I' for Inactive)
REMARK    1  A    between atoms: O_1  and  C_2 
ROOT
HETATM    1  C   LIG     1      16.774  36.014  22.795  1.00  0.00     0.078 A 
HETATM    2  C   LIG     1      17.242  36.029  24.135  1.00  0.00     0.026 A 
HETATM    3  C   LIG     1      17.405  34.861  24.906  1.00  0.00     0.018 A 
HETATM    4  C   LIG     1      17.870  34.945  26.219  1.00  0.00     0.020 A 
HETATM    5  C   LIG     1      18.171  36.192  26.765  1.00  0.00     0.117 A 
HETATM    6  N   LIG     1      18.012  37.316  26.022  1.00  0.00    -0.260 NA
HETATM    7  C   LIG     1      17.562  37.273  24.739  1.00  0.00     0.069 A 
HETATM    8  C   LIG     1      17.418  38.463  24.021  1.00  0.00     0.032 A 
HETATM    9  C   LIG     1      16.958  38.437  22.705  1.00  0.00     0.005 A 
HETATM   10  C   LIG     1      16.639  37.222  22.098  1.00  0.00     0.037 A 
ENDROOT
BRANCH   1  11
HETATM   11  O   LIG     1      16.433  34.840  22.116  1.00  0.00    -0.360 OA
HETATM   12  H   LIG     1      17.079  34.292  21.566  1.00  0.00     0.217 HD
ENDBRANCH   1  11
TORSDOF 1
ENDMDL
MODEL 3
REMARK VINA RESULT:      -6.9      1.084      3.343
REMARK  1 active torsions:
REMARK  status: ('A' for Active; 'I' for Inactive)
REMARK    1  A    between atoms: O_1  and  C_2 
ROOT
HETATM    1  C   LIG     1      16.847  37.906  23.296  1.00  0.00     0.078 A 
HETATM    2  C   LIG     1      17.258  37.041  24.343  1.00  0.00     0.026 A 
HETATM    3  C   LIG     1      17.687  37.507  25.602  1.00  0.00     0.018 A 
HETATM    4  C   LIG     1      18.079  36.602  26.590  1.00  0.00     0.020 A 
HETATM    5  C   LIG     1      18.045  35.234  26.324  1.00  0.00     0.117 A 
HETATM    6  N   LIG     1      17.634  34.787  25.111  1.00  0.00    -0.260 NA
HETATM    7  C   LIG     1      17.244  35.639  24.124  1.00  0.00     0.069 A 
HETATM    8  C   LIG     1      16.829  35.121  22.894  1.00  0.00     0.032 A 
HETATM    9  C   LIG     1      16.427  35.980  21.872  1.00  0.00     0.005 A 
HETATM   10  C   LIG     1      16.436  37.360  22.072  1.00  0.00     0.037 A 
ENDROOT
BRANCH   1  11
HETATM   11  O   LIG     1      16.828  39.299  23.416  1.00  0.00    -0.360 OA
HETATM   12  H   LIG     1      16.345  39.801  24.147  1.00  0.00     0.217 HD
ENDBRANCH   1  11
TORSDOF 1
ENDMDL
MODEL 4
REMARK VINA RESULT:      -6.8      3.056      4.051
REMARK  1 active torsions:
REMARK  status: ('A' for Active; 'I' for Inactive)
REMARK    1  A    between atoms: O_1  and  C_2 
ROOT
HETATM    1  C   LIG     1      16.881  38.226  22.416  1.00  0.00     0.078 A 
HETATM    2  C   LIG     1      17.860  38.123  21.393  1.00  0.00     0.026 A 
HETATM    3  C   LIG     1      18.734  39.176  21.056  1.00  0.00     0.018 A 
HETATM    4  C   LIG     1      19.676  39.008  20.039  1.00  0.00     0.020 A 
HETATM    5  C   LIG     1      19.747  37.794  19.358  1.00  0.00     0.117 A 
HETATM    6  N   LIG     1      18.904  36.782  19.684  1.00  0.00    -0.260 NA
HETATM    7  C   LIG     1      17.974  36.908  20.669  1.00  0.00     0.069 A 
HETATM    8  C   LIG     1      17.132  35.831  20.960  1.00  0.00     0.032 A 
HETATM    9  C   LIG     1      16.174  35.944  21.967  1.00  0.00     0.005 A 
HETATM   10  C   LIG     1      16.050  37.131  22.688  1.00  0.00     0.037 A 
ENDROOT
BRANCH   1  11
HETATM   11  O   LIG     1      16.693  39.381  23.182  1.00  0.00    -0.360 OA
HETATM   12  H   LIG     1      17.371  39.748  23.834  1.00  0.00     0.217 HD
ENDBRANCH   1  11
TORSDOF 1
ENDMDL
MODEL 5
REMARK VINA RESULT:      -6.7      3.156      4.537
REMARK  1 active torsions:
REMARK  status: ('A' for Active; 'I' for Inactive)
REMARK    1  A    between atoms: O_1  and  C_2 
ROOT
HETATM    1  C   LIG     1      18.794  39.055  21.161  1.00  0.00     0.078 A 
HETATM    2  C   LIG     1      17.918  37.944  21.277  1.00  0.00     0.026 A 
HETATM    3  C   LIG     1      16.886  37.875  22.234  1.00  0.00     0.018 A 
HETATM    4  C   LIG     1      16.059  36.752  22.295  1.00  0.00     0.020 A 
HETATM    5  C   LIG     1      16.260  35.698  21.406  1.00  0.00     0.117 A 
HETATM    6  N   LIG     1      17.255  35.766  20.485  1.00  0.00    -0.260 NA
HETATM    7  C   LIG     1      18.080  36.843  20.395  1.00  0.00     0.069 A 
HETATM    8  C   LIG     1      19.088  36.858  19.427  1.00  0.00     0.032 A 
HETATM    9  C   LIG     1      19.942  37.954  19.322  1.00  0.00     0.005 A 
HETATM   10  C   LIG     1      19.796  39.043  20.181  1.00  0.00     0.037 A 
ENDROOT
BRANCH   1  11
HETATM   11  O   LIG     1      18.713  40.183  21.983  1.00  0.00    -0.360 OA
HETATM   12  H   LIG     1      19.498  40.770  22.223  1.00  0.00     0.217 HD
ENDBRANCH   1  11
TORSDOF 1
ENDMDL
MODEL 6
REMARK VINA RESULT:      -6.7      3.694      4.853
REMARK  1 active torsions:
REMARK  status: ('A' for Active; 'I' for Inactive)
REMARK    1  A    between atoms: O_1  and  C_2 
ROOT
HETATM    1  C   LIG     1      16.885  36.240  21.157  1.00  0.00     0.078 A 
HETATM    2  C   LIG     1      17.891  37.160  20.763  1.00  0.00     0.026 A 
HETATM    3  C   LIG     1      18.828  36.887  19.746  1.00  0.00     0.018 A 
HETATM    4  C   LIG     1      19.793  37.837  19.405  1.00  0.00     0.020 A 
HETATM    5  C   LIG     1      19.827  39.057  20.078  1.00  0.00     0.117 A 
HETATM    6  N   LIG     1      18.925  39.318  21.058  1.00  0.00    -0.260 NA
HETATM    7  C   LIG     1      17.970  38.418  21.416  1.00  0.00     0.069 A 
HETATM    8  C   LIG     1      17.068  38.742  22.434  1.00  0.00     0.032 A 
HETATM    9  C   LIG     1      16.083  37.831  22.813  1.00  0.00     0.005 A 
HETATM   10  C   LIG     1      15.993  36.591  22.180  1.00  0.00     0.037 A 
ENDROOT
BRANCH   1  11
HETATM   11  O   LIG     1      16.729  34.980  20.574  1.00  0.00    -0.360 OA
HETATM   12  H   LIG     1      17.447  34.502  20.049  1.00  0.00     0.217 HD
ENDBRANCH   1  11
TORSDOF 1
ENDMDL
MODEL 7
REMARK VINA RESULT:      -6.5      3.426      5.002
REMARK  1 active torsions:
REMARK  status: ('A' for Active; 'I' for Inactive)
REMARK    1  A    between atoms: O_1  and  C_2 
ROOT
HETATM    1  C   LIG     1      18.454  37.356  19.758  1.00  0.00     0.078 A 
HETATM    2  C   LIG     1      17.881  37.033  21.016  1.00  0.00     0.026 A 
HETATM    3  C   LIG     1      17.313  35.776  21.302  1.00  0.00     0.018 A 
HETATM    4  C   LIG     1      16.766  35.523  22.561  1.00  0.00     0.020 A 
HETATM    5  C   LIG     1      16.783  36.521  23.534  1.00  0.00     0.117 A 
HETATM    6  N   LIG     1      17.329  37.732  23.256  1.00  0.00    -0.260 NA
HETATM    7  C   LIG     1      17.872  38.015  22.041  1.00  0.00     0.069 A 
HETATM    8  C   LIG     1      18.421  39.280  21.812  1.00  0.00     0.032 A 
HETATM    9  C   LIG     1      18.982  39.586  20.572  1.00  0.00     0.005 A 
HETATM   10  C   LIG     1      18.998  38.632  19.555  1.00  0.00     0.037 A 
ENDROOT
BRANCH   1  11
HETATM   11  O   LIG     1      18.509  36.458  18.688  1.00  0.00    -0.360 OA
HETATM   12  H   LIG     1      17.699  36.051  18.243  1.00  0.00     0.217 HD
ENDBRANCH   1  11
TORSDOF 1
ENDMDL
MODEL 8
REMARK VINA RESULT:      -6.4      1.780      2.577
REMARK  1 active torsions:
REMARK  status: ('A' for Active; 'I' for Inactive)
REMARK    1  A    between atoms: O_1  and  C_2 
ROOT
HETATM    1  C   LIG     1      17.435  35.904  25.242  1.00  0.00     0.078 A 
HETATM    2  C   LIG     1      17.199  35.995  23.845  1.00  0.00     0.026 A 
HETATM    3  C   LIG     1      17.008  34.867  23.023  1.00  0.00     0.018 A 
HETATM    4  C   LIG     1      16.780  35.025  21.655  1.00  0.00     0.020 A 
HETATM    5  C   LIG     1      16.744  36.306  21.106  1.00  0.00     0.117 A 
HETATM    6  N   LIG     1      16.929  37.391  21.899  1.00  0.00    -0.260 NA
HETATM    7  C   LIG     1      17.153  37.276  23.236  1.00  0.00     0.069 A 
HETATM    8  C   LIG     1      17.337  38.429  24.003  1.00  0.00     0.032 A 
HETATM    9  C   LIG     1      17.568  38.329  25.375  1.00  0.00     0.005 A 
HETATM   10  C   LIG     1      17.615  37.077  25.988  1.00  0.00     0.037 A 
ENDROOT
BRANCH   1  11
HETATM   11  O   LIG     1      17.498  34.689  25.931  1.00  0.00    -0.360 OA
HETATM   12  H   LIG     1      16.952  33.873  25.698  1.00  0.00     0.217 HD
ENDBRANCH   1  11
TORSDOF 1
ENDMDL
MODEL 9
REMARK VINA RESULT:      -6.3      2.978      4.604
REMARK  1 active torsions:
REMARK  status: ('A' for Active; 'I' for Inactive)
REMARK    1  A    between atoms: O_1  and  C_2 
ROOT
HETATM    1  C   LIG     1      18.798  38.810  20.434  1.00  0.00     0.078 A 
HETATM    2  C   LIG     1      17.991  38.361  21.512  1.00  0.00     0.026 A 
HETATM    3  C   LIG     1      17.668  39.171  22.619  1.00  0.00     0.018 A 
HETATM    4  C   LIG     1      16.869  38.668  23.647  1.00  0.00     0.020 A 
HETATM    5  C   LIG     1      16.392  37.360  23.574  1.00  0.00     0.117 A 
HETATM    6  N   LIG     1      16.706  36.582  22.508  1.00  0.00    -0.260 NA
HETATM    7  C   LIG     1      17.481  37.037  21.487  1.00  0.00     0.069 A 
HETATM    8  C   LIG     1      17.771  36.190  20.414  1.00  0.00     0.032 A 
HETATM    9  C   LIG     1      18.565  36.641  19.360  1.00  0.00     0.005 A 
HETATM   10  C   LIG     1      19.073  37.940  19.370  1.00  0.00     0.037 A 
ENDROOT
BRANCH   1  11
HETATM   11  O   LIG     1      19.345  40.095  20.370  1.00  0.00    -0.360 OA
HETATM   12  H   LIG     1      18.829  40.943  20.551  1.00  0.00     0.217 HD
ENDBRANCH   1  11
TORSDOF 1
ENDMDL
MODEL 10
REMARK VINA RESULT:      -6.1      9.526     10.877
REMARK  1 active torsions:
REMARK  status: ('A' for Active; 'I' for Inactive)
REMARK    1  A    between atoms: O_1  and  C_2 
ROOT
HETATM    1  C   LIG     1      13.893  31.487  16.485  1.00  0.00     0.078 A 
HETATM    2  C   LIG     1      14.992  31.968  15.727  1.00  0.00     0.026 A 
HETATM    3  C   LIG     1      15.778  33.068  16.124  1.00  0.00     0.018 A 
HETATM    4  C   LIG     1      16.847  33.491  15.331  1.00  0.00     0.020 A 
HETATM    5  C   LIG     1      17.133  32.819  14.144  1.00  0.00     0.117 A 
HETATM    6  N   LIG     1      16.374  31.761  13.762  1.00  0.00    -0.260 NA
HETATM    7  C   LIG     1      15.326  31.320  14.509  1.00  0.00     0.069 A 
HETATM    8  C   LIG     1      14.579  30.225  14.066  1.00  0.00     0.032 A 
HETATM    9  C   LIG     1      13.502  29.761  14.818  1.00  0.00     0.005 A 
HETATM   10  C   LIG     1      13.162  30.387  16.018  1.00  0.00     0.037 A 
ENDROOT
BRANCH   1  11
HETATM   11  O   LIG     1      13.489  32.060  17.695  1.00  0.00    -0.360 OA
HETATM   12  H   LIG     1      14.092  32.596  18.301  1.00  0.00     0.217 HD
ENDBRANCH   1  11
TORSDOF 1
ENDMDL
MODEL 11
REMARK VINA RESULT:      -6.0      9.008     10.689
REMARK  1 active torsions:
REMARK  status: ('A' for Active; 'I' for Inactive)
REMARK    1  A    between atoms: O_1  and  C_2 
ROOT
HETATM    1  C   LIG     1      14.104  32.242  16.751  1.00  0.00     0.078 A 
HETATM    2  C   LIG     1      14.481  31.401  15.671  1.00  0.00     0.026 A 
HETATM    3  C   LIG     1      13.758  30.247  15.308  1.00  0.00     0.018 A 
HETATM    4  C   LIG     1      14.182  29.462  14.234  1.00  0.00     0.020 A 
HETATM    5  C   LIG     1      15.325  29.825  13.523  1.00  0.00     0.117 A 
HETATM    6  N   LIG     1      16.020  30.936  13.876  1.00  0.00    -0.260 NA
HETATM    7  C   LIG     1      15.637  31.725  14.916  1.00  0.00     0.069 A 
HETATM    8  C   LIG     1      16.393  32.858  15.233  1.00  0.00     0.032 A 
HETATM    9  C   LIG     1      16.014  33.677  16.295  1.00  0.00     0.005 A 
HETATM   10  C   LIG     1      14.879  33.371  17.047  1.00  0.00     0.037 A 
ENDROOT
BRANCH   1  11
HETATM   11  O   LIG     1      12.983  32.005  17.552  1.00  0.00    -0.360 OA
HETATM   12  H   LIG     1      12.111  32.507  17.475  1.00  0.00     0.217 HD
ENDBRANCH   1  11
TORSDOF 1
ENDMDL
MODEL 12
REMARK VINA RESULT:      -6.0      9.599     10.951
REMARK  1 active torsions:
REMARK  status: ('A' for Active; 'I' for Inactive)
REMARK    1  A    between atoms: O_1  and  C_2 
ROOT
HETATM    1  C   LIG     1      14.479  30.747  14.818  1.00  0.00     0.078 A 
HETATM    2  C   LIG     1      15.449  31.777  14.701  1.00  0.00     0.026 A 
HETATM    3  C   LIG     1      16.244  31.958  13.551  1.00  0.00     0.018 A 
HETATM    4  C   LIG     1      17.180  32.992  13.500  1.00  0.00     0.020 A 
HETATM    5  C   LIG     1      17.326  33.845  14.593  1.00  0.00     0.117 A 
HETATM    6  N   LIG     1      16.561  33.668  15.700  1.00  0.00    -0.260 NA
HETATM    7  C   LIG     1      15.638  32.672  15.786  1.00  0.00     0.069 A 
HETATM    8  C   LIG     1      14.878  32.539  16.951  1.00  0.00     0.032 A 
HETATM    9  C   LIG     1      13.929  31.524  17.055  1.00  0.00     0.005 A 
HETATM   10  C   LIG     1      13.731  30.636  15.997  1.00  0.00     0.037 A 
ENDROOT
BRANCH   1  11
HETATM   11  O   LIG     1      14.222  29.819  13.805  1.00  0.00    -0.360 OA
HETATM   12  H   LIG     1      14.829  29.655  13.015  1.00  0.00     0.217 HD
ENDBRANCH   1  11
TORSDOF 1
ENDMDL
MODEL 13
REMARK VINA RESULT:      -5.9      2.024      2.689
REMARK  1 active torsions:
REMARK  status: ('A' for Active; 'I' for Inactive)
REMARK    1  A    between atoms: O_1  and  C_2 
ROOT
HETATM    1  C   LIG     1      17.480  37.499  24.259  1.00  0.00     0.078 A 
HETATM    2  C   LIG     1      17.797  37.805  22.910  1.00  0.00     0.026 A 
HETATM    3  C   LIG     1      18.237  39.077  22.492  1.00  0.00     0.018 A 
HETATM    4  C   LIG     1      18.532  39.312  21.149  1.00  0.00     0.020 A 
HETATM    5  C   LIG     1      18.389  38.282  20.221  1.00  0.00     0.117 A 
HETATM    6  N   LIG     1      17.965  37.058  20.624  1.00  0.00    -0.260 NA
HETATM    7  C   LIG     1      17.668  36.792  21.925  1.00  0.00     0.069 A 
HETATM    8  C   LIG     1      17.235  35.512  22.283  1.00  0.00     0.032 A 
HETATM    9  C   LIG     1      16.926  35.222  23.611  1.00  0.00     0.005 A 
HETATM   10  C   LIG     1      17.049  36.208  24.590  1.00  0.00     0.037 A 
ENDROOT
BRANCH   1  11
HETATM   11  O   LIG     1      17.575  38.430  25.298  1.00  0.00    -0.360 OA
HETATM   12  H   LIG     1      16.791  38.934  25.686  1.00  0.00     0.217 HD
ENDBRANCH   1  11
TORSDOF 1
ENDMDL
MODEL 14
REMARK VINA RESULT:      -5.8      8.842     11.151
REMARK  1 active torsions:
REMARK  status: ('A' for Active; 'I' for Inactive)
REMARK    1  A    between atoms: O_1  and  C_2 
ROOT
HETATM    1  C   LIG     1      14.482  30.419  14.463  1.00  0.00     0.078 A 
HETATM    2  C   LIG     1      14.630  31.190  15.646  1.00  0.00     0.026 A 
HETATM    3  C   LIG     1      13.869  30.966  16.810  1.00  0.00     0.018 A 
HETATM    4  C   LIG     1      14.065  31.761  17.941  1.00  0.00     0.020 A 
HETATM    5  C   LIG     1      15.016  32.779  17.912  1.00  0.00     0.117 A 
HETATM    6  N   LIG     1      15.747  32.995  16.789  1.00  0.00    -0.260 NA
HETATM    7  C   LIG     1      15.584  32.240  15.669  1.00  0.00     0.069 A 
HETATM    8  C   LIG     1      16.365  32.508  14.541  1.00  0.00     0.032 A 
HETATM    9  C   LIG     1      16.212  31.745  13.385  1.00  0.00     0.005 A 
HETATM   10  C   LIG     1      15.278  30.709  13.347  1.00  0.00     0.037 A 
ENDROOT
BRANCH   1  11
HETATM   11  O   LIG     1      13.569  29.367  14.344  1.00  0.00    -0.360 OA
HETATM   12  H   LIG     1      12.697  29.423  13.839  1.00  0.00     0.217 HD
ENDBRANCH   1  11
TORSDOF 1
ENDMDL
MODEL 15
REMARK VINA RESULT:      -5.7      8.885     11.119
REMARK  1 active torsions:
REMARK  status: ('A' for Active; 'I' for Inactive)
REMARK    1  A    between atoms: O_1  and  C_2 
ROOT
HETATM    1  C   LIG     1      15.776  31.451  14.107  1.00  0.00     0.078 A 
HETATM    2  C   LIG     1      15.260  31.714  15.403  1.00  0.00     0.026 A 
HETATM    3  C   LIG     1      15.715  32.774  16.212  1.00  0.00     0.018 A 
HETATM    4  C   LIG     1      15.164  32.978  17.478  1.00  0.00     0.020 A 
HETATM    5  C   LIG     1      14.162  32.127  17.940  1.00  0.00     0.117 A 
HETATM    6  N   LIG     1      13.726  31.105  17.160  1.00  0.00    -0.260 NA
HETATM    7  C   LIG     1      14.238  30.876  15.921  1.00  0.00     0.069 A 
HETATM    8  C   LIG     1      13.749  29.808  15.163  1.00  0.00     0.032 A 
HETATM    9  C   LIG     1      14.263  29.560  13.891  1.00  0.00     0.005 A 
HETATM   10  C   LIG     1      15.267  30.375  13.368  1.00  0.00     0.037 A 
ENDROOT
BRANCH   1  11
HETATM   11  O   LIG     1      16.781  32.220  13.513  1.00  0.00    -0.360 OA
HETATM   12  H   LIG     1      16.749  32.567  12.566  1.00  0.00     0.217 HD
ENDBRANCH   1  11
TORSDOF 1
ENDMDL
MODEL 16
REMARK VINA RESULT:      -5.6      8.656     10.324
REMARK  1 active torsions:
REMARK  status: ('A' for Active; 'I' for Inactive)
REMARK    1  A    between atoms: O_1  and  C_2 
ROOT
HETATM    1  C   LIG     1      15.553  33.249  16.268  1.00  0.00     0.078 A 
HETATM    2  C   LIG     1      15.404  32.201  15.322  1.00  0.00     0.026 A 
HETATM    3  C   LIG     1      16.027  32.212  14.058  1.00  0.00     0.018 A 
HETATM    4  C   LIG     1      15.839  31.149  13.173  1.00  0.00     0.020 A 
HETATM    5  C   LIG     1      15.031  30.076  13.546  1.00  0.00     0.117 A 
HETATM    6  N   LIG     1      14.432  30.067  14.763  1.00  0.00    -0.260 NA
HETATM    7  C   LIG     1      14.592  31.085  15.652  1.00  0.00     0.069 A 
HETATM    8  C   LIG     1      13.949  31.022  16.891  1.00  0.00     0.032 A 
HETATM    9  C   LIG     1      14.102  32.056  17.813  1.00  0.00     0.005 A 
HETATM   10  C   LIG     1      14.898  33.160  17.504  1.00  0.00     0.037 A 
ENDROOT
BRANCH   1  11
HETATM   11  O   LIG     1      16.331  34.387  16.034  1.00  0.00    -0.360 OA
HETATM   12  H   LIG     1      16.537  34.757  15.118  1.00  0.00     0.217 HD
ENDBRANCH   1  11
TORSDOF 1
ENDMDL
MODEL 17
REMARK VINA RESULT:      -5.5      3.298      4.465
REMARK  1 active torsions:
REMARK  status: ('A' for Active; 'I' for Inactive)
REMARK    1  A    between atoms: O_1  and  C_2 
ROOT
HETATM    1  C   LIG     1      17.302  36.199  20.230  1.00  0.00     0.078 A 
HETATM    2  C   LIG     1      17.610  37.154  21.233  1.00  0.00     0.026 A 
HETATM    3  C   LIG     1      18.363  38.319  20.981  1.00  0.00     0.018 A 
HETATM    4  C   LIG     1      18.631  39.219  22.014  1.00  0.00     0.020 A 
HETATM    5  C   LIG     1      18.152  38.960  23.297  1.00  0.00     0.117 A 
HETATM    6  N   LIG     1      17.428  37.837  23.538  1.00  0.00    -0.260 NA
HETATM    7  C   LIG     1      17.147  36.938  22.557  1.00  0.00     0.069 A 
HETATM    8  C   LIG     1      16.397  35.799  22.864  1.00  0.00     0.032 A 
HETATM    9  C   LIG     1      16.099  34.867  21.871  1.00  0.00     0.005 A 
HETATM   10  C   LIG     1      16.548  35.066  20.565  1.00  0.00     0.037 A 
ENDROOT
BRANCH   1  11
HETATM   11  O   LIG     1      17.714  36.325  18.900  1.00  0.00    -0.360 OA
HETATM   12  H   LIG     1      17.333  35.792  18.132  1.00  0.00     0.217 HD
ENDBRANCH   1  11
TORSDOF 1
ENDMDL
MODEL 18
REMARK VINA RESULT:      -5.4      2.442      3.281
REMARK  1 active torsions:
REMARK  status: ('A' for Active; 'I' for Inactive)
REMARK    1  A    between atoms: O_1  and  C_2 
ROOT
HETATM    1  C   LIG     1      17.987  38.146  21.546  1.00  0.00     0.078 A 
HETATM    2  C   LIG     1      17.258  36.929  21.505  1.00  0.00     0.026 A 
HETATM    3  C   LIG     1      17.003  36.224  20.311  1.00  0.00     0.018 A 
HETATM    4  C   LIG     1      16.280  35.031  20.341  1.00  0.00     0.020 A 
HETATM    5  C   LIG     1      15.809  34.539  21.557  1.00  0.00     0.117 A 
HETATM    6  N   LIG     1      16.055  35.220  22.706  1.00  0.00    -0.260 NA
HETATM    7  C   LIG     1      16.756  36.385  22.716  1.00  0.00     0.069 A 
HETATM    8  C   LIG     1      16.979  37.042  23.930  1.00  0.00     0.032 A 
HETATM    9  C   LIG     1      17.696  38.237  23.958  1.00  0.00     0.005 A 
HETATM   10  C   LIG     1      18.195  38.784  22.776  1.00  0.00     0.037 A 
ENDROOT
BRANCH   1  11
HETATM   11  O   LIG     1      18.519  38.758  20.407  1.00  0.00    -0.360 OA
HETATM   12  H   LIG     1      19.361  38.456  19.938  1.00  0.00     0.217 HD
ENDBRANCH   1  11
TORSDOF 1
ENDMDL
MODEL 19
REMARK VINA RESULT:      -5.4      9.288     11.002
REMARK  1 active torsions:
REMARK  status: ('A' for Active; 'I' for Inactive)
REMARK    1  A    between atoms: O_1  and  C_2 
ROOT
HETATM    1  C   LIG     1      16.143  32.296  15.280  1.00  0.00     0.078 A 
HETATM    2  C   LIG     1      15.232  31.248  14.983  1.00  0.00     0.026 A 
HETATM    3  C   LIG     1      15.469  30.283  13.984  1.00  0.00     0.018 A 
HETATM    4  C   LIG     1      14.531  29.278  13.743  1.00  0.00     0.020 A 
HETATM    5  C   LIG     1      13.358  29.234  14.494  1.00  0.00     0.117 A 
HETATM    6  N   LIG     1      13.131  30.165  15.455  1.00  0.00    -0.260 NA
HETATM    7  C   LIG     1      14.022  31.158  15.719  1.00  0.00     0.069 A 
HETATM    8  C   LIG     1      13.735  32.090  16.721  1.00  0.00     0.032 A 
HETATM    9  C   LIG     1      14.637  33.114  17.004  1.00  0.00     0.005 A 
HETATM   10  C   LIG     1      15.830  33.215  16.290  1.00  0.00     0.037 A 
ENDROOT
BRANCH   1  11
HETATM   11  O   LIG     1      17.358  32.466  14.610  1.00  0.00    -0.360 OA
HETATM   12  H   LIG     1      17.505  32.256  13.633  1.00  0.00     0.217 HD
ENDBRANCH   1  11
TORSDOF 1
ENDMDL
MODEL 20
REMARK VINA RESULT:      -5.3      9.576     10.877
REMARK  1 active torsions:
REMARK  status: ('A' for Active; 'I' for Inactive)
REMARK    1  A    between atoms: O_1  and  C_2 
ROOT
HETATM    1  C   LIG     1      15.830  32.955  16.039  1.00  0.00     0.078 A 
HETATM    2  C   LIG     1      15.050  31.867  15.568  1.00  0.00     0.026 A 
HETATM    3  C   LIG     1      14.008  31.285  16.318  1.00  0.00     0.018 A 
HETATM    4  C   LIG     1      13.279  30.215  15.796  1.00  0.00     0.020 A 
HETATM    5  C   LIG     1      13.588  29.724  14.528  1.00  0.00     0.117 A 
HETATM    6  N   LIG     1      14.592  30.284  13.808  1.00  0.00    -0.260 NA
HETATM    7  C   LIG     1      15.324  31.328  14.284  1.00  0.00     0.069 A 
HETATM    8  C   LIG     1      16.347  31.865  13.497  1.00  0.00     0.032 A 
HETATM    9  C   LIG     1      17.106  32.934  13.969  1.00  0.00     0.005 A 
HETATM   10  C   LIG     1      16.848  33.475  15.229  1.00  0.00     0.037 A 
ENDROOT
BRANCH   1  11
HETATM   11  O   LIG     1      15.635  33.552  17.288  1.00  0.00    -0.360 OA
HETATM   12  H   LIG     1      15.970  33.169  18.161  1.00  0.00     0.217 HD
ENDBRANCH   1  11
TORSDOF 1
ENDMDL
