MODEL 1
REMARK VINA RESULT:      -4.9      0.000      0.000
REMARK  6 active torsions:
REMARK  status: ('A' for Active; 'I' for Inactive)
REMARK    1  A    between atoms: C_3  and  N_4 
REMARK    2  A    between atoms: N_4  and  C_5 
REMARK       I    between atoms: N_4  and  C_11 
REMARK    3  A    between atoms: C_5  and  C_6 
REMARK    4  A    between atoms: C_6  and  O_7 
REMARK    5  A    between atoms: C_11  and  C_12 
REMARK    6  A    between atoms: C_12  and  O_13 
ROOT
HETATM    1  N   LIG     1      16.599  36.507  21.359  1.00  0.00    -0.301 N 
HETATM    2  C   LIG     1      17.613  36.477  20.324  1.00  0.00     0.248 C 
HETATM    3  O   LIG     1      17.324  36.078  19.166  1.00  0.00    -0.271 OA
ENDROOT
BRANCH   1   4
HETATM    4  C   LIG     1      16.995  36.857  22.707  1.00  0.00     0.050 A 
HETATM    5  C   LIG     1      17.046  38.217  23.111  1.00  0.00    -0.035 A 
HETATM    6  C   LIG     1      16.785  39.353  22.157  1.00  0.00     0.050 C 
HETATM    7  C   LIG     1      17.360  38.532  24.443  1.00  0.00     0.009 A 
HETATM    8  C   LIG     1      17.629  37.523  25.367  1.00  0.00     0.001 A 
HETATM    9  C   LIG     1      17.605  36.185  24.973  1.00  0.00     0.009 A 
HETATM   10  C   LIG     1      17.304  35.838  23.645  1.00  0.00    -0.035 A 
HETATM   11  C   LIG     1      17.275  34.376  23.279  1.00  0.00     0.050 C 
ENDBRANCH   1   4
BRANCH   1  12
HETATM   12  C   LIG     1      15.229  36.010  21.075  1.00  0.00     0.188 C 
HETATM   13  C   LIG     1      14.214  36.556  22.087  1.00  0.00     0.043 C 
BRANCH  12  14
HETATM   14  C   LIG     1      15.146  34.502  21.073  1.00  0.00     0.281 C 
HETATM   15  O   LIG     1      14.359  33.913  21.858  1.00  0.00    -0.263 OA
BRANCH  14  16
HETATM   16  O   LIG     1      15.949  33.770  20.197  1.00  0.00    -0.325 OA
HETATM   17  C   LIG     1      15.523  32.554  19.602  1.00  0.00     0.213 C 
ENDBRANCH  14  16
ENDBRANCH  12  14
ENDBRANCH   1  12
BRANCH   2  18
HETATM   18  C   LIG     1      19.031  36.906  20.588  1.00  0.00     0.270 C 
BRANCH  18  19
HETATM   19  O   LIG     1      19.509  37.723  19.533  1.00  0.00    -0.387 OA
HETATM   20  C   LIG     1      19.853  39.007  20.016  1.00  0.00     0.202 C 
ENDBRANCH  18  19
ENDBRANCH   2  18
TORSDOF 6
ENDMDL
MODEL 2
REMARK VINA RESULT:      -4.9      1.647      3.544
REMARK  6 active torsions:
REMARK  status: ('A' for Active; 'I' for Inactive)
REMARK    1  A    between atoms: C_3  and  N_4 
REMARK    2  A    between atoms: N_4  and  C_5 
REMARK       I    between atoms: N_4  and  C_11 
REMARK    3  A    between atoms: C_5  and  C_6 
REMARK    4  A    between atoms: C_6  and  O_7 
REMARK    5  A    between atoms: C_11  and  C_12 
REMARK    6  A    between atoms: C_12  and  O_13 
ROOT
HETATM    1  N   LIG     1      16.589  36.207  21.540  1.00  0.00    -0.301 N 
HETATM    2  C   LIG     1      16.777  35.367  22.705  1.00  0.00     0.248 C 
HETATM    3  O   LIG     1      16.050  34.355  22.881  1.00  0.00    -0.271 OA
ENDROOT
BRANCH   1   4
HETATM    4  C   LIG     1      17.361  37.427  21.432  1.00  0.00     0.050 A 
HETATM    5  C   LIG     1      17.029  38.560  22.220  1.00  0.00    -0.035 A 
HETATM    6  C   LIG     1      15.828  38.589  23.129  1.00  0.00     0.050 C 
HETATM    7  C   LIG     1      17.836  39.709  22.156  1.00  0.00     0.009 A 
HETATM    8  C   LIG     1      18.951  39.748  21.320  1.00  0.00     0.001 A 
HETATM    9  C   LIG     1      19.270  38.647  20.523  1.00  0.00     0.009 A 
HETATM   10  C   LIG     1      18.478  37.488  20.558  1.00  0.00    -0.035 A 
HETATM   11  C   LIG     1      18.879  36.323  19.689  1.00  0.00     0.050 C 
ENDBRANCH   1   4
BRANCH   1  12
HETATM   12  C   LIG     1      15.497  35.913  20.578  1.00  0.00     0.188 C 
HETATM   13  C   LIG     1      14.190  35.564  21.302  1.00  0.00     0.043 C 
BRANCH  12  14
HETATM   14  C   LIG     1      15.841  34.785  19.634  1.00  0.00     0.281 C 
HETATM   15  O   LIG     1      15.942  35.004  18.400  1.00  0.00    -0.263 OA
BRANCH  14  16
HETATM   16  O   LIG     1      16.043  33.501  20.142  1.00  0.00    -0.325 OA
HETATM   17  C   LIG     1      15.322  32.370  19.678  1.00  0.00     0.213 C 
ENDBRANCH  14  16
ENDBRANCH  12  14
ENDBRANCH   1  12
BRANCH   2  18
HETATM   18  C   LIG     1      17.827  35.670  23.741  1.00  0.00     0.270 C 
BRANCH  18  19
HETATM   19  O   LIG     1      17.226  35.921  24.999  1.00  0.00    -0.387 OA
HETATM   20  C   LIG     1      17.619  34.943  25.942  1.00  0.00     0.202 C 
ENDBRANCH  18  19
ENDBRANCH   2  18
TORSDOF 6
ENDMDL
MODEL 3
REMARK VINA RESULT:      -4.4     15.009     16.953
REMARK  6 active torsions:
REMARK  status: ('A' for Active; 'I' for Inactive)
REMARK    1  A    between atoms: C_3  and  N_4 
REMARK    2  A    between atoms: N_4  and  C_5 
REMARK       I    between atoms: N_4  and  C_11 
REMARK    3  A    between atoms: C_5  and  C_6 
REMARK    4  A    between atoms: C_6  and  O_7 
REMARK    5  A    between atoms: C_11  and  C_12 
REMARK    6  A    between atoms: C_12  and  O_13 
ROOT
HETATM    1  N   LIG     1      25.594  21.623  19.231  1.00  0.00    -0.301 N 
HETATM    2  C   LIG     1      26.345  22.544  18.403  1.00  0.00     0.248 C 
HETATM    3  O   LIG     1      27.368  22.150  17.784  1.00  0.00    -0.271 OA
ENDROOT
BRANCH   1   4
HETATM    4  C   LIG     1      24.497  22.137  20.022  1.00  0.00     0.050 A 
HETATM    5  C   LIG     1      23.158  21.995  19.573  1.00  0.00    -0.035 A 
HETATM    6  C   LIG     1      22.815  21.392  18.236  1.00  0.00     0.050 C 
HETATM    7  C   LIG     1      22.103  22.434  20.390  1.00  0.00     0.009 A 
HETATM    8  C   LIG     1      22.360  23.016  21.631  1.00  0.00     0.001 A 
HETATM    9  C   LIG     1      23.674  23.183  22.069  1.00  0.00     0.009 A 
HETATM   10  C   LIG     1      24.751  22.762  21.271  1.00  0.00    -0.035 A 
HETATM   11  C   LIG     1      26.149  22.951  21.803  1.00  0.00     0.050 C 
ENDBRANCH   1   4
BRANCH   1  12
HETATM   12  C   LIG     1      26.062  20.223  19.402  1.00  0.00     0.188 C 
HETATM   13  C   LIG     1      25.740  19.371  18.168  1.00  0.00     0.043 C 
BRANCH  12  14
HETATM   14  C   LIG     1      25.466  19.555  20.618  1.00  0.00     0.281 C 
HETATM   15  O   LIG     1      26.089  19.563  21.711  1.00  0.00    -0.263 OA
BRANCH  14  16
HETATM   16  O   LIG     1      24.223  18.928  20.519  1.00  0.00    -0.325 OA
HETATM   17  C   LIG     1      23.261  18.962  21.562  1.00  0.00     0.213 C 
ENDBRANCH  14  16
ENDBRANCH  12  14
ENDBRANCH   1  12
BRANCH   2  18
HETATM   18  C   LIG     1      25.946  23.988  18.259  1.00  0.00     0.270 C 
BRANCH  18  19
HETATM   19  O   LIG     1      27.089  24.826  18.288  1.00  0.00    -0.387 OA
HETATM   20  C   LIG     1      27.072  25.648  19.439  1.00  0.00     0.202 C 
ENDBRANCH  18  19
ENDBRANCH   2  18
TORSDOF 6
ENDMDL
MODEL 4
REMARK VINA RESULT:      -4.4     15.069     16.982
REMARK  6 active torsions:
REMARK  status: ('A' for Active; 'I' for Inactive)
REMARK    1  A    between atoms: C_3  and  N_4 
REMARK    2  A    between atoms: N_4  and  C_5 
REMARK       I    between atoms: N_4  and  C_11 
REMARK    3  A    between atoms: C_5  and  C_6 
REMARK    4  A    between atoms: C_6  and  O_7 
REMARK    5  A    between atoms: C_11  and  C_12 
REMARK    6  A    between atoms: C_12  and  O_13 
ROOT
HETATM    1  N   LIG     1      25.927  21.979  19.102  1.00  0.00    -0.301 N 
HETATM    2  C   LIG     1      26.577  23.109  18.469  1.00  0.00     0.248 C 
HETATM    3  O   LIG     1      27.619  22.939  17.785  1.00  0.00    -0.271 OA
ENDROOT
BRANCH   1   4
HETATM    4  C   LIG     1      24.801  22.227  19.978  1.00  0.00     0.050 A 
HETATM    5  C   LIG     1      25.010  22.672  21.309  1.00  0.00    -0.035 A 
HETATM    6  C   LIG     1      26.386  22.824  21.904  1.00  0.00     0.050 C 
HETATM    7  C   LIG     1      23.904  22.979  22.118  1.00  0.00     0.009 A 
HETATM    8  C   LIG     1      22.605  22.840  21.629  1.00  0.00     0.001 A 
HETATM    9  C   LIG     1      22.391  22.379  20.330  1.00  0.00     0.009 A 
HETATM   10  C   LIG     1      23.476  22.056  19.499  1.00  0.00    -0.035 A 
HETATM   11  C   LIG     1      23.186  21.579  18.098  1.00  0.00     0.050 C 
ENDBRANCH   1   4
BRANCH   1  12
HETATM   12  C   LIG     1      26.523  20.622  18.998  1.00  0.00     0.188 C 
HETATM   13  C   LIG     1      26.246  19.992  17.627  1.00  0.00     0.043 C 
BRANCH  12  14
HETATM   14  C   LIG     1      26.023  19.683  20.070  1.00  0.00     0.281 C 
HETATM   15  O   LIG     1      26.654  19.568  21.152  1.00  0.00    -0.263 OA
BRANCH  14  16
HETATM   16  O   LIG     1      24.859  18.945  19.849  1.00  0.00    -0.325 OA
HETATM   17  C   LIG     1      23.908  18.689  20.871  1.00  0.00     0.213 C 
ENDBRANCH  14  16
ENDBRANCH  12  14
ENDBRANCH   1  12
BRANCH   2  18
HETATM   18  C   LIG     1      26.045  24.510  18.608  1.00  0.00     0.270 C 
BRANCH  18  19
HETATM   19  O   LIG     1      27.109  25.446  18.632  1.00  0.00    -0.387 OA
HETATM   20  C   LIG     1      27.421  25.808  19.963  1.00  0.00     0.202 C 
ENDBRANCH  18  19
ENDBRANCH   2  18
TORSDOF 6
ENDMDL
MODEL 5
REMARK VINA RESULT:      -4.2     15.054     16.853
REMARK  6 active torsions:
REMARK  status: ('A' for Active; 'I' for Inactive)
REMARK    1  A    between atoms: C_3  and  N_4 
REMARK    2  A    between atoms: N_4  and  C_5 
REMARK       I    between atoms: N_4  and  C_11 
REMARK    3  A    between atoms: C_5  and  C_6 
REMARK    4  A    between atoms: C_6  and  O_7 
REMARK    5  A    between atoms: C_11  and  C_12 
REMARK    6  A    between atoms: C_12  and  O_13 
ROOT
HETATM    1  N   LIG     1      26.224  22.675  20.792  1.00  0.00    -0.301 N 
HETATM    2  C   LIG     1      26.665  24.052  20.704  1.00  0.00     0.248 C 
HETATM    3  O   LIG     1      27.528  24.493  21.506  1.00  0.00    -0.271 OA
ENDROOT
BRANCH   1   4
HETATM    4  C   LIG     1      25.145  22.236  19.932  1.00  0.00     0.050 A 
HETATM    5  C   LIG     1      25.425  21.588  18.701  1.00  0.00    -0.035 A 
HETATM    6  C   LIG     1      26.828  21.403  18.186  1.00  0.00     0.050 C 
HETATM    7  C   LIG     1      24.365  21.103  17.917  1.00  0.00     0.009 A 
HETATM    8  C   LIG     1      23.043  21.261  18.332  1.00  0.00     0.001 A 
HETATM    9  C   LIG     1      22.758  21.919  19.529  1.00  0.00     0.009 A 
HETATM   10  C   LIG     1      23.795  22.423  20.331  1.00  0.00    -0.035 A 
HETATM   11  C   LIG     1      23.430  23.110  21.623  1.00  0.00     0.050 C 
ENDBRANCH   1   4
BRANCH   1  12
HETATM   12  C   LIG     1      26.743  21.793  21.867  1.00  0.00     0.188 C 
HETATM   13  C   LIG     1      26.760  20.323  21.429  1.00  0.00     0.043 C 
BRANCH  12  14
HETATM   14  C   LIG     1      25.949  21.906  23.147  1.00  0.00     0.281 C 
HETATM   15  O   LIG     1      25.217  20.953  23.521  1.00  0.00    -0.263 OA
BRANCH  14  16
HETATM   16  O   LIG     1      26.031  23.074  23.907  1.00  0.00    -0.325 OA
HETATM   17  C   LIG     1      25.289  23.264  25.102  1.00  0.00     0.213 C 
ENDBRANCH  14  16
ENDBRANCH  12  14
ENDBRANCH   1  12
BRANCH   2  18
HETATM   18  C   LIG     1      26.112  24.998  19.672  1.00  0.00     0.270 C 
BRANCH  18  19
HETATM   19  O   LIG     1      27.158  25.733  19.059  1.00  0.00    -0.387 OA
HETATM   20  C   LIG     1      27.722  24.996  17.991  1.00  0.00     0.202 C 
ENDBRANCH  18  19
ENDBRANCH   2  18
TORSDOF 6
ENDMDL
MODEL 6
REMARK VINA RESULT:      -4.1     14.960     16.547
REMARK  6 active torsions:
REMARK  status: ('A' for Active; 'I' for Inactive)
REMARK    1  A    between atoms: C_3  and  N_4 
REMARK    2  A    between atoms: N_4  and  C_5 
REMARK       I    between atoms: N_4  and  C_11 
REMARK    3  A    between atoms: C_5  and  C_6 
REMARK    4  A    between atoms: C_6  and  O_7 
REMARK    5  A    between atoms: C_11  and  C_12 
REMARK    6  A    between atoms: C_12  and  O_13 
ROOT
HETATM    1  N   LIG     1      25.141  22.625  19.771  1.00  0.00    -0.301 N 
HETATM    2  C   LIG     1      25.622  23.846  19.158  1.00  0.00     0.248 C 
HETATM    3  O   LIG     1      25.595  23.981  17.907  1.00  0.00    -0.271 OA
ENDROOT
BRANCH   1   4
HETATM    4  C   LIG     1      25.298  22.457  21.200  1.00  0.00     0.050 A 
HETATM    5  C   LIG     1      26.549  22.067  21.745  1.00  0.00    -0.035 A 
HETATM    6  C   LIG     1      27.736  21.728  20.881  1.00  0.00     0.050 C 
HETATM    7  C   LIG     1      26.701  21.982  23.139  1.00  0.00     0.009 A 
HETATM    8  C   LIG     1      25.633  22.267  23.989  1.00  0.00     0.001 A 
HETATM    9  C   LIG     1      24.393  22.626  23.461  1.00  0.00     0.009 A 
HETATM   10  C   LIG     1      24.206  22.711  22.071  1.00  0.00    -0.035 A 
HETATM   11  C   LIG     1      22.850  23.121  21.557  1.00  0.00     0.050 C 
ENDBRANCH   1   4
BRANCH   1  12
HETATM   12  C   LIG     1      24.668  21.502  18.922  1.00  0.00     0.188 C 
HETATM   13  C   LIG     1      23.279  21.785  18.338  1.00  0.00     0.043 C 
BRANCH  12  14
HETATM   14  C   LIG     1      24.619  20.189  19.668  1.00  0.00     0.281 C 
HETATM   15  O   LIG     1      25.617  19.424  19.665  1.00  0.00    -0.263 OA
BRANCH  14  16
HETATM   16  O   LIG     1      23.458  19.833  20.357  1.00  0.00    -0.325 OA
HETATM   17  C   LIG     1      22.859  18.552  20.239  1.00  0.00     0.213 C 
ENDBRANCH  14  16
ENDBRANCH  12  14
ENDBRANCH   1  12
BRANCH   2  18
HETATM   18  C   LIG     1      26.174  24.982  19.979  1.00  0.00     0.270 C 
BRANCH  18  19
HETATM   19  O   LIG     1      27.579  25.073  19.820  1.00  0.00    -0.387 OA
HETATM   20  C   LIG     1      28.175  25.617  20.982  1.00  0.00     0.202 C 
ENDBRANCH  18  19
ENDBRANCH   2  18
TORSDOF 6
ENDMDL
MODEL 7
REMARK VINA RESULT:      -4.1     15.406     16.917
REMARK  6 active torsions:
REMARK  status: ('A' for Active; 'I' for Inactive)
REMARK    1  A    between atoms: C_3  and  N_4 
REMARK    2  A    between atoms: N_4  and  C_5 
REMARK       I    between atoms: N_4  and  C_11 
REMARK    3  A    between atoms: C_5  and  C_6 
REMARK    4  A    between atoms: C_6  and  O_7 
REMARK    5  A    between atoms: C_11  and  C_12 
REMARK    6  A    between atoms: C_12  and  O_13 
ROOT
HETATM    1  N   LIG     1      26.298  23.335  20.158  1.00  0.00    -0.301 N 
HETATM    2  C   LIG     1      27.398  22.491  19.737  1.00  0.00     0.248 C 
HETATM    3  O   LIG     1      28.366  22.983  19.100  1.00  0.00    -0.271 OA
ENDROOT
BRANCH   1   4
HETATM    4  C   LIG     1      25.148  22.715  20.782  1.00  0.00     0.050 A 
HETATM    5  C   LIG     1      25.060  22.623  22.196  1.00  0.00    -0.035 A 
HETATM    6  C   LIG     1      26.173  23.074  23.106  1.00  0.00     0.050 C 
HETATM    7  C   LIG     1      23.903  22.086  22.784  1.00  0.00     0.009 A 
HETATM    8  C   LIG     1      22.847  21.635  21.993  1.00  0.00     0.001 A 
HETATM    9  C   LIG     1      22.936  21.699  20.602  1.00  0.00     0.009 A 
HETATM   10  C   LIG     1      24.084  22.223  19.983  1.00  0.00    -0.035 A 
HETATM   11  C   LIG     1      24.118  22.283  18.477  1.00  0.00     0.050 C 
ENDBRANCH   1   4
BRANCH   1  12
HETATM   12  C   LIG     1      26.278  24.772  19.787  1.00  0.00     0.188 C 
HETATM   13  C   LIG     1      26.177  24.959  18.268  1.00  0.00     0.043 C 
BRANCH  12  14
HETATM   14  C   LIG     1      27.492  25.519  20.285  1.00  0.00     0.281 C 
HETATM   15  O   LIG     1      28.132  26.273  19.508  1.00  0.00    -0.263 OA
BRANCH  14  16
HETATM   16  O   LIG     1      27.900  25.363  21.611  1.00  0.00    -0.325 OA
HETATM   17  C   LIG     1      29.258  25.180  21.980  1.00  0.00     0.213 C 
ENDBRANCH  14  16
ENDBRANCH  12  14
ENDBRANCH   1  12
BRANCH   2  18
HETATM   18  C   LIG     1      27.425  21.015  20.032  1.00  0.00     0.270 C 
BRANCH  18  19
HETATM   19  O   LIG     1      27.039  20.272  18.889  1.00  0.00    -0.387 OA
HETATM   20  C   LIG     1      26.191  19.201  19.255  1.00  0.00     0.202 C 
ENDBRANCH  18  19
ENDBRANCH   2  18
TORSDOF 6
ENDMDL
MODEL 8
REMARK VINA RESULT:      -4.1     15.102     17.413
REMARK  6 active torsions:
REMARK  status: ('A' for Active; 'I' for Inactive)
REMARK    1  A    between atoms: C_3  and  N_4 
REMARK    2  A    between atoms: N_4  and  C_5 
REMARK       I    between atoms: N_4  and  C_11 
REMARK    3  A    between atoms: C_5  and  C_6 
REMARK    4  A    between atoms: C_6  and  O_7 
REMARK    5  A    between atoms: C_11  and  C_12 
REMARK    6  A    between atoms: C_12  and  O_13 
ROOT
HETATM    1  N   LIG     1      25.899  21.397  19.514  1.00  0.00    -0.301 N 
HETATM    2  C   LIG     1      26.057  19.965  19.356  1.00  0.00     0.248 C 
HETATM    3  O   LIG     1      26.994  19.505  18.653  1.00  0.00    -0.271 OA
ENDROOT
BRANCH   1   4
HETATM    4  C   LIG     1      24.742  21.892  20.230  1.00  0.00     0.050 A 
HETATM    5  C   LIG     1      23.490  22.017  19.573  1.00  0.00    -0.035 A 
HETATM    6  C   LIG     1      23.316  21.734  18.104  1.00  0.00     0.050 C 
HETATM    7  C   LIG     1      22.363  22.429  20.304  1.00  0.00     0.009 A 
HETATM    8  C   LIG     1      22.467  22.723  21.663  1.00  0.00     0.001 A 
HETATM    9  C   LIG     1      23.699  22.626  22.311  1.00  0.00     0.009 A 
HETATM   10  C   LIG     1      24.846  22.226  21.605  1.00  0.00    -0.035 A 
HETATM   11  C   LIG     1      26.147  22.121  22.359  1.00  0.00     0.050 C 
ENDBRANCH   1   4
BRANCH   1  12
HETATM   12  C   LIG     1      26.805  22.330  18.797  1.00  0.00     0.188 C 
HETATM   13  C   LIG     1      28.246  22.218  19.311  1.00  0.00     0.043 C 
BRANCH  12  14
HETATM   14  C   LIG     1      26.363  23.770  18.909  1.00  0.00     0.281 C 
HETATM   15  O   LIG     1      25.639  24.278  18.015  1.00  0.00    -0.263 OA
BRANCH  14  16
HETATM   16  O   LIG     1      26.766  24.529  20.009  1.00  0.00    -0.325 OA
HETATM   17  C   LIG     1      27.368  25.808  19.878  1.00  0.00     0.213 C 
ENDBRANCH  14  16
ENDBRANCH  12  14
ENDBRANCH   1  12
BRANCH   2  18
HETATM   18  C   LIG     1      25.119  18.986  20.009  1.00  0.00     0.270 C 
BRANCH  18  19
HETATM   19  O   LIG     1      24.216  18.452  19.056  1.00  0.00    -0.387 OA
HETATM   20  C   LIG     1      22.924  18.318  19.617  1.00  0.00     0.202 C 
ENDBRANCH  18  19
ENDBRANCH   2  18
TORSDOF 6
ENDMDL
MODEL 9
REMARK VINA RESULT:      -4.1     14.939     16.537
REMARK  6 active torsions:
REMARK  status: ('A' for Active; 'I' for Inactive)
REMARK    1  A    between atoms: C_3  and  N_4 
REMARK    2  A    between atoms: N_4  and  C_5 
REMARK       I    between atoms: N_4  and  C_11 
REMARK    3  A    between atoms: C_5  and  C_6 
REMARK    4  A    between atoms: C_6  and  O_7 
REMARK    5  A    between atoms: C_11  and  C_12 
REMARK    6  A    between atoms: C_12  and  O_13 
ROOT
HETATM    1  N   LIG     1      25.025  22.494  19.758  1.00  0.00    -0.301 N 
HETATM    2  C   LIG     1      25.530  23.699  19.133  1.00  0.00     0.248 C 
HETATM    3  O   LIG     1      25.509  23.819  17.880  1.00  0.00    -0.271 OA
ENDROOT
BRANCH   1   4
HETATM    4  C   LIG     1      25.174  22.340  21.189  1.00  0.00     0.050 A 
HETATM    5  C   LIG     1      24.090  22.628  22.060  1.00  0.00    -0.035 A 
HETATM    6  C   LIG     1      22.781  23.183  21.564  1.00  0.00     0.050 C 
HETATM    7  C   LIG     1      24.231  22.401  23.439  1.00  0.00     0.009 A 
HETATM    8  C   LIG     1      25.426  21.906  23.959  1.00  0.00     0.001 A 
HETATM    9  C   LIG     1      26.504  21.644  23.114  1.00  0.00     0.009 A 
HETATM   10  C   LIG     1      26.398  21.868  21.731  1.00  0.00    -0.035 A 
HETATM   11  C   LIG     1      27.589  21.551  20.863  1.00  0.00     0.050 C 
ENDBRANCH   1   4
BRANCH   1  12
HETATM   12  C   LIG     1      24.536  21.369  18.921  1.00  0.00     0.188 C 
HETATM   13  C   LIG     1      23.184  21.696  18.274  1.00  0.00     0.043 C 
BRANCH  12  14
HETATM   14  C   LIG     1      24.399  20.081  19.699  1.00  0.00     0.281 C 
HETATM   15  O   LIG     1      25.347  19.256  19.725  1.00  0.00    -0.263 OA
BRANCH  14  16
HETATM   16  O   LIG     1      23.212  19.816  20.385  1.00  0.00    -0.325 OA
HETATM   17  C   LIG     1      23.184  19.147  21.636  1.00  0.00     0.213 C 
ENDBRANCH  14  16
ENDBRANCH  12  14
ENDBRANCH   1  12
BRANCH   2  18
HETATM   18  C   LIG     1      26.098  24.835  19.941  1.00  0.00     0.270 C 
BRANCH  18  19
HETATM   19  O   LIG     1      27.509  24.876  19.818  1.00  0.00    -0.387 OA
HETATM   20  C   LIG     1      28.060  25.808  20.728  1.00  0.00     0.202 C 
ENDBRANCH  18  19
ENDBRANCH   2  18
TORSDOF 6
ENDMDL
MODEL 10
REMARK VINA RESULT:      -4.0     15.630     18.102
REMARK  6 active torsions:
REMARK  status: ('A' for Active; 'I' for Inactive)
REMARK    1  A    between atoms: C_3  and  N_4 
REMARK    2  A    between atoms: N_4  and  C_5 
REMARK       I    between atoms: N_4  and  C_11 
REMARK    3  A    between atoms: C_5  and  C_6 
REMARK    4  A    between atoms: C_6  and  O_7 
REMARK    5  A    between atoms: C_11  and  C_12 
REMARK    6  A    between atoms: C_12  and  O_13 
ROOT
HETATM    1  N   LIG     1      23.929  20.668  20.875  1.00  0.00    -0.301 N 
HETATM    2  C   LIG     1      25.375  20.597  20.930  1.00  0.00     0.248 C 
HETATM    3  O   LIG     1      26.011  21.264  21.788  1.00  0.00    -0.271 OA
ENDROOT
BRANCH   1   4
HETATM    4  C   LIG     1      23.241  19.982  19.802  1.00  0.00     0.050 A 
HETATM    5  C   LIG     1      22.693  18.689  20.010  1.00  0.00    -0.035 A 
HETATM    6  C   LIG     1      22.870  17.935  21.302  1.00  0.00     0.050 C 
HETATM    7  C   LIG     1      21.965  18.072  18.980  1.00  0.00     0.009 A 
HETATM    8  C   LIG     1      21.784  18.714  17.755  1.00  0.00     0.001 A 
HETATM    9  C   LIG     1      22.340  19.974  17.534  1.00  0.00     0.009 A 
HETATM   10  C   LIG     1      23.081  20.613  18.541  1.00  0.00    -0.035 A 
HETATM   11  C   LIG     1      23.644  21.982  18.253  1.00  0.00     0.050 C 
ENDBRANCH   1   4
BRANCH   1  12
HETATM   12  C   LIG     1      23.193  21.576  21.791  1.00  0.00     0.188 C 
HETATM   13  C   LIG     1      23.650  23.030  21.627  1.00  0.00     0.043 C 
BRANCH  12  14
HETATM   14  C   LIG     1      23.342  21.184  23.242  1.00  0.00     0.281 C 
HETATM   15  O   LIG     1      22.777  20.147  23.677  1.00  0.00    -0.263 OA
BRANCH  14  16
HETATM   16  O   LIG     1      24.107  21.981  24.095  1.00  0.00    -0.325 OA
HETATM   17  C   LIG     1      24.313  21.663  25.463  1.00  0.00     0.213 C 
ENDBRANCH  14  16
ENDBRANCH  12  14
ENDBRANCH   1  12
BRANCH   2  18
HETATM   18  C   LIG     1      26.165  19.742  19.975  1.00  0.00     0.270 C 
BRANCH  18  19
HETATM   19  O   LIG     1      26.807  20.548  19.002  1.00  0.00    -0.387 OA
HETATM   20  C   LIG     1      27.266  19.755  17.924  1.00  0.00     0.202 C 
ENDBRANCH  18  19
ENDBRANCH   2  18
TORSDOF 6
ENDMDL
MODEL 11
REMARK VINA RESULT:      -4.0     15.561     17.965
REMARK  6 active torsions:
REMARK  status: ('A' for Active; 'I' for Inactive)
REMARK    1  A    between atoms: C_3  and  N_4 
REMARK    2  A    between atoms: N_4  and  C_5 
REMARK       I    between atoms: N_4  and  C_11 
REMARK    3  A    between atoms: C_5  and  C_6 
REMARK    4  A    between atoms: C_6  and  O_7 
REMARK    5  A    between atoms: C_11  and  C_12 
REMARK    6  A    between atoms: C_12  and  O_13 
ROOT
HETATM    1  N   LIG     1      23.911  20.667  20.895  1.00  0.00    -0.301 N 
HETATM    2  C   LIG     1      25.358  20.641  20.837  1.00  0.00     0.248 C 
HETATM    3  O   LIG     1      26.037  21.332  21.641  1.00  0.00    -0.271 OA
ENDROOT
BRANCH   1   4
HETATM    4  C   LIG     1      23.163  19.955  19.881  1.00  0.00     0.050 A 
HETATM    5  C   LIG     1      22.937  20.543  18.609  1.00  0.00    -0.035 A 
HETATM    6  C   LIG     1      23.375  21.946  18.278  1.00  0.00     0.050 C 
HETATM    7  C   LIG     1      22.274  19.807  17.613  1.00  0.00     0.009 A 
HETATM    8  C   LIG     1      21.829  18.510  17.866  1.00  0.00     0.001 A 
HETATM    9  C   LIG     1      22.025  17.933  19.122  1.00  0.00     0.009 A 
HETATM   10  C   LIG     1      22.677  18.647  20.141  1.00  0.00    -0.035 A 
HETATM   11  C   LIG     1      22.877  17.968  21.472  1.00  0.00     0.050 C 
ENDBRANCH   1   4
BRANCH   1  12
HETATM   12  C   LIG     1      23.220  21.554  21.864  1.00  0.00     0.188 C 
HETATM   13  C   LIG     1      23.509  23.033  21.576  1.00  0.00     0.043 C 
BRANCH  12  14
HETATM   14  C   LIG     1      23.599  21.259  23.296  1.00  0.00     0.281 C 
HETATM   15  O   LIG     1      23.277  20.163  23.821  1.00  0.00    -0.263 OA
BRANCH  14  16
HETATM   16  O   LIG     1      24.306  22.213  24.031  1.00  0.00    -0.325 OA
HETATM   17  C   LIG     1      25.106  21.877  25.154  1.00  0.00     0.213 C 
ENDBRANCH  14  16
ENDBRANCH  12  14
ENDBRANCH   1  12
BRANCH   2  18
HETATM   18  C   LIG     1      26.098  19.808  19.824  1.00  0.00     0.270 C 
BRANCH  18  19
HETATM   19  O   LIG     1      27.266  20.479  19.386  1.00  0.00    -0.387 OA
HETATM   20  C   LIG     1      27.015  21.181  18.184  1.00  0.00     0.202 C 
ENDBRANCH  18  19
ENDBRANCH   2  18
TORSDOF 6
ENDMDL
MODEL 12
REMARK VINA RESULT:      -4.0      1.632      3.634
REMARK  6 active torsions:
REMARK  status: ('A' for Active; 'I' for Inactive)
REMARK    1  A    between atoms: C_3  and  N_4 
REMARK    2  A    between atoms: N_4  and  C_5 
REMARK       I    between atoms: N_4  and  C_11 
REMARK    3  A    between atoms: C_5  and  C_6 
REMARK    4  A    between atoms: C_6  and  O_7 
REMARK    5  A    between atoms: C_11  and  C_12 
REMARK    6  A    between atoms: C_12  and  O_13 
ROOT
HETATM    1  N   LIG     1      16.675  36.163  21.914  1.00  0.00    -0.301 N 
HETATM    2  C   LIG     1      16.908  35.478  23.169  1.00  0.00     0.248 C 
HETATM    3  O   LIG     1      16.169  34.519  23.514  1.00  0.00    -0.271 OA
ENDROOT
BRANCH   1   4
HETATM    4  C   LIG     1      17.467  37.336  21.607  1.00  0.00     0.050 A 
HETATM    5  C   LIG     1      18.414  37.307  20.549  1.00  0.00    -0.035 A 
HETATM    6  C   LIG     1      18.706  36.057  19.761  1.00  0.00     0.050 C 
HETATM    7  C   LIG     1      19.118  38.476  20.219  1.00  0.00     0.009 A 
HETATM    8  C   LIG     1      18.903  39.659  20.925  1.00  0.00     0.001 A 
HETATM    9  C   LIG     1      17.993  39.690  21.982  1.00  0.00     0.009 A 
HETATM   10  C   LIG     1      17.279  38.535  22.343  1.00  0.00    -0.035 A 
HETATM   11  C   LIG     1      16.296  38.630  23.482  1.00  0.00     0.050 C 
ENDBRANCH   1   4
BRANCH   1  12
HETATM   12  C   LIG     1      15.526  35.778  21.056  1.00  0.00     0.188 C 
HETATM   13  C   LIG     1      14.229  36.452  21.520  1.00  0.00     0.043 C 
BRANCH  12  14
HETATM   14  C   LIG     1      15.306  34.284  21.017  1.00  0.00     0.281 C 
HETATM   15  O   LIG     1      14.352  33.770  21.656  1.00  0.00    -0.263 OA
BRANCH  14  16
HETATM   16  O   LIG     1      16.168  33.481  20.269  1.00  0.00    -0.325 OA
HETATM   17  C   LIG     1      15.773  32.231  19.725  1.00  0.00     0.213 C 
ENDBRANCH  14  16
ENDBRANCH  12  14
ENDBRANCH   1  12
BRANCH   2  18
HETATM   18  C   LIG     1      18.019  35.882  24.101  1.00  0.00     0.270 C 
BRANCH  18  19
HETATM   19  O   LIG     1      17.585  35.824  25.448  1.00  0.00    -0.387 OA
HETATM   20  C   LIG     1      18.306  36.746  26.243  1.00  0.00     0.202 C 
ENDBRANCH  18  19
ENDBRANCH   2  18
TORSDOF 6
ENDMDL
MODEL 13
REMARK VINA RESULT:      -3.9     15.332     17.597
REMARK  6 active torsions:
REMARK  status: ('A' for Active; 'I' for Inactive)
REMARK    1  A    between atoms: C_3  and  N_4 
REMARK    2  A    between atoms: N_4  and  C_5 
REMARK       I    between atoms: N_4  and  C_11 
REMARK    3  A    between atoms: C_5  and  C_6 
REMARK    4  A    between atoms: C_6  and  O_7 
REMARK    5  A    between atoms: C_11  and  C_12 
REMARK    6  A    between atoms: C_12  and  O_13 
ROOT
HETATM    1  N   LIG     1      24.889  21.678  19.908  1.00  0.00    -0.301 N 
HETATM    2  C   LIG     1      26.183  22.223  20.268  1.00  0.00     0.248 C 
HETATM    3  O   LIG     1      26.893  22.794  19.400  1.00  0.00    -0.271 OA
ENDROOT
BRANCH   1   4
HETATM    4  C   LIG     1      24.154  20.924  20.901  1.00  0.00     0.050 A 
HETATM    5  C   LIG     1      24.441  19.551  21.120  1.00  0.00    -0.035 A 
HETATM    6  C   LIG     1      25.443  18.794  20.288  1.00  0.00     0.050 C 
HETATM    7  C   LIG     1      23.769  18.857  22.139  1.00  0.00     0.009 A 
HETATM    8  C   LIG     1      22.817  19.501  22.929  1.00  0.00     0.001 A 
HETATM    9  C   LIG     1      22.511  20.843  22.705  1.00  0.00     0.009 A 
HETATM   10  C   LIG     1      23.160  21.563  21.687  1.00  0.00    -0.035 A 
HETATM   11  C   LIG     1      22.802  23.016  21.501  1.00  0.00     0.050 C 
ENDBRANCH   1   4
BRANCH   1  12
HETATM   12  C   LIG     1      24.421  21.738  18.500  1.00  0.00     0.188 C 
HETATM   13  C   LIG     1      22.893  21.636  18.413  1.00  0.00     0.043 C 
BRANCH  12  14
HETATM   14  C   LIG     1      25.027  20.655  17.639  1.00  0.00     0.281 C 
HETATM   15  O   LIG     1      24.357  19.631  17.349  1.00  0.00    -0.263 OA
BRANCH  14  16
HETATM   16  O   LIG     1      26.335  20.799  17.172  1.00  0.00    -0.325 OA
HETATM   17  C   LIG     1      27.302  19.765  17.271  1.00  0.00     0.213 C 
ENDBRANCH  14  16
ENDBRANCH  12  14
ENDBRANCH   1  12
BRANCH   2  18
HETATM   18  C   LIG     1      26.725  22.122  21.668  1.00  0.00     0.270 C 
BRANCH  18  19
HETATM   19  O   LIG     1      26.319  23.239  22.440  1.00  0.00    -0.387 OA
HETATM   20  C   LIG     1      25.967  22.835  23.750  1.00  0.00     0.202 C 
ENDBRANCH  18  19
ENDBRANCH   2  18
TORSDOF 6
ENDMDL
MODEL 14
REMARK VINA RESULT:      -3.8     15.389     17.252
REMARK  6 active torsions:
REMARK  status: ('A' for Active; 'I' for Inactive)
REMARK    1  A    between atoms: C_3  and  N_4 
REMARK    2  A    between atoms: N_4  and  C_5 
REMARK       I    between atoms: N_4  and  C_11 
REMARK    3  A    between atoms: C_5  and  C_6 
REMARK    4  A    between atoms: C_6  and  O_7 
REMARK    5  A    between atoms: C_11  and  C_12 
REMARK    6  A    between atoms: C_12  and  O_13 
ROOT
HETATM    1  N   LIG     1      25.750  21.997  21.368  1.00  0.00    -0.301 N 
HETATM    2  C   LIG     1      26.437  23.272  21.406  1.00  0.00     0.248 C 
HETATM    3  O   LIG     1      27.179  23.563  22.380  1.00  0.00    -0.271 OA
ENDROOT
BRANCH   1   4
HETATM    4  C   LIG     1      24.812  21.746  20.294  1.00  0.00     0.050 A 
HETATM    5  C   LIG     1      23.476  22.218  20.380  1.00  0.00    -0.035 A 
HETATM    6  C   LIG     1      22.943  22.914  21.605  1.00  0.00     0.050 C 
HETATM    7  C   LIG     1      22.604  22.029  19.295  1.00  0.00     0.009 A 
HETATM    8  C   LIG     1      23.036  21.375  18.142  1.00  0.00     0.001 A 
HETATM    9  C   LIG     1      24.340  20.887  18.058  1.00  0.00     0.009 A 
HETATM   10  C   LIG     1      25.234  21.052  19.129  1.00  0.00    -0.035 A 
HETATM   11  C   LIG     1      26.636  20.519  18.978  1.00  0.00     0.050 C 
ENDBRANCH   1   4
BRANCH   1  12
HETATM   12  C   LIG     1      25.870  21.052  22.507  1.00  0.00     0.188 C 
HETATM   13  C   LIG     1      27.263  20.413  22.561  1.00  0.00     0.043 C 
BRANCH  12  14
HETATM   14  C   LIG     1      24.836  19.951  22.460  1.00  0.00     0.281 C 
HETATM   15  O   LIG     1      25.053  18.911  21.788  1.00  0.00    -0.263 OA
BRANCH  14  16
HETATM   16  O   LIG     1      23.641  20.100  23.167  1.00  0.00    -0.325 OA
HETATM   17  C   LIG     1      22.623  19.111  23.167  1.00  0.00     0.213 C 
ENDBRANCH  14  16
ENDBRANCH  12  14
ENDBRANCH   1  12
BRANCH   2  18
HETATM   18  C   LIG     1      26.287  24.288  20.305  1.00  0.00     0.270 C 
BRANCH  18  19
HETATM   19  O   LIG     1      27.219  24.037  19.267  1.00  0.00    -0.387 OA
HETATM   20  C   LIG     1      26.706  24.474  18.023  1.00  0.00     0.202 C 
ENDBRANCH  18  19
ENDBRANCH   2  18
TORSDOF 6
ENDMDL
MODEL 15
REMARK VINA RESULT:      -3.8     15.187     17.578
REMARK  6 active torsions:
REMARK  status: ('A' for Active; 'I' for Inactive)
REMARK    1  A    between atoms: C_3  and  N_4 
REMARK    2  A    between atoms: N_4  and  C_5 
REMARK       I    between atoms: N_4  and  C_11 
REMARK    3  A    between atoms: C_5  and  C_6 
REMARK    4  A    between atoms: C_6  and  O_7 
REMARK    5  A    between atoms: C_11  and  C_12 
REMARK    6  A    between atoms: C_12  and  O_13 
ROOT
HETATM    1  N   LIG     1      26.150  21.728  19.610  1.00  0.00    -0.301 N 
HETATM    2  C   LIG     1      26.694  20.403  19.825  1.00  0.00     0.248 C 
HETATM    3  O   LIG     1      27.746  20.046  19.234  1.00  0.00    -0.271 OA
ENDROOT
BRANCH   1   4
HETATM    4  C   LIG     1      24.877  22.062  20.212  1.00  0.00     0.050 A 
HETATM    5  C   LIG     1      24.823  22.651  21.503  1.00  0.00    -0.035 A 
HETATM    6  C   LIG     1      26.055  22.875  22.339  1.00  0.00     0.050 C 
HETATM    7  C   LIG     1      23.582  23.035  22.037  1.00  0.00     0.009 A 
HETATM    8  C   LIG     1      22.406  22.835  21.317  1.00  0.00     0.001 A 
HETATM    9  C   LIG     1      22.447  22.235  20.058  1.00  0.00     0.009 A 
HETATM   10  C   LIG     1      23.671  21.831  19.500  1.00  0.00    -0.035 A 
HETATM   11  C   LIG     1      23.658  21.203  18.129  1.00  0.00     0.050 C 
ENDBRANCH   1   4
BRANCH   1  12
HETATM   12  C   LIG     1      26.799  22.652  18.645  1.00  0.00     0.188 C 
HETATM   13  C   LIG     1      27.455  21.886  17.489  1.00  0.00     0.043 C 
BRANCH  12  14
HETATM   14  C   LIG     1      27.841  23.532  19.293  1.00  0.00     0.281 C 
HETATM   15  O   LIG     1      28.947  23.046  19.644  1.00  0.00    -0.263 OA
BRANCH  14  16
HETATM   16  O   LIG     1      27.567  24.885  19.501  1.00  0.00    -0.325 OA
HETATM   17  C   LIG     1      26.258  25.426  19.401  1.00  0.00     0.213 C 
ENDBRANCH  14  16
ENDBRANCH  12  14
ENDBRANCH   1  12
BRANCH   2  18
HETATM   18  C   LIG     1      26.029  19.411  20.742  1.00  0.00     0.270 C 
BRANCH  18  19
HETATM   19  O   LIG     1      25.230  18.506  20.000  1.00  0.00    -0.387 OA
HETATM   20  C   LIG     1      23.976  18.320  20.628  1.00  0.00     0.202 C 
ENDBRANCH  18  19
ENDBRANCH   2  18
TORSDOF 6
ENDMDL
MODEL 16
REMARK VINA RESULT:      -3.8     15.255     17.576
REMARK  6 active torsions:
REMARK  status: ('A' for Active; 'I' for Inactive)
REMARK    1  A    between atoms: C_3  and  N_4 
REMARK    2  A    between atoms: N_4  and  C_5 
REMARK       I    between atoms: N_4  and  C_11 
REMARK    3  A    between atoms: C_5  and  C_6 
REMARK    4  A    between atoms: C_6  and  O_7 
REMARK    5  A    between atoms: C_11  and  C_12 
REMARK    6  A    between atoms: C_12  and  O_13 
ROOT
HETATM    1  N   LIG     1      26.369  22.809  20.520  1.00  0.00    -0.301 N 
HETATM    2  C   LIG     1      27.070  21.947  21.450  1.00  0.00     0.248 C 
HETATM    3  O   LIG     1      28.132  22.341  22.001  1.00  0.00    -0.271 OA
ENDROOT
BRANCH   1   4
HETATM    4  C   LIG     1      25.220  22.279  19.816  1.00  0.00     0.050 A 
HETATM    5  C   LIG     1      23.909  22.489  20.318  1.00  0.00    -0.035 A 
HETATM    6  C   LIG     1      23.648  23.182  21.630  1.00  0.00     0.050 C 
HETATM    7  C   LIG     1      22.804  22.033  19.581  1.00  0.00     0.009 A 
HETATM    8  C   LIG     1      22.984  21.368  18.369  1.00  0.00     0.001 A 
HETATM    9  C   LIG     1      24.270  21.136  17.880  1.00  0.00     0.009 A 
HETATM   10  C   LIG     1      25.396  21.572  18.598  1.00  0.00    -0.035 A 
HETATM   11  C   LIG     1      26.761  21.309  18.013  1.00  0.00     0.050 C 
ENDBRANCH   1   4
BRANCH   1  12
HETATM   12  C   LIG     1      26.931  24.137  20.166  1.00  0.00     0.188 C 
HETATM   13  C   LIG     1      25.831  25.112  19.726  1.00  0.00     0.043 C 
BRANCH  12  14
HETATM   14  C   LIG     1      27.969  24.056  19.072  1.00  0.00     0.281 C 
HETATM   15  O   LIG     1      29.120  23.616  19.327  1.00  0.00    -0.263 OA
BRANCH  14  16
HETATM   16  O   LIG     1      27.643  24.475  17.781  1.00  0.00    -0.325 OA
HETATM   17  C   LIG     1      28.591  25.061  16.903  1.00  0.00     0.213 C 
ENDBRANCH  14  16
ENDBRANCH  12  14
ENDBRANCH   1  12
BRANCH   2  18
HETATM   18  C   LIG     1      26.572  20.567  21.784  1.00  0.00     0.270 C 
BRANCH  18  19
HETATM   19  O   LIG     1      27.657  19.664  21.915  1.00  0.00    -0.387 OA
HETATM   20  C   LIG     1      27.871  18.966  20.704  1.00  0.00     0.202 C 
ENDBRANCH  18  19
ENDBRANCH   2  18
TORSDOF 6
ENDMDL
MODEL 17
REMARK VINA RESULT:      -3.7     15.253     17.377
REMARK  6 active torsions:
REMARK  status: ('A' for Active; 'I' for Inactive)
REMARK    1  A    between atoms: C_3  and  N_4 
REMARK    2  A    between atoms: N_4  and  C_5 
REMARK       I    between atoms: N_4  and  C_11 
REMARK    3  A    between atoms: C_5  and  C_6 
REMARK    4  A    between atoms: C_6  and  O_7 
REMARK    5  A    between atoms: C_11  and  C_12 
REMARK    6  A    between atoms: C_12  and  O_13 
ROOT
HETATM    1  N   LIG     1      26.422  21.967  20.825  1.00  0.00    -0.301 N 
HETATM    2  C   LIG     1      25.286  21.698  21.683  1.00  0.00     0.248 C 
HETATM    3  O   LIG     1      25.128  20.554  22.184  1.00  0.00    -0.271 OA
ENDROOT
BRANCH   1   4
HETATM    4  C   LIG     1      26.508  23.256  20.171  1.00  0.00     0.050 A 
HETATM    5  C   LIG     1      25.783  23.506  18.977  1.00  0.00    -0.035 A 
HETATM    6  C   LIG     1      24.971  22.441  18.287  1.00  0.00     0.050 C 
HETATM    7  C   LIG     1      25.820  24.786  18.399  1.00  0.00     0.009 A 
HETATM    8  C   LIG     1      26.569  25.807  18.983  1.00  0.00     0.001 A 
HETATM    9  C   LIG     1      27.304  25.563  20.143  1.00  0.00     0.009 A 
HETATM   10  C   LIG     1      27.295  24.291  20.740  1.00  0.00    -0.035 A 
HETATM   11  C   LIG     1      28.094  24.089  22.002  1.00  0.00     0.050 C 
ENDBRANCH   1   4
BRANCH   1  12
HETATM   12  C   LIG     1      27.372  20.878  20.483  1.00  0.00     0.188 C 
HETATM   13  C   LIG     1      28.317  20.571  21.651  1.00  0.00     0.043 C 
BRANCH  12  14
HETATM   14  C   LIG     1      28.203  21.194  19.261  1.00  0.00     0.281 C 
HETATM   15  O   LIG     1      27.853  20.764  18.133  1.00  0.00    -0.263 OA
BRANCH  14  16
HETATM   16  O   LIG     1      29.361  21.961  19.396  1.00  0.00    -0.325 OA
HETATM   17  C   LIG     1      29.809  22.856  18.389  1.00  0.00     0.213 C 
ENDBRANCH  14  16
ENDBRANCH  12  14
ENDBRANCH   1  12
BRANCH   2  18
HETATM   18  C   LIG     1      24.262  22.754  21.999  1.00  0.00     0.270 C 
BRANCH  18  19
HETATM   19  O   LIG     1      22.974  22.177  22.124  1.00  0.00    -0.387 OA
HETATM   20  C   LIG     1      22.059  22.808  21.248  1.00  0.00     0.202 C 
ENDBRANCH  18  19
ENDBRANCH   2  18
TORSDOF 6
ENDMDL
MODEL 18
REMARK VINA RESULT:      -3.6     15.377     17.676
REMARK  6 active torsions:
REMARK  status: ('A' for Active; 'I' for Inactive)
REMARK    1  A    between atoms: C_3  and  N_4 
REMARK    2  A    between atoms: N_4  and  C_5 
REMARK       I    between atoms: N_4  and  C_11 
REMARK    3  A    between atoms: C_5  and  C_6 
REMARK    4  A    between atoms: C_6  and  O_7 
REMARK    5  A    between atoms: C_11  and  C_12 
REMARK    6  A    between atoms: C_12  and  O_13 
ROOT
HETATM    1  N   LIG     1      24.747  21.456  20.564  1.00  0.00    -0.301 N 
HETATM    2  C   LIG     1      25.687  22.514  20.255  1.00  0.00     0.248 C 
HETATM    3  O   LIG     1      25.792  23.510  21.017  1.00  0.00    -0.271 OA
ENDROOT
BRANCH   1   4
HETATM    4  C   LIG     1      24.567  20.386  19.606  1.00  0.00     0.050 A 
HETATM    5  C   LIG     1      25.274  19.163  19.752  1.00  0.00    -0.035 A 
HETATM    6  C   LIG     1      26.296  18.946  20.837  1.00  0.00     0.050 C 
HETATM    7  C   LIG     1      25.029  18.111  18.855  1.00  0.00     0.009 A 
HETATM    8  C   LIG     1      24.107  18.260  17.819  1.00  0.00     0.001 A 
HETATM    9  C   LIG     1      23.426  19.466  17.654  1.00  0.00     0.009 A 
HETATM   10  C   LIG     1      23.656  20.541  18.529  1.00  0.00    -0.035 A 
HETATM   11  C   LIG     1      22.879  21.815  18.314  1.00  0.00     0.050 C 
ENDBRANCH   1   4
BRANCH   1  12
HETATM   12  C   LIG     1      23.860  21.570  21.750  1.00  0.00     0.188 C 
HETATM   13  C   LIG     1      22.912  22.770  21.627  1.00  0.00     0.043 C 
BRANCH  12  14
HETATM   14  C   LIG     1      24.630  21.695  23.043  1.00  0.00     0.281 C 
HETATM   15  O   LIG     1      25.354  20.746  23.440  1.00  0.00    -0.263 OA
BRANCH  14  16
HETATM   16  O   LIG     1      24.529  22.867  23.793  1.00  0.00    -0.325 OA
HETATM   17  C   LIG     1      25.410  23.170  24.864  1.00  0.00     0.213 C 
ENDBRANCH  14  16
ENDBRANCH  12  14
ENDBRANCH   1  12
BRANCH   2  18
HETATM   18  C   LIG     1      26.556  22.470  19.026  1.00  0.00     0.270 C 
BRANCH  18  19
HETATM   19  O   LIG     1      26.215  23.521  18.139  1.00  0.00    -0.387 OA
HETATM   20  C   LIG     1      27.341  24.337  17.880  1.00  0.00     0.202 C 
ENDBRANCH  18  19
ENDBRANCH   2  18
TORSDOF 6
ENDMDL
MODEL 19
REMARK VINA RESULT:      -3.6     15.488     17.984
REMARK  6 active torsions:
REMARK  status: ('A' for Active; 'I' for Inactive)
REMARK    1  A    between atoms: C_3  and  N_4 
REMARK    2  A    between atoms: N_4  and  C_5 
REMARK       I    between atoms: N_4  and  C_11 
REMARK    3  A    between atoms: C_5  and  C_6 
REMARK    4  A    between atoms: C_6  and  O_7 
REMARK    5  A    between atoms: C_11  and  C_12 
REMARK    6  A    between atoms: C_12  and  O_13 
ROOT
HETATM    1  N   LIG     1      25.490  21.054  21.546  1.00  0.00    -0.301 N 
HETATM    2  C   LIG     1      25.356  19.866  22.365  1.00  0.00     0.248 C 
HETATM    3  O   LIG     1      26.122  19.684  23.347  1.00  0.00    -0.271 OA
ENDROOT
BRANCH   1   4
HETATM    4  C   LIG     1      24.674  21.172  20.357  1.00  0.00     0.050 A 
HETATM    5  C   LIG     1      25.041  20.498  19.162  1.00  0.00    -0.035 A 
HETATM    6  C   LIG     1      26.320  19.712  19.040  1.00  0.00     0.050 C 
HETATM    7  C   LIG     1      24.197  20.565  18.042  1.00  0.00     0.009 A 
HETATM    8  C   LIG     1      23.008  21.293  18.090  1.00  0.00     0.001 A 
HETATM    9  C   LIG     1      22.652  21.978  19.252  1.00  0.00     0.009 A 
HETATM   10  C   LIG     1      23.479  21.938  20.386  1.00  0.00    -0.035 A 
HETATM   11  C   LIG     1      23.036  22.683  21.620  1.00  0.00     0.050 C 
ENDBRANCH   1   4
BRANCH   1  12
HETATM   12  C   LIG     1      26.570  22.033  21.825  1.00  0.00     0.188 C 
HETATM   13  C   LIG     1      26.268  22.860  23.082  1.00  0.00     0.043 C 
BRANCH  12  14
HETATM   14  C   LIG     1      26.810  22.979  20.672  1.00  0.00     0.281 C 
HETATM   15  O   LIG     1      26.182  24.066  20.607  1.00  0.00    -0.263 OA
BRANCH  14  16
HETATM   16  O   LIG     1      27.732  22.635  19.681  1.00  0.00    -0.325 OA
HETATM   17  C   LIG     1      27.692  23.187  18.374  1.00  0.00     0.213 C 
ENDBRANCH  14  16
ENDBRANCH  12  14
ENDBRANCH   1  12
BRANCH   2  18
HETATM   18  C   LIG     1      24.319  18.814  22.075  1.00  0.00     0.270 C 
BRANCH  18  19
HETATM   19  O   LIG     1      23.588  18.499  23.247  1.00  0.00    -0.387 OA
HETATM   20  C   LIG     1      22.526  19.415  23.431  1.00  0.00     0.202 C 
ENDBRANCH  18  19
ENDBRANCH   2  18
TORSDOF 6
ENDMDL
MODEL 20
REMARK VINA RESULT:      -3.6     15.718     17.704
REMARK  6 active torsions:
REMARK  status: ('A' for Active; 'I' for Inactive)
REMARK    1  A    between atoms: C_3  and  N_4 
REMARK    2  A    between atoms: N_4  and  C_5 
REMARK       I    between atoms: N_4  and  C_11 
REMARK    3  A    between atoms: C_5  and  C_6 
REMARK    4  A    between atoms: C_6  and  O_7 
REMARK    5  A    between atoms: C_11  and  C_12 
REMARK    6  A    between atoms: C_12  and  O_13 
ROOT
HETATM    1  N   LIG     1      25.627  20.883  23.871  1.00  0.00    -0.301 N 
HETATM    2  C   LIG     1      25.655  21.261  25.270  1.00  0.00     0.248 C 
HETATM    3  O   LIG     1      26.392  20.640  26.079  1.00  0.00    -0.271 OA
ENDROOT
BRANCH   1   4
HETATM    4  C   LIG     1      24.681  21.539  22.994  1.00  0.00     0.050 A 
HETATM    5  C   LIG     1      25.097  22.606  22.156  1.00  0.00    -0.035 A 
HETATM    6  C   LIG     1      26.496  23.165  22.195  1.00  0.00     0.050 C 
HETATM    7  C   LIG     1      24.182  23.180  21.259  1.00  0.00     0.009 A 
HETATM    8  C   LIG     1      22.868  22.717  21.191  1.00  0.00     0.001 A 
HETATM    9  C   LIG     1      22.443  21.685  22.028  1.00  0.00     0.009 A 
HETATM   10  C   LIG     1      23.333  21.097  22.943  1.00  0.00    -0.035 A 
HETATM   11  C   LIG     1      22.824  19.974  23.811  1.00  0.00     0.050 C 
ENDBRANCH   1   4
BRANCH   1  12
HETATM   12  C   LIG     1      26.421  19.721  23.397  1.00  0.00     0.188 C 
HETATM   13  C   LIG     1      27.893  20.097  23.185  1.00  0.00     0.043 C 
BRANCH  12  14
HETATM   14  C   LIG     1      25.884  19.134  22.113  1.00  0.00     0.281 C 
HETATM   15  O   LIG     1      25.086  18.163  22.149  1.00  0.00    -0.263 OA
BRANCH  14  16
HETATM   16  O   LIG     1      26.282  19.676  20.890  1.00  0.00    -0.325 OA
HETATM   17  C   LIG     1      25.406  19.785  19.779  1.00  0.00     0.213 C 
ENDBRANCH  14  16
ENDBRANCH  12  14
ENDBRANCH   1  12
BRANCH   2  18
HETATM   18  C   LIG     1      24.813  22.388  25.804  1.00  0.00     0.270 C 
BRANCH  18  19
HETATM   19  O   LIG     1      25.595  23.256  26.606  1.00  0.00    -0.387 OA
HETATM   20  C   LIG     1      26.198  24.258  25.811  1.00  0.00     0.202 C 
ENDBRANCH  18  19
ENDBRANCH   2  18
TORSDOF 6
ENDMDL
