REMARK  6 active torsions:
REMARK  status: ('A' for Active; 'I' for Inactive)
REMARK    1  A    between atoms: C_3  and  N_4 
REMARK    2  A    between atoms: N_4  and  C_5 
REMARK       I    between atoms: N_4  and  C_11 
REMARK    3  A    between atoms: C_5  and  C_6 
REMARK    4  A    between atoms: C_6  and  O_7 
REMARK    5  A    between atoms: C_11  and  C_12 
REMARK    6  A    between atoms: C_12  and  O_13 
ROOT
HETATM    1  N   LIG     1       0.933   0.057   0.224  1.00  0.00    -0.301 N 
HETATM    2  C   LIG     1       1.866  -1.041   0.376  1.00  0.00     0.248 C 
HETATM    3  O   LIG     1       3.103  -0.817   0.438  1.00  0.00    -0.271 OA
ENDROOT
BRANCH   1   4
HETATM    4  C   LIG     1      -0.470  -0.246   0.036  1.00  0.00     0.050 A 
HETATM    5  C   LIG     1      -1.333  -0.380   1.155  1.00  0.00    -0.035 A 
HETATM    6  C   LIG     1      -0.833  -0.305   2.574  1.00  0.00     0.050 C 
HETATM    7  C   LIG     1      -2.705  -0.600   0.949  1.00  0.00     0.009 A 
HETATM    8  C   LIG     1      -3.223  -0.697  -0.342  1.00  0.00     0.001 A 
HETATM    9  C   LIG     1      -2.378  -0.591  -1.447  1.00  0.00     0.009 A 
HETATM   10  C   LIG     1      -1.000  -0.380  -1.274  1.00  0.00    -0.035 A 
HETATM   11  C   LIG     1      -0.137  -0.256  -2.504  1.00  0.00     0.050 C 
ENDBRANCH   1   4
BRANCH   1  12
HETATM   12  C   LIG     1       1.435   1.447   0.080  1.00  0.00     0.188 C 
HETATM   13  C   LIG     1       2.130   1.928   1.360  1.00  0.00     0.043 C 
BRANCH  12  14
HETATM   14  C   LIG     1       0.341   2.427  -0.272  1.00  0.00     0.281 C 
HETATM   15  O   LIG     1       0.327   2.977  -1.403  1.00  0.00    -0.263 OA
BRANCH  14  16
HETATM   16  O   LIG     1      -0.650   2.718   0.667  1.00  0.00    -0.325 OA
HETATM   17  C   LIG     1      -1.757   3.558   0.378  1.00  0.00     0.213 C 
ENDBRANCH  14  16
ENDBRANCH  12  14
ENDBRANCH   1  12
BRANCH   2  18
HETATM   18  C   LIG     1       1.403  -2.471   0.456  1.00  0.00     0.270 C 
BRANCH  18  19
HETATM   19  O   LIG     1       0.907  -2.904  -0.799  1.00  0.00    -0.387 OA
HETATM   20  C   LIG     1       1.961  -3.386  -1.610  1.00  0.00     0.202 C 
ENDBRANCH  18  19
ENDBRANCH   2  18
TORSDOF 6
