REMARK  1 active torsions:
REMARK  status: ('A' for Active; 'I' for Inactive)
REMARK    1  A    between atoms: N_2  and  C_3 
REMARK       I    between atoms: N_2  and  C_9 
ROOT
HETATM    1  C   LIG     1       0.559  -0.072  -0.050  1.00  0.00     0.036 A 
HETATM    2  C   LIG     1       1.102  -0.180   1.242  1.00  0.00     0.029 A 
HETATM    3  C   LIG     1       2.488  -0.189   1.426  1.00  0.00     0.002 A 
HETATM    4  C   LIG     1       3.342  -0.091   0.324  1.00  0.00     0.000 A 
HETATM    5  C   LIG     1       2.811   0.015  -0.965  1.00  0.00     0.002 A 
HETATM    6  C   LIG     1       1.425   0.024  -1.153  1.00  0.00     0.029 A 
ENDROOT
BRANCH   1   7
HETATM    7  N   LIG     1      -0.869  -0.067  -0.243  1.00  0.00    -0.323 N 
HETATM    8  C   LIG     1      -1.471  -0.999  -1.202  1.00  0.00     0.159 C 
HETATM    9  C   LIG     1      -1.695   0.870   0.484  1.00  0.00     0.220 C 
HETATM   10  C   LIG     1      -3.192   0.783   0.449  1.00  0.00     0.117 C 
HETATM   11  O   LIG     1      -1.161   1.796   1.152  1.00  0.00    -0.274 OA
ENDBRANCH   1   7
TORSDOF 1
