REMARK  4 active torsions:
REMARK  status: ('A' for Active; 'I' for Inactive)
REMARK    1  A    between atoms: O_1  and  C_2 
REMARK    2  A    between atoms: C_2  and  C_3 
REMARK    3  A    between atoms: C_2  and  C_9 
REMARK    4  A    between atoms: C_9  and  C_10 
ROOT
HETATM    1  C   LIG     1       0.473  -0.600   1.058  1.00  0.00     0.225 C 
ENDROOT
BRANCH   1   2
HETATM    2  O   LIG     1       0.761  -1.681   1.905  1.00  0.00    -0.383 OA
HETATM    3  H   LIG     1       1.122  -1.297   2.748  1.00  0.00     0.211 HD
ENDBRANCH   1   2
BRANCH   1   4
HETATM    4  C   LIG     1       1.752   0.033   0.548  1.00  0.00    -0.022 A 
HETATM    5  C   LIG     1       1.888   1.432   0.529  1.00  0.00     0.010 A 
HETATM    6  C   LIG     1       3.063   2.021   0.051  1.00  0.00     0.001 A 
HETATM    7  C   LIG     1       4.110   1.221  -0.413  1.00  0.00     0.000 A 
HETATM    8  C   LIG     1       3.985  -0.170  -0.400  1.00  0.00     0.001 A 
HETATM    9  C   LIG     1       2.812  -0.764   0.076  1.00  0.00     0.010 A 
ENDBRANCH   1   4
BRANCH   1  10
HETATM   10  C   LIG     1      -0.368  -1.086  -0.098  1.00  0.00     0.192 C 
HETATM   11  O   LIG     1       0.134  -1.904  -0.918  1.00  0.00    -0.289 OA
BRANCH  10  12
HETATM   12  C   LIG     1      -1.762  -0.627  -0.307  1.00  0.00     0.013 A 
HETATM   13  C   LIG     1      -2.609  -0.337   0.780  1.00  0.00     0.015 A 
HETATM   14  C   LIG     1      -3.923   0.086   0.560  1.00  0.00     0.001 A 
HETATM   15  C   LIG     1      -4.409   0.216  -0.743  1.00  0.00     0.000 A 
HETATM   16  C   LIG     1      -3.584  -0.084  -1.829  1.00  0.00     0.001 A 
HETATM   17  C   LIG     1      -2.269  -0.508  -1.614  1.00  0.00     0.015 A 
ENDBRANCH  10  12
ENDBRANCH   1  10
TORSDOF 4
