REMARK  3 active torsions:
REMARK  status: ('A' for Active; 'I' for Inactive)
REMARK    1  A    between atoms: N_1  and  C_2 
REMARK    2  A    between atoms: C_3  and  C_4 
REMARK    3  A    between atoms: C_9  and  C_10 
ROOT
HETATM    1  C   LIG     1       0.163   0.085  -0.557  1.00  0.00     0.038 A 
HETATM    2  C   LIG     1       1.213  -0.611   0.106  1.00  0.00    -0.032 A 
HETATM    3  C   LIG     1       0.940  -1.832   0.744  1.00  0.00     0.009 A 
HETATM    4  C   LIG     1      -0.337  -2.382   0.713  1.00  0.00     0.001 A 
HETATM    5  C   LIG     1      -1.364  -1.726   0.043  1.00  0.00     0.009 A 
HETATM    6  C   LIG     1      -1.133  -0.503  -0.607  1.00  0.00    -0.032 A 
ENDROOT
BRANCH   1   7
HETATM    7  N   LIG     1       0.405   1.373  -1.156  1.00  0.00    -0.398 N 
HETATM    8  H   LIG     1       1.330   1.848  -1.110  1.00  0.00     0.156 HD
HETATM    9  H   LIG     1      -0.347   1.926  -1.619  1.00  0.00     0.156 HD
ENDBRANCH   1   7
BRANCH   6  10
HETATM   10  C   LIG     1      -2.303   0.162  -1.299  1.00  0.00     0.036 C 
HETATM   11  C   LIG     1      -2.960   1.198  -0.391  1.00  0.00     0.010 C 
ENDBRANCH   6  10
BRANCH   2  12
HETATM   12  C   LIG     1       2.622  -0.066   0.199  1.00  0.00     0.036 C 
HETATM   13  C   LIG     1       2.748   0.934   1.345  1.00  0.00     0.010 C 
ENDBRANCH   2  12
TORSDOF 3
