MODEL 1
REMARK VINA RESULT:      -6.6      0.000      0.000
REMARK  1 active torsions:
REMARK  status: ('A' for Active; 'I' for Inactive)
REMARK    1  A    between atoms: N_2  and  C_3 
REMARK       I    between atoms: N_2  and  C_9 
ROOT
HETATM    1  C   LIG     1      17.855  38.019  21.617  1.00  0.00     0.036 A 
HETATM    2  C   LIG     1      18.409  39.226  21.157  1.00  0.00     0.029 A 
HETATM    3  C   LIG     1      19.099  39.267  19.942  1.00  0.00     0.002 A 
HETATM    4  C   LIG     1      19.243  38.106  19.178  1.00  0.00     0.000 A 
HETATM    5  C   LIG     1      18.698  36.900  19.628  1.00  0.00     0.002 A 
HETATM    6  C   LIG     1      18.007  36.855  20.843  1.00  0.00     0.029 A 
ENDROOT
BRANCH   1   7
HETATM    7  N   LIG     1      17.147  37.972  22.871  1.00  0.00    -0.323 N 
HETATM    8  C   LIG     1      15.689  37.812  22.871  1.00  0.00     0.159 C 
HETATM    9  C   LIG     1      17.868  38.110  24.116  1.00  0.00     0.220 C 
HETATM   10  C   LIG     1      17.197  37.884  25.438  1.00  0.00     0.117 C 
HETATM   11  O   LIG     1      19.084  38.445  24.108  1.00  0.00    -0.274 OA
ENDBRANCH   1   7
TORSDOF 1
ENDMDL
MODEL 2
REMARK VINA RESULT:      -6.5      2.694      3.620
REMARK  1 active torsions:
REMARK  status: ('A' for Active; 'I' for Inactive)
REMARK    1  A    between atoms: N_2  and  C_3 
REMARK       I    between atoms: N_2  and  C_9 
ROOT
HETATM    1  C   LIG     1      17.740  36.869  21.036  1.00  0.00     0.036 A 
HETATM    2  C   LIG     1      18.633  36.716  19.962  1.00  0.00     0.029 A 
HETATM    3  C   LIG     1      19.398  37.800  19.521  1.00  0.00     0.002 A 
HETATM    4  C   LIG     1      19.278  39.044  20.147  1.00  0.00     0.000 A 
HETATM    5  C   LIG     1      18.390  39.206  21.215  1.00  0.00     0.002 A 
HETATM    6  C   LIG     1      17.623  38.124  21.659  1.00  0.00     0.029 A 
ENDROOT
BRANCH   1   7
HETATM    7  N   LIG     1      16.947  35.755  21.490  1.00  0.00    -0.323 N 
HETATM    8  C   LIG     1      17.030  35.333  22.892  1.00  0.00     0.159 C 
HETATM    9  C   LIG     1      16.100  35.042  20.561  1.00  0.00     0.220 C 
HETATM   10  C   LIG     1      15.127  34.002  21.030  1.00  0.00     0.117 C 
HETATM   11  O   LIG     1      16.181  35.277  19.325  1.00  0.00    -0.274 OA
ENDBRANCH   1   7
TORSDOF 1
ENDMDL
MODEL 3
REMARK VINA RESULT:      -6.4      2.862      5.149
REMARK  1 active torsions:
REMARK  status: ('A' for Active; 'I' for Inactive)
REMARK    1  A    between atoms: N_2  and  C_3 
REMARK       I    between atoms: N_2  and  C_9 
ROOT
HETATM    1  C   LIG     1      17.263  36.343  24.340  1.00  0.00     0.036 A 
HETATM    2  C   LIG     1      17.235  35.077  24.950  1.00  0.00     0.029 A 
HETATM    3  C   LIG     1      17.858  34.877  26.186  1.00  0.00     0.002 A 
HETATM    4  C   LIG     1      18.512  35.936  26.822  1.00  0.00     0.000 A 
HETATM    5  C   LIG     1      18.545  37.198  26.221  1.00  0.00     0.002 A 
HETATM    6  C   LIG     1      17.924  37.402  24.985  1.00  0.00     0.029 A 
ENDROOT
BRANCH   1   7
HETATM    7  N   LIG     1      16.626  36.551  23.064  1.00  0.00    -0.323 N 
HETATM    8  C   LIG     1      15.717  37.689  22.888  1.00  0.00     0.159 C 
HETATM    9  C   LIG     1      16.862  35.628  21.977  1.00  0.00     0.220 C 
HETATM   10  C   LIG     1      16.368  35.912  20.590  1.00  0.00     0.117 C 
HETATM   11  O   LIG     1      17.481  34.550  22.188  1.00  0.00    -0.274 OA
ENDBRANCH   1   7
TORSDOF 1
ENDMDL
MODEL 4
REMARK VINA RESULT:      -6.0      2.835      4.900
REMARK  1 active torsions:
REMARK  status: ('A' for Active; 'I' for Inactive)
REMARK    1  A    between atoms: N_2  and  C_3 
REMARK       I    between atoms: N_2  and  C_9 
ROOT
HETATM    1  C   LIG     1      17.056  36.134  22.877  1.00  0.00     0.036 A 
HETATM    2  C   LIG     1      17.050  37.426  23.431  1.00  0.00     0.029 A 
HETATM    3  C   LIG     1      17.228  37.605  24.806  1.00  0.00     0.002 A 
HETATM    4  C   LIG     1      17.413  36.498  25.639  1.00  0.00     0.000 A 
HETATM    5  C   LIG     1      17.419  35.209  25.097  1.00  0.00     0.002 A 
HETATM    6  C   LIG     1      17.241  35.026  23.722  1.00  0.00     0.029 A 
ENDROOT
BRANCH   1   7
HETATM    7  N   LIG     1      16.867  35.947  21.461  1.00  0.00    -0.323 N 
HETATM    8  C   LIG     1      17.865  36.475  20.524  1.00  0.00     0.159 C 
HETATM    9  C   LIG     1      15.690  35.268  20.970  1.00  0.00     0.220 C 
HETATM   10  C   LIG     1      15.549  34.893  19.525  1.00  0.00     0.117 C 
HETATM   11  O   LIG     1      14.745  34.994  21.758  1.00  0.00    -0.274 OA
ENDBRANCH   1   7
TORSDOF 1
ENDMDL
MODEL 5
REMARK VINA RESULT:      -6.0      1.858      4.774
REMARK  1 active torsions:
REMARK  status: ('A' for Active; 'I' for Inactive)
REMARK    1  A    between atoms: N_2  and  C_3 
REMARK       I    between atoms: N_2  and  C_9 
ROOT
HETATM    1  C   LIG     1      17.475  36.753  24.340  1.00  0.00     0.036 A 
HETATM    2  C   LIG     1      17.249  35.372  24.464  1.00  0.00     0.029 A 
HETATM    3  C   LIG     1      17.562  34.710  25.656  1.00  0.00     0.002 A 
HETATM    4  C   LIG     1      18.104  35.421  26.731  1.00  0.00     0.000 A 
HETATM    5  C   LIG     1      18.334  36.795  26.615  1.00  0.00     0.002 A 
HETATM    6  C   LIG     1      18.022  37.460  25.425  1.00  0.00     0.029 A 
ENDROOT
BRANCH   1   7
HETATM    7  N   LIG     1      17.158  37.437  23.112  1.00  0.00    -0.323 N 
HETATM    8  C   LIG     1      15.989  37.015  22.332  1.00  0.00     0.159 C 
HETATM    9  C   LIG     1      18.002  38.510  22.641  1.00  0.00     0.220 C 
HETATM   10  C   LIG     1      17.605  39.362  21.472  1.00  0.00     0.117 C 
HETATM   11  O   LIG     1      19.108  38.737  23.203  1.00  0.00    -0.274 OA
ENDBRANCH   1   7
TORSDOF 1
ENDMDL
MODEL 6
REMARK VINA RESULT:      -5.7      7.625      8.801
REMARK  1 active torsions:
REMARK  status: ('A' for Active; 'I' for Inactive)
REMARK    1  A    between atoms: N_2  and  C_3 
REMARK       I    between atoms: N_2  and  C_9 
ROOT
HETATM    1  C   LIG     1      14.540  32.040  16.770  1.00  0.00     0.036 A 
HETATM    2  C   LIG     1      13.258  31.472  16.866  1.00  0.00     0.029 A 
HETATM    3  C   LIG     1      12.831  30.532  15.922  1.00  0.00     0.002 A 
HETATM    4  C   LIG     1      13.678  30.154  14.877  1.00  0.00     0.000 A 
HETATM    5  C   LIG     1      14.954  30.715  14.773  1.00  0.00     0.002 A 
HETATM    6  C   LIG     1      15.385  31.655  15.715  1.00  0.00     0.029 A 
ENDROOT
BRANCH   1   7
HETATM    7  N   LIG     1      14.981  33.012  17.739  1.00  0.00    -0.323 N 
HETATM    8  C   LIG     1      15.222  34.395  17.315  1.00  0.00     0.159 C 
HETATM    9  C   LIG     1      15.210  32.616  19.110  1.00  0.00     0.220 C 
HETATM   10  C   LIG     1      15.489  33.629  20.180  1.00  0.00     0.117 C 
HETATM   11  O   LIG     1      15.195  31.395  19.425  1.00  0.00    -0.274 OA
ENDBRANCH   1   7
TORSDOF 1
ENDMDL
MODEL 7
REMARK VINA RESULT:      -5.7      2.101      3.000
REMARK  1 active torsions:
REMARK  status: ('A' for Active; 'I' for Inactive)
REMARK    1  A    between atoms: N_2  and  C_3 
REMARK       I    between atoms: N_2  and  C_9 
ROOT
HETATM    1  C   LIG     1      16.521  36.854  22.179  1.00  0.00     0.036 A 
HETATM    2  C   LIG     1      15.204  36.365  22.118  1.00  0.00     0.029 A 
HETATM    3  C   LIG     1      14.808  35.536  21.064  1.00  0.00     0.002 A 
HETATM    4  C   LIG     1      15.721  35.189  20.064  1.00  0.00     0.000 A 
HETATM    5  C   LIG     1      17.032  35.672  20.116  1.00  0.00     0.002 A 
HETATM    6  C   LIG     1      17.432  36.502  21.168  1.00  0.00     0.029 A 
ENDROOT
BRANCH   1   7
HETATM    7  N   LIG     1      16.930  37.713  23.261  1.00  0.00    -0.323 N 
HETATM    8  C   LIG     1      17.076  39.153  23.025  1.00  0.00     0.159 C 
HETATM    9  C   LIG     1      17.221  37.151  24.561  1.00  0.00     0.220 C 
HETATM   10  C   LIG     1      17.470  38.027  25.753  1.00  0.00     0.117 C 
HETATM   11  O   LIG     1      17.289  35.901  24.708  1.00  0.00    -0.274 OA
ENDBRANCH   1   7
TORSDOF 1
ENDMDL
MODEL 8
REMARK VINA RESULT:      -5.7      2.239      3.009
REMARK  1 active torsions:
REMARK  status: ('A' for Active; 'I' for Inactive)
REMARK    1  A    between atoms: N_2  and  C_3 
REMARK       I    between atoms: N_2  and  C_9 
ROOT
HETATM    1  C   LIG     1      16.805  35.851  22.538  1.00  0.00     0.036 A 
HETATM    2  C   LIG     1      17.546  36.481  21.523  1.00  0.00     0.029 A 
HETATM    3  C   LIG     1      17.282  36.199  20.179  1.00  0.00     0.002 A 
HETATM    4  C   LIG     1      16.279  35.288  19.838  1.00  0.00     0.000 A 
HETATM    5  C   LIG     1      15.538  34.656  20.840  1.00  0.00     0.002 A 
HETATM    6  C   LIG     1      15.799  34.935  22.186  1.00  0.00     0.029 A 
ENDROOT
BRANCH   1   7
HETATM    7  N   LIG     1      17.077  36.136  23.924  1.00  0.00    -0.323 N 
HETATM    8  C   LIG     1      17.453  35.042  24.825  1.00  0.00     0.159 C 
HETATM    9  C   LIG     1      16.953  37.486  24.424  1.00  0.00     0.220 C 
HETATM   10  C   LIG     1      17.403  37.852  25.808  1.00  0.00     0.117 C 
HETATM   11  O   LIG     1      16.441  38.383  23.701  1.00  0.00    -0.274 OA
ENDBRANCH   1   7
TORSDOF 1
ENDMDL
MODEL 9
REMARK VINA RESULT:      -5.6      7.651      8.840
REMARK  1 active torsions:
REMARK  status: ('A' for Active; 'I' for Inactive)
REMARK    1  A    between atoms: N_2  and  C_3 
REMARK       I    between atoms: N_2  and  C_9 
ROOT
HETATM    1  C   LIG     1      14.675  31.844  16.691  1.00  0.00     0.036 A 
HETATM    2  C   LIG     1      15.620  31.811  15.651  1.00  0.00     0.029 A 
HETATM    3  C   LIG     1      15.381  31.046  14.505  1.00  0.00     0.002 A 
HETATM    4  C   LIG     1      14.200  30.307  14.389  1.00  0.00     0.000 A 
HETATM    5  C   LIG     1      13.256  30.332  15.420  1.00  0.00     0.002 A 
HETATM    6  C   LIG     1      13.491  31.096  16.567  1.00  0.00     0.029 A 
ENDROOT
BRANCH   1   7
HETATM    7  N   LIG     1      14.920  32.628  17.875  1.00  0.00    -0.323 N 
HETATM    8  C   LIG     1      14.907  31.976  19.188  1.00  0.00     0.159 C 
HETATM    9  C   LIG     1      15.149  34.051  17.766  1.00  0.00     0.220 C 
HETATM   10  C   LIG     1      15.588  34.865  18.948  1.00  0.00     0.117 C 
HETATM   11  O   LIG     1      14.964  34.638  16.666  1.00  0.00    -0.274 OA
ENDBRANCH   1   7
TORSDOF 1
ENDMDL
MODEL 10
REMARK VINA RESULT:      -5.3      2.576      4.308
REMARK  1 active torsions:
REMARK  status: ('A' for Active; 'I' for Inactive)
REMARK    1  A    between atoms: N_2  and  C_3 
REMARK       I    between atoms: N_2  and  C_9 
ROOT
HETATM    1  C   LIG     1      17.369  36.605  21.075  1.00  0.00     0.036 A 
HETATM    2  C   LIG     1      17.240  36.162  22.402  1.00  0.00     0.029 A 
HETATM    3  C   LIG     1      16.411  35.079  22.708  1.00  0.00     0.002 A 
HETATM    4  C   LIG     1      15.703  34.430  21.692  1.00  0.00     0.000 A 
HETATM    5  C   LIG     1      15.823  34.865  20.368  1.00  0.00     0.002 A 
HETATM    6  C   LIG     1      16.652  35.948  20.059  1.00  0.00     0.029 A 
ENDROOT
BRANCH   1   7
HETATM    7  N   LIG     1      18.220  37.724  20.758  1.00  0.00    -0.323 N 
HETATM    8  C   LIG     1      17.957  39.028  21.375  1.00  0.00     0.159 C 
HETATM    9  C   LIG     1      19.305  37.565  19.817  1.00  0.00     0.220 C 
HETATM   10  C   LIG     1      20.319  38.649  19.603  1.00  0.00     0.117 C 
HETATM   11  O   LIG     1      19.405  36.505  19.142  1.00  0.00    -0.274 OA
ENDBRANCH   1   7
TORSDOF 1
ENDMDL
MODEL 11
REMARK VINA RESULT:      -5.3      2.053      4.449
REMARK  1 active torsions:
REMARK  status: ('A' for Active; 'I' for Inactive)
REMARK    1  A    between atoms: N_2  and  C_3 
REMARK       I    between atoms: N_2  and  C_9 
ROOT
HETATM    1  C   LIG     1      17.542  37.145  23.782  1.00  0.00     0.036 A 
HETATM    2  C   LIG     1      18.076  37.492  25.036  1.00  0.00     0.029 A 
HETATM    3  C   LIG     1      18.133  36.546  26.064  1.00  0.00     0.002 A 
HETATM    4  C   LIG     1      17.658  35.249  25.851  1.00  0.00     0.000 A 
HETATM    5  C   LIG     1      17.123  34.896  24.609  1.00  0.00     0.002 A 
HETATM    6  C   LIG     1      17.065  35.839  23.577  1.00  0.00     0.029 A 
ENDROOT
BRANCH   1   7
HETATM    7  N   LIG     1      17.479  38.118  22.722  1.00  0.00    -0.323 N 
HETATM    8  C   LIG     1      16.877  39.430  22.982  1.00  0.00     0.159 C 
HETATM    9  C   LIG     1      17.979  37.790  21.406  1.00  0.00     0.220 C 
HETATM   10  C   LIG     1      18.098  38.831  20.333  1.00  0.00     0.117 C 
HETATM   11  O   LIG     1      18.310  36.604  21.134  1.00  0.00    -0.274 OA
ENDBRANCH   1   7
TORSDOF 1
ENDMDL
MODEL 12
REMARK VINA RESULT:      -5.2      7.296      8.882
REMARK  1 active torsions:
REMARK  status: ('A' for Active; 'I' for Inactive)
REMARK    1  A    between atoms: N_2  and  C_3 
REMARK       I    between atoms: N_2  and  C_9 
ROOT
HETATM    1  C   LIG     1      15.014  32.700  17.672  1.00  0.00     0.036 A 
HETATM    2  C   LIG     1      15.074  32.027  18.905  1.00  0.00     0.029 A 
HETATM    3  C   LIG     1      15.329  32.735  20.083  1.00  0.00     0.002 A 
HETATM    4  C   LIG     1      15.526  34.118  20.041  1.00  0.00     0.000 A 
HETATM    5  C   LIG     1      15.471  34.795  18.820  1.00  0.00     0.002 A 
HETATM    6  C   LIG     1      15.216  34.090  17.639  1.00  0.00     0.029 A 
ENDROOT
BRANCH   1   7
HETATM    7  N   LIG     1      14.756  31.972  16.456  1.00  0.00    -0.323 N 
HETATM    8  C   LIG     1      15.718  32.048  15.351  1.00  0.00     0.159 C 
HETATM    9  C   LIG     1      13.544  31.197  16.318  1.00  0.00     0.220 C 
HETATM   10  C   LIG     1      13.328  30.284  15.148  1.00  0.00     0.117 C 
HETATM   11  O   LIG     1      12.632  31.293  17.183  1.00  0.00    -0.274 OA
ENDBRANCH   1   7
TORSDOF 1
ENDMDL
MODEL 13
REMARK VINA RESULT:      -5.2     10.138     11.579
REMARK  1 active torsions:
REMARK  status: ('A' for Active; 'I' for Inactive)
REMARK    1  A    between atoms: N_2  and  C_3 
REMARK       I    between atoms: N_2  and  C_9 
ROOT
HETATM    1  C   LIG     1      14.528  29.911  14.600  1.00  0.00     0.036 A 
HETATM    2  C   LIG     1      13.177  29.540  14.486  1.00  0.00     0.029 A 
HETATM    3  C   LIG     1      12.830  28.300  13.941  1.00  0.00     0.002 A 
HETATM    4  C   LIG     1      13.826  27.422  13.506  1.00  0.00     0.000 A 
HETATM    5  C   LIG     1      15.173  27.783  13.615  1.00  0.00     0.002 A 
HETATM    6  C   LIG     1      15.524  29.022  14.159  1.00  0.00     0.029 A 
ENDROOT
BRANCH   1   7
HETATM    7  N   LIG     1      14.889  31.190  15.157  1.00  0.00    -0.323 N 
HETATM    8  C   LIG     1      15.833  32.050  14.437  1.00  0.00     0.159 C 
HETATM    9  C   LIG     1      14.344  31.606  16.429  1.00  0.00     0.220 C 
HETATM   10  C   LIG     1      14.549  32.998  16.950  1.00  0.00     0.117 C 
HETATM   11  O   LIG     1      13.695  30.788  17.136  1.00  0.00    -0.274 OA
ENDBRANCH   1   7
TORSDOF 1
ENDMDL
MODEL 14
REMARK VINA RESULT:      -5.1      2.253      3.006
REMARK  1 active torsions:
REMARK  status: ('A' for Active; 'I' for Inactive)
REMARK    1  A    between atoms: N_2  and  C_3 
REMARK       I    between atoms: N_2  and  C_9 
ROOT
HETATM    1  C   LIG     1      17.181  36.406  23.146  1.00  0.00     0.036 A 
HETATM    2  C   LIG     1      17.570  37.200  22.053  1.00  0.00     0.029 A 
HETATM    3  C   LIG     1      17.315  36.774  20.746  1.00  0.00     0.002 A 
HETATM    4  C   LIG     1      16.670  35.555  20.519  1.00  0.00     0.000 A 
HETATM    5  C   LIG     1      16.280  34.758  21.599  1.00  0.00     0.002 A 
HETATM    6  C   LIG     1      16.534  35.181  22.908  1.00  0.00     0.029 A 
ENDROOT
BRANCH   1   7
HETATM    7  N   LIG     1      17.447  36.840  24.494  1.00  0.00    -0.323 N 
HETATM    8  C   LIG     1      17.403  38.271  24.813  1.00  0.00     0.159 C 
HETATM    9  C   LIG     1      17.780  35.872  25.514  1.00  0.00     0.220 C 
HETATM   10  C   LIG     1      17.882  36.263  26.958  1.00  0.00     0.117 C 
HETATM   11  O   LIG     1      18.011  34.674  25.196  1.00  0.00    -0.274 OA
ENDBRANCH   1   7
TORSDOF 1
ENDMDL
MODEL 15
REMARK VINA RESULT:      -5.1      2.476      3.313
REMARK  1 active torsions:
REMARK  status: ('A' for Active; 'I' for Inactive)
REMARK    1  A    between atoms: N_2  and  C_3 
REMARK       I    between atoms: N_2  and  C_9 
ROOT
HETATM    1  C   LIG     1      17.484  37.673  24.055  1.00  0.00     0.036 A 
HETATM    2  C   LIG     1      18.630  38.296  23.530  1.00  0.00     0.029 A 
HETATM    3  C   LIG     1      18.534  39.105  22.394  1.00  0.00     0.002 A 
HETATM    4  C   LIG     1      17.297  39.299  21.773  1.00  0.00     0.000 A 
HETATM    5  C   LIG     1      16.152  38.682  22.288  1.00  0.00     0.002 A 
HETATM    6  C   LIG     1      16.244  37.871  23.424  1.00  0.00     0.029 A 
ENDROOT
BRANCH   1   7
HETATM    7  N   LIG     1      17.581  36.835  25.223  1.00  0.00    -0.323 N 
HETATM    8  C   LIG     1      17.940  37.433  26.513  1.00  0.00     0.159 C 
HETATM    9  C   LIG     1      17.352  35.412  25.115  1.00  0.00     0.220 C 
HETATM   10  C   LIG     1      17.263  34.540  26.332  1.00  0.00     0.117 C 
HETATM   11  O   LIG     1      17.242  34.875  23.980  1.00  0.00    -0.274 OA
ENDBRANCH   1   7
TORSDOF 1
ENDMDL
MODEL 16
REMARK VINA RESULT:      -4.9      9.441     11.044
REMARK  1 active torsions:
REMARK  status: ('A' for Active; 'I' for Inactive)
REMARK    1  A    between atoms: N_2  and  C_3 
REMARK       I    between atoms: N_2  and  C_9 
ROOT
HETATM    1  C   LIG     1      14.924  30.879  14.906  1.00  0.00     0.036 A 
HETATM    2  C   LIG     1      13.566  30.781  15.253  1.00  0.00     0.029 A 
HETATM    3  C   LIG     1      12.826  29.650  14.894  1.00  0.00     0.002 A 
HETATM    4  C   LIG     1      13.435  28.610  14.187  1.00  0.00     0.000 A 
HETATM    5  C   LIG     1      14.785  28.699  13.836  1.00  0.00     0.002 A 
HETATM    6  C   LIG     1      15.528  29.829  14.193  1.00  0.00     0.029 A 
ENDROOT
BRANCH   1   7
HETATM    7  N   LIG     1      15.688  32.045  15.270  1.00  0.00    -0.323 N 
HETATM    8  C   LIG     1      15.476  32.667  16.582  1.00  0.00     0.159 C 
HETATM    9  C   LIG     1      16.635  32.612  14.337  1.00  0.00     0.220 C 
HETATM   10  C   LIG     1      17.575  33.707  14.745  1.00  0.00     0.117 C 
HETATM   11  O   LIG     1      16.671  32.200  13.146  1.00  0.00    -0.274 OA
ENDBRANCH   1   7
TORSDOF 1
ENDMDL
MODEL 17
REMARK VINA RESULT:      -4.9      7.543      9.104
REMARK  1 active torsions:
REMARK  status: ('A' for Active; 'I' for Inactive)
REMARK    1  A    between atoms: N_2  and  C_3 
REMARK       I    between atoms: N_2  and  C_9 
ROOT
HETATM    1  C   LIG     1      14.842  32.374  17.223  1.00  0.00     0.036 A 
HETATM    2  C   LIG     1      15.037  33.757  17.062  1.00  0.00     0.029 A 
HETATM    3  C   LIG     1      15.344  34.558  18.166  1.00  0.00     0.002 A 
HETATM    4  C   LIG     1      15.457  33.988  19.437  1.00  0.00     0.000 A 
HETATM    5  C   LIG     1      15.262  32.613  19.606  1.00  0.00     0.002 A 
HETATM    6  C   LIG     1      14.955  31.809  18.504  1.00  0.00     0.029 A 
ENDROOT
BRANCH   1   7
HETATM    7  N   LIG     1      14.521  31.546  16.088  1.00  0.00    -0.323 N 
HETATM    8  C   LIG     1      13.212  30.888  16.021  1.00  0.00     0.159 C 
HETATM    9  C   LIG     1      15.495  31.346  15.039  1.00  0.00     0.220 C 
HETATM   10  C   LIG     1      15.135  30.647  13.761  1.00  0.00     0.117 C 
HETATM   11  O   LIG     1      16.680  31.747  15.193  1.00  0.00    -0.274 OA
ENDBRANCH   1   7
TORSDOF 1
ENDMDL
MODEL 18
REMARK VINA RESULT:      -4.8      1.634      4.437
REMARK  1 active torsions:
REMARK  status: ('A' for Active; 'I' for Inactive)
REMARK    1  A    between atoms: N_2  and  C_3 
REMARK       I    between atoms: N_2  and  C_9 
ROOT
HETATM    1  C   LIG     1      17.541  37.209  22.565  1.00  0.00     0.036 A 
HETATM    2  C   LIG     1      17.308  36.092  23.385  1.00  0.00     0.029 A 
HETATM    3  C   LIG     1      17.143  36.253  24.765  1.00  0.00     0.002 A 
HETATM    4  C   LIG     1      17.210  37.527  25.335  1.00  0.00     0.000 A 
HETATM    5  C   LIG     1      17.444  38.643  24.526  1.00  0.00     0.002 A 
HETATM    6  C   LIG     1      17.609  38.487  23.146  1.00  0.00     0.029 A 
ENDROOT
BRANCH   1   7
HETATM    7  N   LIG     1      17.716  37.046  21.144  1.00  0.00    -0.323 N 
HETATM    8  C   LIG     1      17.010  35.964  20.449  1.00  0.00     0.159 C 
HETATM    9  C   LIG     1      18.603  37.926  20.417  1.00  0.00     0.220 C 
HETATM   10  C   LIG     1      18.669  37.906  18.919  1.00  0.00     0.117 C 
HETATM   11  O   LIG     1      19.355  38.721  21.042  1.00  0.00    -0.274 OA
ENDBRANCH   1   7
TORSDOF 1
ENDMDL
MODEL 19
REMARK VINA RESULT:      -4.8      9.943     11.498
REMARK  1 active torsions:
REMARK  status: ('A' for Active; 'I' for Inactive)
REMARK    1  A    between atoms: N_2  and  C_3 
REMARK       I    between atoms: N_2  and  C_9 
ROOT
HETATM    1  C   LIG     1      14.389  30.571  15.213  1.00  0.00     0.036 A 
HETATM    2  C   LIG     1      15.410  31.468  14.856  1.00  0.00     0.029 A 
HETATM    3  C   LIG     1      15.645  32.612  15.626  1.00  0.00     0.002 A 
HETATM    4  C   LIG     1      14.864  32.868  16.756  1.00  0.00     0.000 A 
HETATM    5  C   LIG     1      13.844  31.982  17.118  1.00  0.00     0.002 A 
HETATM    6  C   LIG     1      13.606  30.837  16.350  1.00  0.00     0.029 A 
ENDROOT
BRANCH   1   7
HETATM    7  N   LIG     1      14.141  29.394  14.418  1.00  0.00    -0.323 N 
HETATM    8  C   LIG     1      12.763  29.034  14.071  1.00  0.00     0.159 C 
HETATM    9  C   LIG     1      15.244  28.562  13.993  1.00  0.00     0.220 C 
HETATM   10  C   LIG     1      15.046  27.440  13.018  1.00  0.00     0.117 C 
HETATM   11  O   LIG     1      16.400  28.761  14.456  1.00  0.00    -0.274 OA
ENDBRANCH   1   7
TORSDOF 1
ENDMDL
MODEL 20
REMARK VINA RESULT:      -4.7      2.610      4.965
REMARK  1 active torsions:
REMARK  status: ('A' for Active; 'I' for Inactive)
REMARK    1  A    between atoms: N_2  and  C_3 
REMARK       I    between atoms: N_2  and  C_9 
ROOT
HETATM    1  C   LIG     1      18.615  38.377  20.510  1.00  0.00     0.036 A 
HETATM    2  C   LIG     1      17.970  37.132  20.604  1.00  0.00     0.029 A 
HETATM    3  C   LIG     1      17.139  36.848  21.691  1.00  0.00     0.002 A 
HETATM    4  C   LIG     1      16.945  37.803  22.693  1.00  0.00     0.000 A 
HETATM    5  C   LIG     1      17.583  39.044  22.610  1.00  0.00     0.002 A 
HETATM    6  C   LIG     1      18.416  39.331  21.523  1.00  0.00     0.029 A 
ENDROOT
BRANCH   1   7
HETATM    7  N   LIG     1      19.476  38.671  19.393  1.00  0.00    -0.323 N 
HETATM    8  C   LIG     1      20.883  38.259  19.438  1.00  0.00     0.159 C 
HETATM    9  C   LIG     1      18.961  39.390  18.250  1.00  0.00     0.220 C 
HETATM   10  C   LIG     1      19.770  39.552  16.998  1.00  0.00     0.117 C 
HETATM   11  O   LIG     1      17.815  39.914  18.299  1.00  0.00    -0.274 OA
ENDBRANCH   1   7
TORSDOF 1
ENDMDL
