MODEL 1
REMARK VINA RESULT:      -5.9      0.000      0.000
REMARK  0 active torsions:
REMARK  status: ('A' for Active; 'I' for Inactive)
ROOT
HETATM    1  O   LIG     1      17.040  34.745  15.734  1.00  0.00    -0.246 OA
HETATM    2  C   LIG     1      16.360  33.696  15.555  1.00  0.00     0.332 A 
HETATM    3  N   LIG     1      15.348  33.385  16.440  1.00  0.00    -0.286 N 
HETATM    4  C   LIG     1      15.079  34.229  17.611  1.00  0.00     0.163 C 
HETATM    5  C   LIG     1      14.643  32.240  16.227  1.00  0.00     0.167 A 
HETATM    6  C   LIG     1      14.880  31.433  15.168  1.00  0.00     0.151 A 
HETATM    7  N   LIG     1      14.026  30.396  15.213  1.00  0.00    -0.338 N 
HETATM    8  C   LIG     1      13.908  29.273  14.290  1.00  0.00     0.157 C 
HETATM    9  C   LIG     1      13.288  30.618  16.328  1.00  0.00     0.212 A 
HETATM   10  N   LIG     1      13.640  31.755  16.985  1.00  0.00    -0.223 NA
HETATM   11  N   LIG     1      16.636  32.872  14.476  1.00  0.00    -0.269 N 
HETATM   12  C   LIG     1      17.693  33.244  13.523  1.00  0.00     0.164 C 
HETATM   13  C   LIG     1      15.881  31.741  14.257  1.00  0.00     0.282 A 
HETATM   14  O   LIG     1      16.087  31.000  13.256  1.00  0.00    -0.265 OA
ENDROOT
TORSDOF 0
ENDMDL
MODEL 2
REMARK VINA RESULT:      -5.8      6.728      9.080
REMARK  0 active torsions:
REMARK  status: ('A' for Active; 'I' for Inactive)
ROOT
HETATM    1  O   LIG     1      16.176  35.303  23.514  1.00  0.00    -0.246 OA
HETATM    2  C   LIG     1      16.762  36.068  22.697  1.00  0.00     0.332 A 
HETATM    3  N   LIG     1      17.276  37.268  23.143  1.00  0.00    -0.286 N 
HETATM    4  C   LIG     1      17.112  37.692  24.538  1.00  0.00     0.163 C 
HETATM    5  C   LIG     1      17.890  38.075  22.235  1.00  0.00     0.167 A 
HETATM    6  C   LIG     1      18.039  37.721  20.938  1.00  0.00     0.151 A 
HETATM    7  N   LIG     1      18.691  38.703  20.292  1.00  0.00    -0.338 N 
HETATM    8  C   LIG     1      19.073  38.770  18.886  1.00  0.00     0.157 C 
HETATM    9  C   LIG     1      18.913  39.641  21.245  1.00  0.00     0.212 A 
HETATM   10  N   LIG     1      18.432  39.288  22.466  1.00  0.00    -0.223 NA
HETATM   11  N   LIG     1      16.883  35.693  21.369  1.00  0.00    -0.269 N 
HETATM   12  C   LIG     1      16.364  34.390  20.925  1.00  0.00     0.164 C 
HETATM   13  C   LIG     1      17.546  36.507  20.477  1.00  0.00     0.282 A 
HETATM   14  O   LIG     1      17.707  36.167  19.273  1.00  0.00    -0.265 OA
ENDROOT
TORSDOF 0
ENDMDL
MODEL 3
REMARK VINA RESULT:      -5.8      1.593      3.651
REMARK  0 active torsions:
REMARK  status: ('A' for Active; 'I' for Inactive)
ROOT
HETATM    1  O   LIG     1      13.620  30.886  16.887  1.00  0.00    -0.246 OA
HETATM    2  C   LIG     1      14.474  31.433  16.134  1.00  0.00     0.332 A 
HETATM    3  N   LIG     1      15.097  32.592  16.546  1.00  0.00    -0.286 N 
HETATM    4  C   LIG     1      14.753  33.225  17.825  1.00  0.00     0.163 C 
HETATM    5  C   LIG     1      16.002  33.164  15.704  1.00  0.00     0.167 A 
HETATM    6  C   LIG     1      16.326  32.615  14.511  1.00  0.00     0.151 A 
HETATM    7  N   LIG     1      17.248  33.389  13.914  1.00  0.00    -0.338 N 
HETATM    8  C   LIG     1      17.891  33.202  12.618  1.00  0.00     0.157 C 
HETATM    9  C   LIG     1      17.450  34.406  14.787  1.00  0.00     0.212 A 
HETATM   10  N   LIG     1      16.695  34.301  15.913  1.00  0.00    -0.223 NA
HETATM   11  N   LIG     1      14.772  30.865  14.906  1.00  0.00    -0.269 N 
HETATM   12  C   LIG     1      14.124  29.606  14.505  1.00  0.00     0.164 C 
HETATM   13  C   LIG     1      15.722  31.438  14.090  1.00  0.00     0.282 A 
HETATM   14  O   LIG     1      16.042  30.913  12.987  1.00  0.00    -0.265 OA
ENDROOT
TORSDOF 0
ENDMDL
MODEL 4
REMARK VINA RESULT:      -5.5      0.872      3.379
REMARK  0 active torsions:
REMARK  status: ('A' for Active; 'I' for Inactive)
ROOT
HETATM    1  O   LIG     1      15.923  30.803  12.732  1.00  0.00    -0.246 OA
HETATM    2  C   LIG     1      15.710  31.337  13.857  1.00  0.00     0.332 A 
HETATM    3  N   LIG     1      14.840  30.733  14.740  1.00  0.00    -0.286 N 
HETATM    4  C   LIG     1      14.122  29.505  14.376  1.00  0.00     0.163 C 
HETATM    5  C   LIG     1      14.622  31.341  15.938  1.00  0.00     0.167 A 
HETATM    6  C   LIG     1      15.253  32.483  16.293  1.00  0.00     0.151 A 
HETATM    7  N   LIG     1      14.851  32.835  17.526  1.00  0.00    -0.338 N 
HETATM    8  C   LIG     1      15.255  33.991  18.320  1.00  0.00     0.157 C 
HETATM    9  C   LIG     1      13.965  31.872  17.879  1.00  0.00     0.212 A 
HETATM   10  N   LIG     1      13.796  30.925  16.919  1.00  0.00    -0.223 NA
HETATM   11  N   LIG     1      16.351  32.519  14.190  1.00  0.00    -0.269 N 
HETATM   12  C   LIG     1      17.307  33.124  13.248  1.00  0.00     0.164 C 
HETATM   13  C   LIG     1      16.148  33.094  15.425  1.00  0.00     0.282 A 
HETATM   14  O   LIG     1      16.754  34.147  15.766  1.00  0.00    -0.265 OA
ENDROOT
TORSDOF 0
ENDMDL
MODEL 5
REMARK VINA RESULT:      -5.5      1.491      3.013
REMARK  0 active torsions:
REMARK  status: ('A' for Active; 'I' for Inactive)
ROOT
HETATM    1  O   LIG     1      17.111  34.937  15.806  1.00  0.00    -0.246 OA
HETATM    2  C   LIG     1      16.455  33.883  15.574  1.00  0.00     0.332 A 
HETATM    3  N   LIG     1      16.788  33.104  14.485  1.00  0.00    -0.286 N 
HETATM    4  C   LIG     1      17.861  33.502  13.567  1.00  0.00     0.163 C 
HETATM    5  C   LIG     1      16.051  31.982  14.255  1.00  0.00     0.167 A 
HETATM    6  C   LIG     1      15.044  31.599  15.072  1.00  0.00     0.151 A 
HETATM    7  N   LIG     1      14.516  30.456  14.603  1.00  0.00    -0.338 N 
HETATM    8  C   LIG     1      13.411  29.673  15.146  1.00  0.00     0.157 C 
HETATM    9  C   LIG     1      15.238  30.185  13.488  1.00  0.00     0.212 A 
HETATM   10  N   LIG     1      16.203  31.109  13.239  1.00  0.00    -0.223 NA
HETATM   11  N   LIG     1      15.412  33.523  16.412  1.00  0.00    -0.269 N 
HETATM   12  C   LIG     1      15.101  34.348  17.590  1.00  0.00     0.164 C 
HETATM   13  C   LIG     1      14.709  32.361  16.183  1.00  0.00     0.282 A 
HETATM   14  O   LIG     1      13.784  31.991  16.958  1.00  0.00    -0.265 OA
ENDROOT
TORSDOF 0
ENDMDL
MODEL 6
REMARK VINA RESULT:      -5.3      6.750      9.104
REMARK  0 active torsions:
REMARK  status: ('A' for Active; 'I' for Inactive)
ROOT
HETATM    1  O   LIG     1      15.689  35.320  23.112  1.00  0.00    -0.246 OA
HETATM    2  C   LIG     1      16.460  36.033  22.410  1.00  0.00     0.332 A 
HETATM    3  N   LIG     1      16.671  35.701  21.088  1.00  0.00    -0.286 N 
HETATM    4  C   LIG     1      16.053  34.508  20.496  1.00  0.00     0.163 C 
HETATM    5  C   LIG     1      17.518  36.482  20.362  1.00  0.00     0.167 A 
HETATM    6  C   LIG     1      18.118  37.576  20.884  1.00  0.00     0.151 A 
HETATM    7  N   LIG     1      18.878  38.149  19.935  1.00  0.00    -0.338 N 
HETATM    8  C   LIG     1      19.710  39.344  20.033  1.00  0.00     0.157 C 
HETATM    9  C   LIG     1      18.709  37.358  18.847  1.00  0.00     0.212 A 
HETATM   10  N   LIG     1      17.871  36.312  19.072  1.00  0.00    -0.223 NA
HETATM   11  N   LIG     1      17.081  37.136  22.973  1.00  0.00    -0.269 N 
HETATM   12  C   LIG     1      16.808  37.494  24.374  1.00  0.00     0.164 C 
HETATM   13  C   LIG     1      17.900  37.936  22.207  1.00  0.00     0.282 A 
HETATM   14  O   LIG     1      18.441  38.970  22.687  1.00  0.00    -0.265 OA
ENDROOT
TORSDOF 0
ENDMDL
MODEL 7
REMARK VINA RESULT:      -5.2      5.904      7.788
REMARK  0 active torsions:
REMARK  status: ('A' for Active; 'I' for Inactive)
ROOT
HETATM    1  O   LIG     1      19.178  39.250  22.261  1.00  0.00    -0.246 OA
HETATM    2  C   LIG     1      18.456  38.348  21.750  1.00  0.00     0.332 A 
HETATM    3  N   LIG     1      17.385  37.852  22.463  1.00  0.00    -0.286 N 
HETATM    4  C   LIG     1      17.098  38.320  23.824  1.00  0.00     0.163 C 
HETATM    5  C   LIG     1      16.635  36.871  21.889  1.00  0.00     0.167 A 
HETATM    6  C   LIG     1      16.887  36.405  20.644  1.00  0.00     0.151 A 
HETATM    7  N   LIG     1      15.981  35.459  20.343  1.00  0.00    -0.338 N 
HETATM    8  C   LIG     1      15.856  34.675  19.120  1.00  0.00     0.157 C 
HETATM    9  C   LIG     1      15.197  35.382  21.447  1.00  0.00     0.212 A 
HETATM   10  N   LIG     1      15.571  36.245  22.429  1.00  0.00    -0.223 NA
HETATM   11  N   LIG     1      18.747  37.871  20.482  1.00  0.00    -0.269 N 
HETATM   12  C   LIG     1      19.870  38.444  19.723  1.00  0.00     0.164 C 
HETATM   13  C   LIG     1      17.949  36.908  19.904  1.00  0.00     0.282 A 
HETATM   14  O   LIG     1      18.169  36.490  18.734  1.00  0.00    -0.265 OA
ENDROOT
TORSDOF 0
ENDMDL
MODEL 8
REMARK VINA RESULT:      -5.0      6.485      9.031
REMARK  0 active torsions:
REMARK  status: ('A' for Active; 'I' for Inactive)
ROOT
HETATM    1  O   LIG     1      18.277  36.654  18.571  1.00  0.00    -0.246 OA
HETATM    2  C   LIG     1      18.053  36.983  19.770  1.00  0.00     0.332 A 
HETATM    3  N   LIG     1      17.117  36.282  20.501  1.00  0.00    -0.286 N 
HETATM    4  C   LIG     1      16.344  35.190  19.896  1.00  0.00     0.163 C 
HETATM    5  C   LIG     1      16.889  36.671  21.786  1.00  0.00     0.167 A 
HETATM    6  C   LIG     1      17.571  37.685  22.365  1.00  0.00     0.151 A 
HETATM    7  N   LIG     1      17.144  37.828  23.631  1.00  0.00    -0.338 N 
HETATM    8  C   LIG     1      17.583  38.789  24.637  1.00  0.00     0.157 C 
HETATM    9  C   LIG     1      16.192  36.873  23.774  1.00  0.00     0.212 A 
HETATM   10  N   LIG     1      16.005  36.133  22.650  1.00  0.00    -0.223 NA
HETATM   11  N   LIG     1      18.748  38.040  20.335  1.00  0.00    -0.269 N 
HETATM   12  C   LIG     1      19.771  38.747  19.548  1.00  0.00     0.164 C 
HETATM   13  C   LIG     1      18.531  38.388  21.650  1.00  0.00     0.282 A 
HETATM   14  O   LIG     1      19.184  39.319  22.198  1.00  0.00    -0.265 OA
ENDROOT
TORSDOF 0
ENDMDL
MODEL 9
REMARK VINA RESULT:      -4.6      7.555      9.803
REMARK  0 active torsions:
REMARK  status: ('A' for Active; 'I' for Inactive)
ROOT
HETATM    1  O   LIG     1      17.607  38.006  20.398  1.00  0.00    -0.246 OA
HETATM    2  C   LIG     1      17.528  37.481  21.545  1.00  0.00     0.332 A 
HETATM    3  N   LIG     1      17.938  38.200  22.648  1.00  0.00    -0.286 N 
HETATM    4  C   LIG     1      18.507  39.546  22.508  1.00  0.00     0.163 C 
HETATM    5  C   LIG     1      17.853  37.600  23.868  1.00  0.00     0.167 A 
HETATM    6  C   LIG     1      17.352  36.354  24.027  1.00  0.00     0.151 A 
HETATM    7  N   LIG     1      17.380  36.038  25.332  1.00  0.00    -0.338 N 
HETATM    8  C   LIG     1      16.949  34.804  25.980  1.00  0.00     0.157 C 
HETATM    9  C   LIG     1      17.916  37.131  25.930  1.00  0.00     0.212 A 
HETATM   10  N   LIG     1      18.221  38.123  25.054  1.00  0.00    -0.223 NA
HETATM   11  N   LIG     1      17.032  36.194  21.680  1.00  0.00    -0.269 N 
HETATM   12  C   LIG     1      16.563  35.462  20.493  1.00  0.00     0.164 C 
HETATM   13  C   LIG     1      16.916  35.625  22.928  1.00  0.00     0.282 A 
HETATM   14  O   LIG     1      16.426  34.471  23.080  1.00  0.00    -0.265 OA
ENDROOT
TORSDOF 0
ENDMDL
MODEL 10
REMARK VINA RESULT:      -4.6      6.701      8.578
REMARK  0 active torsions:
REMARK  status: ('A' for Active; 'I' for Inactive)
ROOT
HETATM    1  O   LIG     1      19.232  39.272  22.284  1.00  0.00    -0.246 OA
HETATM    2  C   LIG     1      18.446  38.321  22.016  1.00  0.00     0.332 A 
HETATM    3  N   LIG     1      18.421  37.803  20.737  1.00  0.00    -0.286 N 
HETATM    4  C   LIG     1      19.257  38.369  19.673  1.00  0.00     0.163 C 
HETATM    5  C   LIG     1      17.552  36.787  20.478  1.00  0.00     0.167 A 
HETATM    6  C   LIG     1      16.754  36.257  21.433  1.00  0.00     0.151 A 
HETATM    7  N   LIG     1      16.024  35.269  20.889  1.00  0.00    -0.338 N 
HETATM    8  C   LIG     1      15.027  34.416  21.528  1.00  0.00     0.157 C 
HETATM    9  C   LIG     1      16.413  35.240  19.591  1.00  0.00     0.212 A 
HETATM   10  N   LIG     1      17.362  36.167  19.296  1.00  0.00    -0.223 NA
HETATM   11  N   LIG     1      17.622  37.809  23.005  1.00  0.00    -0.269 N 
HETATM   12  C   LIG     1      17.696  38.350  24.372  1.00  0.00     0.164 C 
HETATM   13  C   LIG     1      16.782  36.753  22.730  1.00  0.00     0.282 A 
HETATM   14  O   LIG     1      16.055  36.243  23.626  1.00  0.00    -0.265 OA
ENDROOT
TORSDOF 0
ENDMDL
MODEL 11
REMARK VINA RESULT:      -3.6      8.423     10.623
REMARK  0 active torsions:
REMARK  status: ('A' for Active; 'I' for Inactive)
ROOT
HETATM    1  O   LIG     1      18.149  37.032  27.180  1.00  0.00    -0.246 OA
HETATM    2  C   LIG     1      17.713  36.957  25.997  1.00  0.00     0.332 A 
HETATM    3  N   LIG     1      17.305  38.106  25.352  1.00  0.00    -0.286 N 
HETATM    4  C   LIG     1      17.325  39.406  26.033  1.00  0.00     0.163 C 
HETATM    5  C   LIG     1      16.828  37.989  24.082  1.00  0.00     0.167 A 
HETATM    6  C   LIG     1      16.779  36.803  23.435  1.00  0.00     0.151 A 
HETATM    7  N   LIG     1      16.280  37.000  22.203  1.00  0.00    -0.338 N 
HETATM    8  C   LIG     1      16.039  36.020  21.150  1.00  0.00     0.157 C 
HETATM    9  C   LIG     1      16.034  38.333  22.150  1.00  0.00     0.212 A 
HETATM   10  N   LIG     1      16.363  38.982  23.298  1.00  0.00    -0.223 NA
HETATM   11  N   LIG     1      17.652  35.727  25.362  1.00  0.00    -0.269 N 
HETATM   12  C   LIG     1      18.131  34.521  26.055  1.00  0.00     0.164 C 
HETATM   13  C   LIG     1      17.205  35.640  24.062  1.00  0.00     0.282 A 
HETATM   14  O   LIG     1      17.182  34.536  23.450  1.00  0.00    -0.265 OA
ENDROOT
TORSDOF 0
ENDMDL
MODEL 12
REMARK VINA RESULT:      -3.4     13.932     14.317
REMARK  0 active torsions:
REMARK  status: ('A' for Active; 'I' for Inactive)
ROOT
HETATM    1  O   LIG     1      16.379  18.587  14.636  1.00  0.00    -0.246 OA
HETATM    2  C   LIG     1      15.360  18.453  13.903  1.00  0.00     0.332 A 
HETATM    3  N   LIG     1      14.114  18.358  14.486  1.00  0.00    -0.286 N 
HETATM    4  C   LIG     1      13.957  18.364  15.946  1.00  0.00     0.163 C 
HETATM    5  C   LIG     1      13.037  18.201  13.668  1.00  0.00     0.167 A 
HETATM    6  C   LIG     1      13.151  18.172  12.321  1.00  0.00     0.151 A 
HETATM    7  N   LIG     1      11.928  18.021  11.785  1.00  0.00    -0.338 N 
HETATM    8  C   LIG     1      11.556  17.933  10.377  1.00  0.00     0.157 C 
HETATM    9  C   LIG     1      11.098  17.957  12.855  1.00  0.00     0.212 A 
HETATM   10  N   LIG     1      11.749  18.066  14.043  1.00  0.00    -0.223 NA
HETATM   11  N   LIG     1      15.504  18.404  12.526  1.00  0.00    -0.269 N 
HETATM   12  C   LIG     1      16.839  18.548  11.924  1.00  0.00     0.164 C 
HETATM   13  C   LIG     1      14.396  18.287  11.717  1.00  0.00     0.282 A 
HETATM   14  O   LIG     1      14.499  18.284  10.459  1.00  0.00    -0.265 OA
ENDROOT
TORSDOF 0
ENDMDL
MODEL 13
REMARK VINA RESULT:      -3.2     14.580     15.240
REMARK  0 active torsions:
REMARK  status: ('A' for Active; 'I' for Inactive)
ROOT
HETATM    1  O   LIG     1      24.654  21.225  20.784  1.00  0.00    -0.246 OA
HETATM    2  C   LIG     1      25.336  22.263  20.552  1.00  0.00     0.332 A 
HETATM    3  N   LIG     1      26.175  22.754  21.531  1.00  0.00    -0.286 N 
HETATM    4  C   LIG     1      26.254  22.118  22.851  1.00  0.00     0.163 C 
HETATM    5  C   LIG     1      26.885  23.882  21.254  1.00  0.00     0.167 A 
HETATM    6  C   LIG     1      26.818  24.502  20.054  1.00  0.00     0.151 A 
HETATM    7  N   LIG     1      27.633  25.571  20.071  1.00  0.00    -0.338 N 
HETATM    8  C   LIG     1      27.887  26.539  19.010  1.00  0.00     0.157 C 
HETATM    9  C   LIG     1      28.173  25.561  21.315  1.00  0.00     0.212 A 
HETATM   10  N   LIG     1      27.734  24.527  22.080  1.00  0.00    -0.223 NA
HETATM   11  N   LIG     1      25.233  22.894  19.323  1.00  0.00    -0.269 N 
HETATM   12  C   LIG     1      24.363  22.328  18.280  1.00  0.00     0.164 C 
HETATM   13  C   LIG     1      25.994  24.009  19.051  1.00  0.00     0.282 A 
HETATM   14  O   LIG     1      25.950  24.574  17.923  1.00  0.00    -0.265 OA
ENDROOT
TORSDOF 0
ENDMDL
MODEL 14
REMARK VINA RESULT:      -3.2     14.575     14.801
REMARK  0 active torsions:
REMARK  status: ('A' for Active; 'I' for Inactive)
ROOT
HETATM    1  O   LIG     1      28.464  25.796  21.556  1.00  0.00    -0.246 OA
HETATM    2  C   LIG     1      27.628  25.020  21.011  1.00  0.00     0.332 A 
HETATM    3  N   LIG     1      27.155  23.932  21.714  1.00  0.00    -0.286 N 
HETATM    4  C   LIG     1      27.641  23.634  23.067  1.00  0.00     0.163 C 
HETATM    5  C   LIG     1      26.267  23.109  21.093  1.00  0.00     0.167 A 
HETATM    6  C   LIG     1      25.815  23.346  19.841  1.00  0.00     0.151 A 
HETATM    7  N   LIG     1      24.944  22.380  19.503  1.00  0.00    -0.338 N 
HETATM    8  C   LIG     1      24.208  22.215  18.255  1.00  0.00     0.157 C 
HETATM    9  C   LIG     1      24.904  21.570  20.589  1.00  0.00     0.212 A 
HETATM   10  N   LIG     1      25.710  21.990  21.599  1.00  0.00    -0.223 NA
HETATM   11  N   LIG     1      27.198  25.272  19.718  1.00  0.00    -0.269 N 
HETATM   12  C   LIG     1      27.685  26.461  19.002  1.00  0.00     0.164 C 
HETATM   13  C   LIG     1      26.266  24.449  19.126  1.00  0.00     0.282 A 
HETATM   14  O   LIG     1      25.826  24.683  17.967  1.00  0.00    -0.265 OA
ENDROOT
TORSDOF 0
ENDMDL
MODEL 15
REMARK VINA RESULT:      -3.2     14.589     15.388
REMARK  0 active torsions:
REMARK  status: ('A' for Active; 'I' for Inactive)
ROOT
HETATM    1  O   LIG     1      23.957  20.738  20.544  1.00  0.00    -0.246 OA
HETATM    2  C   LIG     1      24.728  21.738  20.522  1.00  0.00     0.332 A 
HETATM    3  N   LIG     1      24.811  22.503  19.377  1.00  0.00    -0.286 N 
HETATM    4  C   LIG     1      24.055  22.148  18.170  1.00  0.00     0.163 C 
HETATM    5  C   LIG     1      25.662  23.566  19.381  1.00  0.00     0.167 A 
HETATM    6  C   LIG     1      26.387  23.907  20.470  1.00  0.00     0.151 A 
HETATM    7  N   LIG     1      27.117  24.997  20.182  1.00  0.00    -0.338 N 
HETATM    8  C   LIG     1      28.050  25.722  21.039  1.00  0.00     0.157 C 
HETATM    9  C   LIG     1      26.803  25.280  18.894  1.00  0.00     0.212 A 
HETATM   10  N   LIG     1      25.901  24.415  18.361  1.00  0.00    -0.223 NA
HETATM   11  N   LIG     1      25.478  22.054  21.643  1.00  0.00    -0.269 N 
HETATM   12  C   LIG     1      25.342  21.248  22.866  1.00  0.00     0.164 C 
HETATM   13  C   LIG     1      26.300  23.159  21.637  1.00  0.00     0.282 A 
HETATM   14  O   LIG     1      26.958  23.491  22.661  1.00  0.00    -0.265 OA
ENDROOT
TORSDOF 0
ENDMDL
MODEL 16
REMARK VINA RESULT:      -3.1     14.104     14.475
REMARK  0 active torsions:
REMARK  status: ('A' for Active; 'I' for Inactive)
ROOT
HETATM    1  O   LIG     1      15.255  18.348  16.434  1.00  0.00    -0.246 OA
HETATM    2  C   LIG     1      15.441  18.270  15.187  1.00  0.00     0.332 A 
HETATM    3  N   LIG     1      14.354  18.287  14.338  1.00  0.00    -0.286 N 
HETATM    4  C   LIG     1      12.984  18.347  14.861  1.00  0.00     0.163 C 
HETATM    5  C   LIG     1      14.588  18.186  13.001  1.00  0.00     0.167 A 
HETATM    6  C   LIG     1      15.838  18.109  12.490  1.00  0.00     0.151 A 
HETATM    7  N   LIG     1      15.756  18.035  11.151  1.00  0.00    -0.338 N 
HETATM    8  C   LIG     1      16.837  17.933  10.176  1.00  0.00     0.157 C 
HETATM    9  C   LIG     1      14.425  18.066  10.894  1.00  0.00     0.212 A 
HETATM   10  N   LIG     1      13.667  18.161  12.017  1.00  0.00    -0.223 NA
HETATM   11  N   LIG     1      16.730  18.168  14.689  1.00  0.00    -0.269 N 
HETATM   12  C   LIG     1      17.876  18.193  15.611  1.00  0.00     0.164 C 
HETATM   13  C   LIG     1      16.944  18.111  13.330  1.00  0.00     0.282 A 
HETATM   14  O   LIG     1      18.111  18.063  12.852  1.00  0.00    -0.265 OA
ENDROOT
TORSDOF 0
ENDMDL
MODEL 17
REMARK VINA RESULT:      -3.0     14.538     14.986
REMARK  0 active torsions:
REMARK  status: ('A' for Active; 'I' for Inactive)
ROOT
HETATM    1  O   LIG     1      25.010  23.002  18.021  1.00  0.00    -0.246 OA
HETATM    2  C   LIG     1      24.914  22.797  19.263  1.00  0.00     0.332 A 
HETATM    3  N   LIG     1      23.855  22.057  19.748  1.00  0.00    -0.286 N 
HETATM    4  C   LIG     1      22.815  21.543  18.849  1.00  0.00     0.163 C 
HETATM    5  C   LIG     1      23.773  21.867  21.093  1.00  0.00     0.167 A 
HETATM    6  C   LIG     1      24.706  22.345  21.949  1.00  0.00     0.151 A 
HETATM    7  N   LIG     1      24.369  21.990  23.200  1.00  0.00    -0.338 N 
HETATM    8  C   LIG     1      25.066  22.282  24.448  1.00  0.00     0.157 C 
HETATM    9  C   LIG     1      23.213  21.298  23.053  1.00  0.00     0.212 A 
HETATM   10  N   LIG     1      22.811  21.198  21.759  1.00  0.00    -0.223 NA
HETATM   11  N   LIG     1      25.869  23.316  20.122  1.00  0.00    -0.269 N 
HETATM   12  C   LIG     1      27.012  24.067  19.579  1.00  0.00     0.164 C 
HETATM   13  C   LIG     1      25.789  23.074  21.476  1.00  0.00     0.282 A 
HETATM   14  O   LIG     1      26.671  23.499  22.271  1.00  0.00    -0.265 OA
ENDROOT
TORSDOF 0
ENDMDL
MODEL 18
REMARK VINA RESULT:      -3.0     14.861     15.304
REMARK  0 active torsions:
REMARK  status: ('A' for Active; 'I' for Inactive)
ROOT
HETATM    1  O   LIG     1      25.215  23.236  18.354  1.00  0.00    -0.246 OA
HETATM    2  C   LIG     1      25.092  22.921  19.572  1.00  0.00     0.332 A 
HETATM    3  N   LIG     1      26.045  23.337  20.478  1.00  0.00    -0.286 N 
HETATM    4  C   LIG     1      27.223  24.099  20.046  1.00  0.00     0.163 C 
HETATM    5  C   LIG     1      25.890  22.969  21.780  1.00  0.00     0.167 A 
HETATM    6  C   LIG     1      24.826  22.251  22.206  1.00  0.00     0.151 A 
HETATM    7  N   LIG     1      24.937  22.054  23.531  1.00  0.00    -0.338 N 
HETATM    8  C   LIG     1      24.035  21.334  24.423  1.00  0.00     0.157 C 
HETATM    9  C   LIG     1      26.097  22.672  23.865  1.00  0.00     0.212 A 
HETATM   10  N   LIG     1      26.717  23.254  22.805  1.00  0.00    -0.223 NA
HETATM   11  N   LIG     1      24.005  22.165  19.980  1.00  0.00    -0.269 N 
HETATM   12  C   LIG     1      22.980  21.768  19.002  1.00  0.00     0.164 C 
HETATM   13  C   LIG     1      23.847  21.842  21.310  1.00  0.00     0.282 A 
HETATM   14  O   LIG     1      22.843  21.192  21.711  1.00  0.00    -0.265 OA
ENDROOT
TORSDOF 0
ENDMDL
