REMARK  0 active torsions:
REMARK  status: ('A' for Active; 'I' for Inactive)
ROOT
HETATM    1  O   LIG     1      -3.133   0.225   0.405  1.00  0.00    -0.246 OA
HETATM    2  C   LIG     1      -1.884   0.123   0.246  1.00  0.00     0.332 A 
HETATM    3  N   LIG     1      -1.158   1.230  -0.141  1.00  0.00    -0.286 N 
HETATM    4  C   LIG     1      -1.818   2.512  -0.416  1.00  0.00     0.163 C 
HETATM    5  C   LIG     1       0.184   1.083  -0.317  1.00  0.00     0.167 A 
HETATM    6  C   LIG     1       0.818  -0.090  -0.091  1.00  0.00     0.151 A 
HETATM    7  N   LIG     1       2.130   0.072  -0.332  1.00  0.00    -0.338 N 
HETATM    8  C   LIG     1       3.203  -0.911  -0.228  1.00  0.00     0.157 C 
HETATM    9  C   LIG     1       2.244   1.369  -0.710  1.00  0.00     0.212 A 
HETATM   10  N   LIG     1       1.057   2.031  -0.712  1.00  0.00    -0.223 NA
HETATM   11  N   LIG     1      -1.260  -1.095   0.462  1.00  0.00    -0.269 N 
HETATM   12  C   LIG     1      -2.049  -2.252   0.914  1.00  0.00     0.164 C 
HETATM   13  C   LIG     1       0.105  -1.209   0.319  1.00  0.00     0.282 A 
HETATM   14  O   LIG     1       0.700  -2.297   0.553  1.00  0.00    -0.265 OA
ENDROOT
TORSDOF 0
