REMARK  1 active torsions:
REMARK  status: ('A' for Active; 'I' for Inactive)
REMARK    1  A    between atoms: C_19  and  O_21 
ROOT
HETATM    1  O   LIG     1       5.858   0.332  -1.731  1.00  0.00    -0.293 OA
HETATM    2  C   LIG     1       4.770   0.200  -1.111  1.00  0.00     0.149 C 
HETATM    3  C   LIG     1       4.485   1.076   0.074  1.00  0.00     0.084 C 
HETATM    4  C   LIG     1       2.985   1.111   0.400  1.00  0.00     0.022 C 
HETATM    5  C   LIG     1       2.340  -0.308   0.426  1.00  0.00    -0.016 C 
HETATM    6  C   LIG     1       2.923  -1.125   1.606  1.00  0.00     0.020 C 
HETATM    7  C   LIG     1       2.668  -1.055  -0.878  1.00  0.00    -0.068 C 
HETATM    8  C   LIG     1       1.627  -1.999  -1.458  1.00  0.00     0.035 C 
HETATM    9  C   LIG     1       0.267  -1.292  -1.692  1.00  0.00     0.010 C 
HETATM   10  C   LIG     1       0.114  -0.016  -0.832  1.00  0.00    -0.004 C 
HETATM   11  C   LIG     1       0.774  -0.226   0.568  1.00  0.00     0.002 C 
HETATM   12  C   LIG     1       0.227   0.784   1.609  1.00  0.00     0.007 C 
HETATM   13  C   LIG     1      -1.308   0.629   1.832  1.00  0.00     0.013 C 
HETATM   14  C   LIG     1      -2.104   0.186   0.551  1.00  0.00    -0.009 C 
HETATM   15  C   LIG     1      -2.371  -1.356   0.605  1.00  0.00     0.018 C 
HETATM   16  C   LIG     1      -1.313   0.583  -0.709  1.00  0.00     0.001 C 
HETATM   17  C   LIG     1      -2.295   0.482  -1.871  1.00  0.00     0.009 C 
HETATM   18  C   LIG     1      -3.666   0.818  -1.251  1.00  0.00     0.038 C 
HETATM   19  C   LIG     1      -3.454   0.950   0.291  1.00  0.00     0.062 C 
HETATM   20  C   LIG     1      -4.664   0.386   1.063  1.00  0.00     0.046 C 
HETATM   21  C   LIG     1       3.810  -0.827  -1.547  1.00  0.00     0.053 C 
ENDROOT
BRANCH  19  22
HETATM   22  O   LIG     1      -3.349   2.311   0.665  1.00  0.00    -0.389 OA
HETATM   23  H   LIG     1      -2.868   2.823  -0.035  1.00  0.00     0.210 HD
ENDBRANCH  19  22
TORSDOF 1
