MODEL 1
REMARK VINA RESULT:      -6.0      0.000      0.000
REMARK  1 active torsions:
REMARK  status: ('A' for Active; 'I' for Inactive)
REMARK    1  A    between atoms: C_19  and  O_21 
ROOT
HETATM    1  O   LIG     1      27.294  32.760  37.782  1.00  0.00    -0.293 OA
HETATM    2  C   LIG     1      27.300  31.733  37.054  1.00  0.00     0.149 C 
HETATM    3  C   LIG     1      25.996  31.140  36.605  1.00  0.00     0.084 C 
HETATM    4  C   LIG     1      26.184  30.223  35.388  1.00  0.00     0.022 C 
HETATM    5  C   LIG     1      27.367  29.222  35.564  1.00  0.00    -0.016 C 
HETATM    6  C   LIG     1      27.038  28.218  36.697  1.00  0.00     0.020 C 
HETATM    7  C   LIG     1      28.642  29.986  35.962  1.00  0.00    -0.068 C 
HETATM    8  C   LIG     1      29.982  29.484  35.447  1.00  0.00     0.035 C 
HETATM    9  C   LIG     1      30.006  29.372  33.901  1.00  0.00     0.010 C 
HETATM   10  C   LIG     1      28.585  29.274  33.298  1.00  0.00    -0.004 C 
HETATM   11  C   LIG     1      27.658  28.434  34.233  1.00  0.00     0.002 C 
HETATM   12  C   LIG     1      26.424  27.892  33.468  1.00  0.00     0.007 C 
HETATM   13  C   LIG     1      26.824  26.944  32.297  1.00  0.00     0.013 C 
HETATM   14  C   LIG     1      28.182  27.318  31.600  1.00  0.00    -0.009 C 
HETATM   15  C   LIG     1      29.329  26.412  32.162  1.00  0.00     0.018 C 
HETATM   16  C   LIG     1      28.478  28.813  31.819  1.00  0.00     0.001 C 
HETATM   17  C   LIG     1      29.567  29.178  30.817  1.00  0.00     0.009 C 
HETATM   18  C   LIG     1      29.316  28.246  29.615  1.00  0.00     0.038 C 
HETATM   19  C   LIG     1      28.179  27.258  30.028  1.00  0.00     0.062 C 
HETATM   20  C   LIG     1      28.431  25.853  29.444  1.00  0.00     0.046 C 
HETATM   21  C   LIG     1      28.584  31.121  36.677  1.00  0.00     0.053 C 
ENDROOT
BRANCH  19  22
HETATM   22  O   LIG     1      26.934  27.683  29.505  1.00  0.00    -0.389 OA
HETATM   23  H   LIG     1      26.210  27.077  29.808  1.00  0.00     0.210 HD
ENDBRANCH  19  22
TORSDOF 1
ENDMDL
MODEL 2
REMARK VINA RESULT:      -5.6     13.939     16.209
REMARK  1 active torsions:
REMARK  status: ('A' for Active; 'I' for Inactive)
REMARK    1  A    between atoms: C_19  and  O_21 
ROOT
HETATM    1  O   LIG     1      22.444  17.940  20.760  1.00  0.00    -0.293 OA
HETATM    2  C   LIG     1      22.976  19.081  20.775  1.00  0.00     0.149 C 
HETATM    3  C   LIG     1      23.704  19.540  22.005  1.00  0.00     0.084 C 
HETATM    4  C   LIG     1      24.657  20.703  21.694  1.00  0.00     0.022 C 
HETATM    5  C   LIG     1      23.986  21.820  20.837  1.00  0.00    -0.016 C 
HETATM    6  C   LIG     1      22.869  22.509  21.660  1.00  0.00     0.020 C 
HETATM    7  C   LIG     1      23.342  21.202  19.585  1.00  0.00    -0.068 C 
HETATM    8  C   LIG     1      23.348  22.002  18.292  1.00  0.00     0.035 C 
HETATM    9  C   LIG     1      24.781  22.427  17.879  1.00  0.00     0.010 C 
HETATM   10  C   LIG     1      25.762  22.420  19.074  1.00  0.00    -0.004 C 
HETATM   11  C   LIG     1      25.036  22.897  20.372  1.00  0.00     0.002 C 
HETATM   12  C   LIG     1      26.048  23.382  21.442  1.00  0.00     0.007 C 
HETATM   13  C   LIG     1      26.889  24.599  20.950  1.00  0.00     0.013 C 
HETATM   14  C   LIG     1      27.193  24.591  19.408  1.00  0.00    -0.009 C 
HETATM   15  C   LIG     1      26.184  25.533  18.668  1.00  0.00     0.018 C 
HETATM   16  C   LIG     1      27.119  23.148  18.876  1.00  0.00     0.001 C 
HETATM   17  C   LIG     1      27.790  23.170  17.507  1.00  0.00     0.009 C 
HETATM   18  C   LIG     1      28.859  24.275  17.616  1.00  0.00     0.038 C 
HETATM   19  C   LIG     1      28.665  24.968  19.003  1.00  0.00     0.062 C 
HETATM   20  C   LIG     1      28.931  26.484  18.902  1.00  0.00     0.046 C 
HETATM   21  C   LIG     1      22.853  19.950  19.594  1.00  0.00     0.053 C 
ENDROOT
BRANCH  19  22
HETATM   22  O   LIG     1      29.596  24.468  19.944  1.00  0.00    -0.389 OA
HETATM   23  H   LIG     1      30.413  24.146  19.482  1.00  0.00     0.210 HD
ENDBRANCH  19  22
TORSDOF 1
ENDMDL
MODEL 3
REMARK VINA RESULT:      -5.6     14.168     16.315
REMARK  1 active torsions:
REMARK  status: ('A' for Active; 'I' for Inactive)
REMARK    1  A    between atoms: C_19  and  O_21 
ROOT
HETATM    1  O   LIG     1      29.732  26.932  16.111  1.00  0.00    -0.293 OA
HETATM    2  C   LIG     1      29.184  26.241  17.010  1.00  0.00     0.149 C 
HETATM    3  C   LIG     1      28.630  26.921  18.228  1.00  0.00     0.084 C 
HETATM    4  C   LIG     1      27.619  26.026  18.960  1.00  0.00     0.022 C 
HETATM    5  C   LIG     1      28.139  24.571  19.164  1.00  0.00    -0.016 C 
HETATM    6  C   LIG     1      29.347  24.579  20.134  1.00  0.00     0.020 C 
HETATM    7  C   LIG     1      28.611  23.991  17.820  1.00  0.00    -0.068 C 
HETATM    8  C   LIG     1      28.405  22.509  17.553  1.00  0.00     0.035 C 
HETATM    9  C   LIG     1      26.920  22.091  17.709  1.00  0.00     0.010 C 
HETATM   10  C   LIG     1      26.119  23.088  18.579  1.00  0.00    -0.004 C 
HETATM   11  C   LIG     1      27.012  23.632  19.738  1.00  0.00     0.002 C 
HETATM   12  C   LIG     1      26.153  24.211  20.891  1.00  0.00     0.007 C 
HETATM   13  C   LIG     1      25.226  23.135  21.534  1.00  0.00     0.013 C 
HETATM   14  C   LIG     1      24.707  22.046  20.526  1.00  0.00    -0.009 C 
HETATM   15  C   LIG     1      25.581  20.754  20.652  1.00  0.00     0.018 C 
HETATM   16  C   LIG     1      24.733  22.615  19.096  1.00  0.00     0.001 C 
HETATM   17  C   LIG     1      23.874  21.678  18.254  1.00  0.00     0.009 C 
HETATM   18  C   LIG     1      22.809  21.144  19.233  1.00  0.00     0.038 C 
HETATM   19  C   LIG     1      23.184  21.672  20.655  1.00  0.00     0.062 C 
HETATM   20  C   LIG     1      22.877  20.614  21.733  1.00  0.00     0.046 C 
HETATM   21  C   LIG     1      29.121  24.779  16.859  1.00  0.00     0.053 C 
ENDROOT
BRANCH  19  22
HETATM   22  O   LIG     1      22.407  22.808  20.985  1.00  0.00    -0.389 OA
HETATM   23  H   LIG     1      22.485  23.006  21.954  1.00  0.00     0.210 HD
ENDBRANCH  19  22
TORSDOF 1
ENDMDL
MODEL 4
REMARK VINA RESULT:      -5.3     14.607     18.359
REMARK  1 active torsions:
REMARK  status: ('A' for Active; 'I' for Inactive)
REMARK    1  A    between atoms: C_19  and  O_21 
ROOT
HETATM    1  O   LIG     1      21.774  18.213  15.123  1.00  0.00    -0.293 OA
HETATM    2  C   LIG     1      22.693  18.651  15.865  1.00  0.00     0.149 C 
HETATM    3  C   LIG     1      24.122  18.336  15.531  1.00  0.00     0.084 C 
HETATM    4  C   LIG     1      25.089  19.303  16.230  1.00  0.00     0.022 C 
HETATM    5  C   LIG     1      24.763  19.492  17.743  1.00  0.00    -0.016 C 
HETATM    6  C   LIG     1      25.009  18.163  18.501  1.00  0.00     0.020 C 
HETATM    7  C   LIG     1      23.283  19.872  17.916  1.00  0.00    -0.068 C 
HETATM    8  C   LIG     1      22.902  20.830  19.033  1.00  0.00     0.035 C 
HETATM    9  C   LIG     1      23.686  22.165  18.948  1.00  0.00     0.010 C 
HETATM   10  C   LIG     1      24.991  22.027  18.128  1.00  0.00    -0.004 C 
HETATM   11  C   LIG     1      25.643  20.631  18.383  1.00  0.00     0.002 C 
HETATM   12  C   LIG     1      27.148  20.632  18.010  1.00  0.00     0.007 C 
HETATM   13  C   LIG     1      27.966  21.649  18.862  1.00  0.00     0.013 C 
HETATM   14  C   LIG     1      27.169  22.944  19.262  1.00  0.00    -0.009 C 
HETATM   15  C   LIG     1      26.632  22.800  20.725  1.00  0.00     0.018 C 
HETATM   16  C   LIG     1      26.027  23.176  18.256  1.00  0.00     0.001 C 
HETATM   17  C   LIG     1      25.563  24.612  18.470  1.00  0.00     0.009 C 
HETATM   18  C   LIG     1      26.829  25.365  18.928  1.00  0.00     0.038 C 
HETATM   19  C   LIG     1      27.955  24.299  19.116  1.00  0.00     0.062 C 
HETATM   20  C   LIG     1      28.849  24.650  20.322  1.00  0.00     0.046 C 
HETATM   21  C   LIG     1      22.345  19.442  17.056  1.00  0.00     0.053 C 
ENDROOT
BRANCH  19  22
HETATM   22  O   LIG     1      28.810  24.272  17.988  1.00  0.00    -0.389 OA
HETATM   23  H   LIG     1      28.652  25.069  17.419  1.00  0.00     0.210 HD
ENDBRANCH  19  22
TORSDOF 1
ENDMDL
MODEL 5
REMARK VINA RESULT:      -5.2     12.219     14.975
REMARK  1 active torsions:
REMARK  status: ('A' for Active; 'I' for Inactive)
REMARK    1  A    between atoms: C_19  and  O_21 
ROOT
HETATM    1  O   LIG     1      21.489  20.647  28.002  1.00  0.00    -0.293 OA
HETATM    2  C   LIG     1      22.017  20.295  26.914  1.00  0.00     0.149 C 
HETATM    3  C   LIG     1      21.629  18.983  26.297  1.00  0.00     0.084 C 
HETATM    4  C   LIG     1      21.990  18.935  24.805  1.00  0.00     0.022 C 
HETATM    5  C   LIG     1      23.442  19.424  24.520  1.00  0.00    -0.016 C 
HETATM    6  C   LIG     1      24.458  18.435  25.145  1.00  0.00     0.020 C 
HETATM    7  C   LIG     1      23.665  20.804  25.161  1.00  0.00    -0.068 C 
HETATM    8  C   LIG     1      24.563  21.802  24.448  1.00  0.00     0.035 C 
HETATM    9  C   LIG     1      24.096  22.069  22.994  1.00  0.00     0.010 C 
HETATM   10  C   LIG     1      23.209  20.928  22.444  1.00  0.00    -0.004 C 
HETATM   11  C   LIG     1      23.715  19.548  22.974  1.00  0.00     0.002 C 
HETATM   12  C   LIG     1      23.208  18.382  22.087  1.00  0.00     0.007 C 
HETATM   13  C   LIG     1      23.720  18.490  20.619  1.00  0.00     0.013 C 
HETATM   14  C   LIG     1      23.885  19.965  20.101  1.00  0.00    -0.009 C 
HETATM   15  C   LIG     1      25.387  20.394  20.207  1.00  0.00     0.018 C 
HETATM   16  C   LIG     1      22.968  20.900  20.911  1.00  0.00     0.001 C 
HETATM   17  C   LIG     1      22.888  22.200  20.119  1.00  0.00     0.009 C 
HETATM   18  C   LIG     1      23.036  21.768  18.646  1.00  0.00     0.038 C 
HETATM   19  C   LIG     1      23.356  20.239  18.646  1.00  0.00     0.062 C 
HETATM   20  C   LIG     1      24.357  19.886  17.527  1.00  0.00     0.046 C 
HETATM   21  C   LIG     1      23.021  21.166  26.283  1.00  0.00     0.053 C 
ENDROOT
BRANCH  19  22
HETATM   22  O   LIG     1      22.187  19.486  18.379  1.00  0.00    -0.389 OA
HETATM   23  H   LIG     1      22.291  18.560  18.719  1.00  0.00     0.210 HD
ENDBRANCH  19  22
TORSDOF 1
ENDMDL
MODEL 6
REMARK VINA RESULT:      -5.2     10.131     13.253
REMARK  1 active torsions:
REMARK  status: ('A' for Active; 'I' for Inactive)
REMARK    1  A    between atoms: C_19  and  O_21 
ROOT
HETATM    1  O   LIG     1      27.211  20.787  28.772  1.00  0.00    -0.293 OA
HETATM    2  C   LIG     1      26.743  21.248  27.698  1.00  0.00     0.149 C 
HETATM    3  C   LIG     1      27.653  21.964  26.743  1.00  0.00     0.084 C 
HETATM    4  C   LIG     1      27.047  22.034  25.334  1.00  0.00     0.022 C 
HETATM    5  C   LIG     1      25.559  22.498  25.340  1.00  0.00    -0.016 C 
HETATM    6  C   LIG     1      25.472  23.968  25.818  1.00  0.00     0.020 C 
HETATM    7  C   LIG     1      24.745  21.630  26.315  1.00  0.00    -0.068 C 
HETATM    8  C   LIG     1      23.301  21.304  25.969  1.00  0.00     0.035 C 
HETATM    9  C   LIG     1      23.175  20.629  24.578  1.00  0.00     0.010 C 
HETATM   10  C   LIG     1      24.397  20.917  23.675  1.00  0.00    -0.004 C 
HETATM   11  C   LIG     1      24.912  22.372  23.910  1.00  0.00     0.002 C 
HETATM   12  C   LIG     1      25.770  22.869  22.718  1.00  0.00     0.007 C 
HETATM   13  C   LIG     1      24.961  22.911  21.386  1.00  0.00     0.013 C 
HETATM   14  C   LIG     1      23.867  21.789  21.260  1.00  0.00    -0.009 C 
HETATM   15  C   LIG     1      22.465  22.379  21.633  1.00  0.00     0.018 C 
HETATM   16  C   LIG     1      24.243  20.600  22.162  1.00  0.00     0.001 C 
HETATM   17  C   LIG     1      23.377  19.433  21.703  1.00  0.00     0.009 C 
HETATM   18  C   LIG     1      23.163  19.678  20.196  1.00  0.00     0.038 C 
HETATM   19  C   LIG     1      23.786  21.071  19.863  1.00  0.00     0.062 C 
HETATM   20  C   LIG     1      22.939  21.816  18.812  1.00  0.00     0.046 C 
HETATM   21  C   LIG     1      25.307  21.096  27.412  1.00  0.00     0.053 C 
ENDROOT
BRANCH  19  22
HETATM   22  O   LIG     1      25.073  20.919  19.294  1.00  0.00    -0.389 OA
HETATM   23  H   LIG     1      25.451  20.033  19.533  1.00  0.00     0.210 HD
ENDBRANCH  19  22
TORSDOF 1
ENDMDL
MODEL 7
REMARK VINA RESULT:      -5.2      9.467     13.431
REMARK  1 active torsions:
REMARK  status: ('A' for Active; 'I' for Inactive)
REMARK    1  A    between atoms: C_19  and  O_21 
ROOT
HETATM    1  O   LIG     1      27.912  25.052  26.724  1.00  0.00    -0.293 OA
HETATM    2  C   LIG     1      27.266  24.269  25.979  1.00  0.00     0.149 C 
HETATM    3  C   LIG     1      25.802  24.055  26.226  1.00  0.00     0.084 C 
HETATM    4  C   LIG     1      25.102  23.472  24.990  1.00  0.00     0.022 C 
HETATM    5  C   LIG     1      25.875  22.269  24.370  1.00  0.00    -0.016 C 
HETATM    6  C   LIG     1      25.863  21.076  25.358  1.00  0.00     0.020 C 
HETATM    7  C   LIG     1      27.340  22.663  24.117  1.00  0.00    -0.068 C 
HETATM    8  C   LIG     1      28.051  22.086  22.904  1.00  0.00     0.035 C 
HETATM    9  C   LIG     1      27.287  22.383  21.587  1.00  0.00     0.010 C 
HETATM   10  C   LIG     1      25.794  22.701  21.834  1.00  0.00    -0.004 C 
HETATM   11  C   LIG     1      25.241  21.821  23.000  1.00  0.00     0.002 C 
HETATM   12  C   LIG     1      23.694  21.727  22.953  1.00  0.00     0.007 C 
HETATM   13  C   LIG     1      23.183  21.065  21.638  1.00  0.00     0.013 C 
HETATM   14  C   LIG     1      24.072  21.364  20.377  1.00  0.00    -0.009 C 
HETATM   15  C   LIG     1      25.031  20.155  20.110  1.00  0.00     0.018 C 
HETATM   16  C   LIG     1      24.855  22.672  20.599  1.00  0.00     0.001 C 
HETATM   17  C   LIG     1      25.372  23.090  19.226  1.00  0.00     0.009 C 
HETATM   18  C   LIG     1      24.312  22.567  18.236  1.00  0.00     0.038 C 
HETATM   19  C   LIG     1      23.289  21.722  19.061  1.00  0.00     0.062 C 
HETATM   20  C   LIG     1      22.809  20.499  18.253  1.00  0.00     0.046 C 
HETATM   21  C   LIG     1      27.967  23.561  24.895  1.00  0.00     0.053 C 
ENDROOT
BRANCH  19  22
HETATM   22  O   LIG     1      22.131  22.482  19.348  1.00  0.00    -0.389 OA
HETATM   23  H   LIG     1      21.763  22.876  18.515  1.00  0.00     0.210 HD
ENDBRANCH  19  22
TORSDOF 1
ENDMDL
MODEL 8
REMARK VINA RESULT:      -5.1      9.819     14.465
REMARK  1 active torsions:
REMARK  status: ('A' for Active; 'I' for Inactive)
REMARK    1  A    between atoms: C_19  and  O_21 
ROOT
HETATM    1  O   LIG     1      24.247  20.603  17.509  1.00  0.00    -0.293 OA
HETATM    2  C   LIG     1      24.111  20.914  18.721  1.00  0.00     0.149 C 
HETATM    3  C   LIG     1      23.147  20.146  19.577  1.00  0.00     0.084 C 
HETATM    4  C   LIG     1      23.446  20.335  21.071  1.00  0.00     0.022 C 
HETATM    5  C   LIG     1      23.664  21.829  21.458  1.00  0.00    -0.016 C 
HETATM    6  C   LIG     1      22.342  22.614  21.276  1.00  0.00     0.020 C 
HETATM    7  C   LIG     1      24.722  22.459  20.535  1.00  0.00    -0.068 C 
HETATM    8  C   LIG     1      25.659  23.508  21.111  1.00  0.00     0.035 C 
HETATM    9  C   LIG     1      26.423  22.986  22.355  1.00  0.00     0.010 C 
HETATM   10  C   LIG     1      25.708  21.787  23.021  1.00  0.00    -0.004 C 
HETATM   11  C   LIG     1      24.159  21.972  22.946  1.00  0.00     0.002 C 
HETATM   12  C   LIG     1      23.433  21.100  24.002  1.00  0.00     0.007 C 
HETATM   13  C   LIG     1      23.839  21.477  25.459  1.00  0.00     0.013 C 
HETATM   14  C   LIG     1      25.326  21.962  25.609  1.00  0.00    -0.009 C 
HETATM   15  C   LIG     1      25.367  23.527  25.646  1.00  0.00     0.018 C 
HETATM   16  C   LIG     1      26.170  21.398  24.451  1.00  0.00     0.001 C 
HETATM   17  C   LIG     1      27.626  21.577  24.867  1.00  0.00     0.009 C 
HETATM   18  C   LIG     1      27.608  21.465  26.405  1.00  0.00     0.038 C 
HETATM   19  C   LIG     1      26.110  21.381  26.842  1.00  0.00     0.062 C 
HETATM   20  C   LIG     1      25.879  22.144  28.162  1.00  0.00     0.046 C 
HETATM   21  C   LIG     1      24.883  22.042  19.268  1.00  0.00     0.053 C 
ENDROOT
BRANCH  19  22
HETATM   22  O   LIG     1      25.740  20.039  27.094  1.00  0.00    -0.389 OA
HETATM   23  H   LIG     1      25.932  19.475  26.301  1.00  0.00     0.210 HD
ENDBRANCH  19  22
TORSDOF 1
ENDMDL
MODEL 9
REMARK VINA RESULT:      -5.1     10.355     15.360
REMARK  1 active torsions:
REMARK  status: ('A' for Active; 'I' for Inactive)
REMARK    1  A    between atoms: C_19  and  O_21 
ROOT
HETATM    1  O   LIG     1      22.216  20.171  17.572  1.00  0.00    -0.293 OA
HETATM    2  C   LIG     1      22.814  20.470  18.639  1.00  0.00     0.149 C 
HETATM    3  C   LIG     1      22.984  21.914  19.011  1.00  0.00     0.084 C 
HETATM    4  C   LIG     1      23.294  22.078  20.506  1.00  0.00     0.022 C 
HETATM    5  C   LIG     1      24.410  21.107  21.000  1.00  0.00    -0.016 C 
HETATM    6  C   LIG     1      25.758  21.479  20.333  1.00  0.00     0.020 C 
HETATM    7  C   LIG     1      24.062  19.664  20.599  1.00  0.00    -0.068 C 
HETATM    8  C   LIG     1      24.452  18.533  21.538  1.00  0.00     0.035 C 
HETATM    9  C   LIG     1      23.880  18.738  22.964  1.00  0.00     0.010 C 
HETATM   10  C   LIG     1      23.527  20.217  23.247  1.00  0.00    -0.004 C 
HETATM   11  C   LIG     1      24.568  21.161  22.566  1.00  0.00     0.002 C 
HETATM   12  C   LIG     1      24.562  22.570  23.212  1.00  0.00     0.007 C 
HETATM   13  C   LIG     1      24.947  22.528  24.722  1.00  0.00     0.013 C 
HETATM   14  C   LIG     1      24.478  21.228  25.471  1.00  0.00    -0.009 C 
HETATM   15  C   LIG     1      25.674  20.222  25.576  1.00  0.00     0.018 C 
HETATM   16  C   LIG     1      23.279  20.611  24.728  1.00  0.00     0.001 C 
HETATM   17  C   LIG     1      22.652  19.614  25.697  1.00  0.00     0.009 C 
HETATM   18  C   LIG     1      22.927  20.205  27.094  1.00  0.00     0.038 C 
HETATM   19  C   LIG     1      23.846  21.452  26.894  1.00  0.00     0.062 C 
HETATM   20  C   LIG     1      24.875  21.567  28.037  1.00  0.00     0.046 C 
HETATM   21  C   LIG     1      23.356  19.397  19.488  1.00  0.00     0.053 C 
ENDROOT
BRANCH  19  22
HETATM   22  O   LIG     1      23.084  22.644  26.930  1.00  0.00    -0.389 OA
HETATM   23  H   LIG     1      22.405  22.639  26.206  1.00  0.00     0.210 HD
ENDBRANCH  19  22
TORSDOF 1
ENDMDL
MODEL 10
REMARK VINA RESULT:      -4.9     11.945     14.475
REMARK  1 active torsions:
REMARK  status: ('A' for Active; 'I' for Inactive)
REMARK    1  A    between atoms: C_19  and  O_21 
ROOT
HETATM    1  O   LIG     1      23.236  18.860  24.727  1.00  0.00    -0.293 OA
HETATM    2  C   LIG     1      23.870  19.846  24.269  1.00  0.00     0.149 C 
HETATM    3  C   LIG     1      25.279  20.093  24.724  1.00  0.00     0.084 C 
HETATM    4  C   LIG     1      26.032  21.011  23.751  1.00  0.00     0.022 C 
HETATM    5  C   LIG     1      25.209  22.275  23.354  1.00  0.00    -0.016 C 
HETATM    6  C   LIG     1      25.016  23.183  24.594  1.00  0.00     0.020 C 
HETATM    7  C   LIG     1      23.817  21.854  22.851  1.00  0.00    -0.068 C 
HETATM    8  C   LIG     1      23.170  22.664  21.738  1.00  0.00     0.035 C 
HETATM    9  C   LIG     1      24.077  22.756  20.484  1.00  0.00     0.010 C 
HETATM   10  C   LIG     1      25.564  22.492  20.815  1.00  0.00    -0.004 C 
HETATM   11  C   LIG     1      25.921  23.091  22.212  1.00  0.00     0.002 C 
HETATM   12  C   LIG     1      27.450  23.301  22.364  1.00  0.00     0.007 C 
HETATM   13  C   LIG     1      28.016  24.302  21.312  1.00  0.00     0.013 C 
HETATM   14  C   LIG     1      27.279  24.264  19.924  1.00  0.00    -0.009 C 
HETATM   15  C   LIG     1      26.239  25.433  19.849  1.00  0.00     0.018 C 
HETATM   16  C   LIG     1      26.607  22.891  19.736  1.00  0.00     0.001 C 
HETATM   17  C   LIG     1      26.261  22.792  18.255  1.00  0.00     0.009 C 
HETATM   18  C   LIG     1      27.354  23.617  17.545  1.00  0.00     0.038 C 
HETATM   19  C   LIG     1      28.211  24.300  18.658  1.00  0.00     0.062 C 
HETATM   20  C   LIG     1      28.646  25.715  18.227  1.00  0.00     0.046 C 
HETATM   21  C   LIG     1      23.209  20.751  23.315  1.00  0.00     0.053 C 
ENDROOT
BRANCH  19  22
HETATM   22  O   LIG     1      29.405  23.574  18.884  1.00  0.00    -0.389 OA
HETATM   23  H   LIG     1      30.065  23.768  18.170  1.00  0.00     0.210 HD
ENDBRANCH  19  22
TORSDOF 1
ENDMDL
MODEL 11
REMARK VINA RESULT:      -4.9     13.731     16.275
REMARK  1 active torsions:
REMARK  status: ('A' for Active; 'I' for Inactive)
REMARK    1  A    between atoms: C_19  and  O_21 
ROOT
HETATM    1  O   LIG     1      30.467  26.059  19.134  1.00  0.00    -0.293 OA
HETATM    2  C   LIG     1      29.339  25.499  19.121  1.00  0.00     0.149 C 
HETATM    3  C   LIG     1      28.535  25.488  17.854  1.00  0.00     0.084 C 
HETATM    4  C   LIG     1      27.454  24.399  17.883  1.00  0.00     0.022 C 
HETATM    5  C   LIG     1      26.639  24.392  19.212  1.00  0.00    -0.016 C 
HETATM    6  C   LIG     1      25.808  25.695  19.321  1.00  0.00     0.020 C 
HETATM    7  C   LIG     1      27.599  24.337  20.413  1.00  0.00    -0.068 C 
HETATM    8  C   LIG     1      27.173  23.563  21.650  1.00  0.00     0.035 C 
HETATM    9  C   LIG     1      26.807  22.093  21.319  1.00  0.00     0.010 C 
HETATM   10  C   LIG     1      26.449  21.900  19.827  1.00  0.00    -0.004 C 
HETATM   11  C   LIG     1      25.677  23.148  19.291  1.00  0.00     0.002 C 
HETATM   12  C   LIG     1      24.877  22.811  18.007  1.00  0.00     0.007 C 
HETATM   13  C   LIG     1      23.798  21.714  18.254  1.00  0.00     0.013 C 
HETATM   14  C   LIG     1      24.203  20.643  19.332  1.00  0.00    -0.009 C 
HETATM   15  C   LIG     1      23.540  21.001  20.704  1.00  0.00     0.018 C 
HETATM   16  C   LIG     1      25.737  20.576  19.440  1.00  0.00     0.001 C 
HETATM   17  C   LIG     1      26.050  19.285  20.187  1.00  0.00     0.009 C 
HETATM   18  C   LIG     1      24.907  18.325  19.800  1.00  0.00     0.038 C 
HETATM   19  C   LIG     1      23.879  19.149  18.960  1.00  0.00     0.062 C 
HETATM   20  C   LIG     1      22.435  18.712  19.277  1.00  0.00     0.046 C 
HETATM   21  C   LIG     1      28.823  24.886  20.356  1.00  0.00     0.053 C 
ENDROOT
BRANCH  19  22
HETATM   22  O   LIG     1      24.066  18.916  17.577  1.00  0.00    -0.389 OA
HETATM   23  H   LIG     1      23.189  18.872  17.115  1.00  0.00     0.210 HD
ENDBRANCH  19  22
TORSDOF 1
ENDMDL
MODEL 12
REMARK VINA RESULT:      -4.8     13.435     15.372
REMARK  1 active torsions:
REMARK  status: ('A' for Active; 'I' for Inactive)
REMARK    1  A    between atoms: C_19  and  O_21 
ROOT
HETATM    1  O   LIG     1      30.541  25.421  17.552  1.00  0.00    -0.293 OA
HETATM    2  C   LIG     1      29.444  25.075  18.064  1.00  0.00     0.149 C 
HETATM    3  C   LIG     1      28.334  24.595  17.176  1.00  0.00     0.084 C 
HETATM    4  C   LIG     1      27.286  23.796  17.966  1.00  0.00     0.022 C 
HETATM    5  C   LIG     1      26.851  24.509  19.282  1.00  0.00    -0.016 C 
HETATM    6  C   LIG     1      26.093  25.817  18.941  1.00  0.00     0.020 C 
HETATM    7  C   LIG     1      28.092  24.881  20.110  1.00  0.00    -0.068 C 
HETATM    8  C   LIG     1      28.000  24.825  21.626  1.00  0.00     0.035 C 
HETATM    9  C   LIG     1      27.543  23.431  22.130  1.00  0.00     0.010 C 
HETATM   10  C   LIG     1      26.802  22.627  21.036  1.00  0.00    -0.004 C 
HETATM   11  C   LIG     1      25.930  23.583  20.161  1.00  0.00     0.002 C 
HETATM   12  C   LIG     1      24.816  22.807  19.412  1.00  0.00     0.007 C 
HETATM   13  C   LIG     1      23.828  22.102  20.391  1.00  0.00     0.013 C 
HETATM   14  C   LIG     1      24.491  21.599  21.725  1.00  0.00    -0.009 C 
HETATM   15  C   LIG     1      24.218  22.633  22.869  1.00  0.00     0.018 C 
HETATM   16  C   LIG     1      25.998  21.383  21.501  1.00  0.00     0.001 C 
HETATM   17  C   LIG     1      26.483  20.548  22.680  1.00  0.00     0.009 C 
HETATM   18  C   LIG     1      25.268  19.682  23.069  1.00  0.00     0.038 C 
HETATM   19  C   LIG     1      24.064  20.160  22.196  1.00  0.00     0.062 C 
HETATM   20  C   LIG     1      22.749  20.117  23.001  1.00  0.00     0.046 C 
HETATM   21  C   LIG     1      29.265  25.171  19.522  1.00  0.00     0.053 C 
ENDROOT
BRANCH  19  22
HETATM   22  O   LIG     1      23.877  19.297  21.090  1.00  0.00    -0.389 OA
HETATM   23  H   LIG     1      24.391  19.625  20.308  1.00  0.00     0.210 HD
ENDBRANCH  19  22
TORSDOF 1
ENDMDL
MODEL 13
REMARK VINA RESULT:      -4.8      8.329     13.164
REMARK  1 active torsions:
REMARK  status: ('A' for Active; 'I' for Inactive)
REMARK    1  A    between atoms: C_19  and  O_21 
ROOT
HETATM    1  O   LIG     1      27.151  24.683  17.508  1.00  0.00    -0.293 OA
HETATM    2  C   LIG     1      27.473  24.638  18.725  1.00  0.00     0.149 C 
HETATM    3  C   LIG     1      27.778  25.914  19.455  1.00  0.00     0.084 C 
HETATM    4  C   LIG     1      27.686  25.727  20.976  1.00  0.00     0.022 C 
HETATM    5  C   LIG     1      28.439  24.457  21.474  1.00  0.00    -0.016 C 
HETATM    6  C   LIG     1      29.962  24.629  21.246  1.00  0.00     0.020 C 
HETATM    7  C   LIG     1      27.975  23.227  20.676  1.00  0.00    -0.068 C 
HETATM    8  C   LIG     1      27.891  21.886  21.387  1.00  0.00     0.035 C 
HETATM    9  C   LIG     1      26.991  21.951  22.648  1.00  0.00     0.010 C 
HETATM   10  C   LIG     1      26.831  23.394  23.179  1.00  0.00    -0.004 C 
HETATM   11  C   LIG     1      28.165  24.187  23.001  1.00  0.00     0.002 C 
HETATM   12  C   LIG     1      28.222  25.418  23.941  1.00  0.00     0.007 C 
HETATM   13  C   LIG     1      28.162  25.015  25.446  1.00  0.00     0.013 C 
HETATM   14  C   LIG     1      27.289  23.740  25.737  1.00  0.00    -0.009 C 
HETATM   15  C   LIG     1      28.219  22.489  25.879  1.00  0.00     0.018 C 
HETATM   16  C   LIG     1      26.255  23.557  24.612  1.00  0.00     0.001 C 
HETATM   17  C   LIG     1      25.224  22.568  25.146  1.00  0.00     0.009 C 
HETATM   18  C   LIG     1      25.199  22.816  26.667  1.00  0.00     0.038 C 
HETATM   19  C   LIG     1      26.337  23.839  26.985  1.00  0.00     0.062 C 
HETATM   20  C   LIG     1      27.014  23.508  28.331  1.00  0.00     0.046 C 
HETATM   21  C   LIG     1      27.568  23.334  19.400  1.00  0.00     0.053 C 
ENDROOT
BRANCH  19  22
HETATM   22  O   LIG     1      25.809  25.145  27.121  1.00  0.00    -0.389 OA
HETATM   23  H   LIG     1      26.508  25.820  26.920  1.00  0.00     0.210 HD
ENDBRANCH  19  22
TORSDOF 1
ENDMDL
MODEL 14
REMARK VINA RESULT:      -4.7     11.261     16.734
REMARK  1 active torsions:
REMARK  status: ('A' for Active; 'I' for Inactive)
REMARK    1  A    between atoms: C_19  and  O_21 
ROOT
HETATM    1  O   LIG     1      23.716  18.096  15.885  1.00  0.00    -0.293 OA
HETATM    2  C   LIG     1      23.766  18.954  16.805  1.00  0.00     0.149 C 
HETATM    3  C   LIG     1      22.492  19.445  17.427  1.00  0.00     0.084 C 
HETATM    4  C   LIG     1      22.747  20.096  18.794  1.00  0.00     0.022 C 
HETATM    5  C   LIG     1      23.931  21.110  18.768  1.00  0.00    -0.016 C 
HETATM    6  C   LIG     1      23.560  22.324  17.880  1.00  0.00     0.020 C 
HETATM    7  C   LIG     1      25.178  20.441  18.163  1.00  0.00    -0.068 C 
HETATM    8  C   LIG     1      26.545  20.827  18.704  1.00  0.00     0.035 C 
HETATM    9  C   LIG     1      26.643  20.622  20.238  1.00  0.00     0.010 C 
HETATM   10  C   LIG     1      25.253  20.597  20.916  1.00  0.00    -0.004 C 
HETATM   11  C   LIG     1      24.292  21.611  20.216  1.00  0.00     0.002 C 
HETATM   12  C   LIG     1      23.101  21.987  21.134  1.00  0.00     0.007 C 
HETATM   13  C   LIG     1      23.566  22.678  22.452  1.00  0.00     0.013 C 
HETATM   14  C   LIG     1      24.951  22.168  22.993  1.00  0.00    -0.009 C 
HETATM   15  C   LIG     1      26.080  23.167  22.572  1.00  0.00     0.018 C 
HETATM   16  C   LIG     1      25.220  20.748  22.460  1.00  0.00     0.001 C 
HETATM   17  C   LIG     1      26.351  20.186  23.315  1.00  0.00     0.009 C 
HETATM   18  C   LIG     1      26.166  20.855  24.692  1.00  0.00     0.038 C 
HETATM   19  C   LIG     1      25.022  21.908  24.542  1.00  0.00     0.062 C 
HETATM   20  C   LIG     1      25.317  23.164  25.386  1.00  0.00     0.046 C 
HETATM   21  C   LIG     1      25.074  19.476  17.236  1.00  0.00     0.053 C 
ENDROOT
BRANCH  19  22
HETATM   22  O   LIG     1      23.799  21.387  25.028  1.00  0.00    -0.389 OA
HETATM   23  H   LIG     1      23.052  22.000  24.804  1.00  0.00     0.210 HD
ENDBRANCH  19  22
TORSDOF 1
ENDMDL
MODEL 15
REMARK VINA RESULT:      -4.7      8.850     12.034
REMARK  1 active torsions:
REMARK  status: ('A' for Active; 'I' for Inactive)
REMARK    1  A    between atoms: C_19  and  O_21 
ROOT
HETATM    1  O   LIG     1      19.888  20.872  27.643  1.00  0.00    -0.293 OA
HETATM    2  C   LIG     1      19.997  20.683  28.883  1.00  0.00     0.149 C 
HETATM    3  C   LIG     1      20.662  19.433  29.383  1.00  0.00     0.084 C 
HETATM    4  C   LIG     1      21.118  19.584  30.841  1.00  0.00     0.022 C 
HETATM    5  C   LIG     1      20.012  20.186  31.760  1.00  0.00    -0.016 C 
HETATM    6  C   LIG     1      18.831  19.190  31.877  1.00  0.00     0.020 C 
HETATM    7  C   LIG     1      19.476  21.490  31.146  1.00  0.00    -0.068 C 
HETATM    8  C   LIG     1      19.059  22.616  32.079  1.00  0.00     0.035 C 
HETATM    9  C   LIG     1      20.203  23.026  33.043  1.00  0.00     0.010 C 
HETATM   10  C   LIG     1      21.260  21.910  33.207  1.00  0.00    -0.004 C 
HETATM   11  C   LIG     1      20.570  20.508  33.197  1.00  0.00     0.002 C 
HETATM   12  C   LIG     1      21.473  19.428  33.845  1.00  0.00     0.007 C 
HETATM   13  C   LIG     1      21.786  19.740  35.340  1.00  0.00     0.013 C 
HETATM   14  C   LIG     1      21.892  21.273  35.671  1.00  0.00    -0.009 C 
HETATM   15  C   LIG     1      20.544  21.772  36.290  1.00  0.00     0.018 C 
HETATM   16  C   LIG     1      22.254  22.051  34.392  1.00  0.00     0.001 C 
HETATM   17  C   LIG     1      22.713  23.429  34.854  1.00  0.00     0.009 C 
HETATM   18  C   LIG     1      23.346  23.184  36.238  1.00  0.00     0.038 C 
HETATM   19  C   LIG     1      23.091  21.686  36.602  1.00  0.00     0.062 C 
HETATM   20  C   LIG     1      22.809  21.527  38.110  1.00  0.00     0.046 C 
HETATM   21  C   LIG     1      19.448  21.679  29.817  1.00  0.00     0.053 C 
ENDROOT
BRANCH  19  22
HETATM   22  O   LIG     1      24.239  20.904  36.332  1.00  0.00    -0.389 OA
HETATM   23  H   LIG     1      24.282  20.132  36.953  1.00  0.00     0.210 HD
ENDBRANCH  19  22
TORSDOF 1
ENDMDL
MODEL 16
REMARK VINA RESULT:      -4.6      8.047     10.790
REMARK  1 active torsions:
REMARK  status: ('A' for Active; 'I' for Inactive)
REMARK    1  A    between atoms: C_19  and  O_21 
ROOT
HETATM    1  O   LIG     1      18.790  22.055  30.150  1.00  0.00    -0.293 OA
HETATM    2  C   LIG     1      19.430  21.695  31.173  1.00  0.00     0.149 C 
HETATM    3  C   LIG     1      20.147  20.377  31.170  1.00  0.00     0.084 C 
HETATM    4  C   LIG     1      21.221  20.318  32.266  1.00  0.00     0.022 C 
HETATM    5  C   LIG     1      20.698  20.810  33.650  1.00  0.00    -0.016 C 
HETATM    6  C   LIG     1      19.621  19.831  34.179  1.00  0.00     0.020 C 
HETATM    7  C   LIG     1      20.048  22.197  33.500  1.00  0.00    -0.068 C 
HETATM    8  C   LIG     1      20.186  23.192  34.640  1.00  0.00     0.035 C 
HETATM    9  C   LIG     1      21.669  23.445  35.015  1.00  0.00     0.010 C 
HETATM   10  C   LIG     1      22.595  22.297  34.552  1.00  0.00    -0.004 C 
HETATM   11  C   LIG     1      21.866  20.923  34.699  1.00  0.00     0.002 C 
HETATM   12  C   LIG     1      22.876  19.747  34.738  1.00  0.00     0.007 C 
HETATM   13  C   LIG     1      23.851  19.846  35.950  1.00  0.00     0.013 C 
HETATM   14  C   LIG     1      24.216  21.317  36.366  1.00  0.00    -0.009 C 
HETATM   15  C   LIG     1      23.335  21.753  37.585  1.00  0.00     0.018 C 
HETATM   16  C   LIG     1      24.023  22.255  35.160  1.00  0.00     0.001 C 
HETATM   17  C   LIG     1      24.749  23.549  35.514  1.00  0.00     0.009 C 
HETATM   18  C   LIG     1      25.916  23.105  36.419  1.00  0.00     0.038 C 
HETATM   19  C   LIG     1      25.733  21.577  36.688  1.00  0.00     0.062 C 
HETATM   20  C   LIG     1      26.149  21.219  38.129  1.00  0.00     0.046 C 
HETATM   21  C   LIG     1      19.441  22.565  32.360  1.00  0.00     0.053 C 
ENDROOT
BRANCH  19  22
HETATM   22  O   LIG     1      26.572  20.817  35.837  1.00  0.00    -0.389 OA
HETATM   23  H   LIG     1      26.375  21.025  34.887  1.00  0.00     0.210 HD
ENDBRANCH  19  22
TORSDOF 1
ENDMDL
MODEL 17
REMARK VINA RESULT:      -4.5      8.534     12.166
REMARK  1 active torsions:
REMARK  status: ('A' for Active; 'I' for Inactive)
REMARK    1  A    between atoms: C_19  and  O_21 
ROOT
HETATM    1  O   LIG     1      26.528  25.254  28.088  1.00  0.00    -0.293 OA
HETATM    2  C   LIG     1      26.752  24.725  26.967  1.00  0.00     0.149 C 
HETATM    3  C   LIG     1      25.772  23.734  26.410  1.00  0.00     0.084 C 
HETATM    4  C   LIG     1      25.948  23.560  24.895  1.00  0.00     0.022 C 
HETATM    5  C   LIG     1      27.437  23.359  24.479  1.00  0.00    -0.016 C 
HETATM    6  C   LIG     1      27.957  22.011  25.036  1.00  0.00     0.020 C 
HETATM    7  C   LIG     1      28.302  24.485  25.073  1.00  0.00    -0.068 C 
HETATM    8  C   LIG     1      29.486  24.995  24.268  1.00  0.00     0.035 C 
HETATM    9  C   LIG     1      29.067  25.469  22.853  1.00  0.00     0.010 C 
HETATM   10  C   LIG     1      27.723  24.851  22.402  1.00  0.00    -0.004 C 
HETATM   11  C   LIG     1      27.606  23.380  22.914  1.00  0.00     0.002 C 
HETATM   12  C   LIG     1      26.562  22.577  22.096  1.00  0.00     0.007 C 
HETATM   13  C   LIG     1      26.944  22.476  20.588  1.00  0.00     0.013 C 
HETATM   14  C   LIG     1      27.703  23.735  20.030  1.00  0.00    -0.009 C 
HETATM   15  C   LIG     1      29.243  23.451  20.001  1.00  0.00     0.018 C 
HETATM   16  C   LIG     1      27.367  24.964  20.895  1.00  0.00     0.001 C 
HETATM   17  C   LIG     1      27.807  26.179  20.087  1.00  0.00     0.009 C 
HETATM   18  C   LIG     1      27.624  25.755  18.616  1.00  0.00     0.038 C 
HETATM   19  C   LIG     1      27.230  24.243  18.619  1.00  0.00     0.062 C 
HETATM   20  C   LIG     1      27.873  23.505  17.427  1.00  0.00     0.046 C 
HETATM   21  C   LIG     1      27.982  25.072  26.238  1.00  0.00     0.053 C 
ENDROOT
BRANCH  19  22
HETATM   22  O   LIG     1      25.831  24.093  18.466  1.00  0.00    -0.389 OA
HETATM   23  H   LIG     1      25.351  24.741  19.043  1.00  0.00     0.210 HD
ENDBRANCH  19  22
TORSDOF 1
ENDMDL
MODEL 18
REMARK VINA RESULT:      -4.5      7.603     11.401
REMARK  1 active torsions:
REMARK  status: ('A' for Active; 'I' for Inactive)
REMARK    1  A    between atoms: C_19  and  O_21 
ROOT
HETATM    1  O   LIG     1      28.698  26.311  28.059  1.00  0.00    -0.293 OA
HETATM    2  C   LIG     1      28.068  25.364  27.519  1.00  0.00     0.149 C 
HETATM    3  C   LIG     1      26.683  25.034  27.992  1.00  0.00     0.084 C 
HETATM    4  C   LIG     1      25.915  24.208  26.951  1.00  0.00     0.022 C 
HETATM    5  C   LIG     1      26.749  23.016  26.391  1.00  0.00    -0.016 C 
HETATM    6  C   LIG     1      27.008  21.984  27.517  1.00  0.00     0.020 C 
HETATM    7  C   LIG     1      28.112  23.523  25.888  1.00  0.00    -0.068 C 
HETATM    8  C   LIG     1      28.734  22.856  24.672  1.00  0.00     0.035 C 
HETATM    9  C   LIG     1      27.784  22.877  23.448  1.00  0.00     0.010 C 
HETATM   10  C   LIG     1      26.305  23.066  23.856  1.00  0.00    -0.004 C 
HETATM   11  C   LIG     1      26.012  22.310  25.192  1.00  0.00     0.002 C 
HETATM   12  C   LIG     1      24.496  22.046  25.373  1.00  0.00     0.007 C 
HETATM   13  C   LIG     1      23.913  21.151  24.237  1.00  0.00     0.013 C 
HETATM   14  C   LIG     1      24.597  21.358  22.837  1.00  0.00    -0.009 C 
HETATM   15  C   LIG     1      25.658  20.231  22.599  1.00  0.00     0.018 C 
HETATM   16  C   LIG     1      25.231  22.760  22.777  1.00  0.00     0.001 C 
HETATM   17  C   LIG     1      25.520  23.028  21.304  1.00  0.00     0.009 C 
HETATM   18  C   LIG     1      24.420  22.258  20.547  1.00  0.00     0.038 C 
HETATM   19  C   LIG     1      23.619  21.436  21.608  1.00  0.00     0.062 C 
HETATM   20  C   LIG     1      23.199  20.065  21.040  1.00  0.00     0.046 C 
HETATM   21  C   LIG     1      28.713  24.586  26.449  1.00  0.00     0.053 C 
ENDROOT
BRANCH  19  22
HETATM   22  O   LIG     1      22.419  22.103  21.953  1.00  0.00    -0.389 OA
HETATM   23  H   LIG     1      21.923  22.362  21.134  1.00  0.00     0.210 HD
ENDBRANCH  19  22
TORSDOF 1
ENDMDL
MODEL 19
REMARK VINA RESULT:      -4.4      8.198     13.436
REMARK  1 active torsions:
REMARK  status: ('A' for Active; 'I' for Inactive)
REMARK    1  A    between atoms: C_19  and  O_21 
ROOT
HETATM    1  O   LIG     1      23.275  18.753  20.267  1.00  0.00    -0.293 OA
HETATM    2  C   LIG     1      23.623  19.711  21.006  1.00  0.00     0.149 C 
HETATM    3  C   LIG     1      22.810  20.037  22.225  1.00  0.00     0.084 C 
HETATM    4  C   LIG     1      23.609  20.884  23.225  1.00  0.00     0.022 C 
HETATM    5  C   LIG     1      24.342  22.083  22.550  1.00  0.00    -0.016 C 
HETATM    6  C   LIG     1      23.301  23.094  22.008  1.00  0.00     0.020 C 
HETATM    7  C   LIG     1      25.181  21.581  21.363  1.00  0.00    -0.068 C 
HETATM    8  C   LIG     1      26.503  22.268  21.063  1.00  0.00     0.035 C 
HETATM    9  C   LIG     1      27.448  22.272  22.292  1.00  0.00     0.010 C 
HETATM   10  C   LIG     1      26.682  22.080  23.621  1.00  0.00    -0.004 C 
HETATM   11  C   LIG     1      25.304  22.812  23.561  1.00  0.00     0.002 C 
HETATM   12  C   LIG     1      24.741  23.077  24.981  1.00  0.00     0.007 C 
HETATM   13  C   LIG     1      25.677  23.995  25.825  1.00  0.00     0.013 C 
HETATM   14  C   LIG     1      27.208  23.811  25.518  1.00  0.00    -0.009 C 
HETATM   15  C   LIG     1      27.688  24.938  24.544  1.00  0.00     0.018 C 
HETATM   16  C   LIG     1      27.450  22.408  24.930  1.00  0.00     0.001 C 
HETATM   17  C   LIG     1      28.952  22.166  25.025  1.00  0.00     0.009 C 
HETATM   18  C   LIG     1      29.394  22.953  26.275  1.00  0.00     0.038 C 
HETATM   19  C   LIG     1      28.152  23.757  26.775  1.00  0.00     0.062 C 
HETATM   20  C   LIG     1      28.573  25.139  27.315  1.00  0.00     0.046 C 
HETATM   21  C   LIG     1      24.808  20.507  20.647  1.00  0.00     0.053 C 
ENDROOT
BRANCH  19  22
HETATM   22  O   LIG     1      27.526  23.088  27.854  1.00  0.00    -0.389 OA
HETATM   23  H   LIG     1      27.473  22.115  27.670  1.00  0.00     0.210 HD
ENDBRANCH  19  22
TORSDOF 1
ENDMDL
MODEL 20
REMARK VINA RESULT:      -4.4     10.461     14.609
REMARK  1 active torsions:
REMARK  status: ('A' for Active; 'I' for Inactive)
REMARK    1  A    between atoms: C_19  and  O_21 
ROOT
HETATM    1  O   LIG     1      22.921  20.308  18.020  1.00  0.00    -0.293 OA
HETATM    2  C   LIG     1      23.446  20.909  18.994  1.00  0.00     0.149 C 
HETATM    3  C   LIG     1      23.184  20.421  20.389  1.00  0.00     0.084 C 
HETATM    4  C   LIG     1      24.237  20.947  21.375  1.00  0.00     0.022 C 
HETATM    5  C   LIG     1      24.496  22.477  21.222  1.00  0.00    -0.016 C 
HETATM    6  C   LIG     1      23.227  23.265  21.630  1.00  0.00     0.020 C 
HETATM    7  C   LIG     1      24.811  22.808  19.753  1.00  0.00    -0.068 C 
HETATM    8  C   LIG     1      25.811  23.914  19.454  1.00  0.00     0.035 C 
HETATM    9  C   LIG     1      27.176  23.665  20.145  1.00  0.00     0.010 C 
HETATM   10  C   LIG     1      27.057  22.702  21.349  1.00  0.00    -0.004 C 
HETATM   11  C   LIG     1      25.712  22.946  22.105  1.00  0.00     0.002 C 
HETATM   12  C   LIG     1      25.768  22.393  23.552  1.00  0.00     0.007 C 
HETATM   13  C   LIG     1      26.872  23.087  24.407  1.00  0.00     0.013 C 
HETATM   14  C   LIG     1      28.146  23.514  23.591  1.00  0.00    -0.009 C 
HETATM   15  C   LIG     1      28.059  25.037  23.240  1.00  0.00     0.018 C 
HETATM   16  C   LIG     1      28.262  22.644  22.326  1.00  0.00     0.001 C 
HETATM   17  C   LIG     1      29.684  22.839  21.811  1.00  0.00     0.009 C 
HETATM   18  C   LIG     1      30.523  23.101  23.077  1.00  0.00     0.038 C 
HETATM   19  C   LIG     1      29.528  23.204  24.276  1.00  0.00     0.062 C 
HETATM   20  C   LIG     1      29.992  24.274  25.286  1.00  0.00     0.046 C 
HETATM   21  C   LIG     1      24.286  22.092  18.746  1.00  0.00     0.053 C 
ENDROOT
BRANCH  19  22
HETATM   22  O   LIG     1      29.479  21.984  24.991  1.00  0.00    -0.389 OA
HETATM   23  H   LIG     1      28.640  21.926  25.515  1.00  0.00     0.210 HD
ENDBRANCH  19  22
TORSDOF 1
ENDMDL
