REMARK  2 active torsions:
REMARK  status: ('A' for Active; 'I' for Inactive)
REMARK    1  A    between atoms: N_3  and  C_4 
REMARK    2  A    between atoms: C_14  and  N_15 
ROOT
HETATM    1  O   LIG     1      -0.274   2.108  -0.529  1.00  0.00    -0.264 OA
HETATM    2  C   LIG     1      -0.392   0.897  -0.200  1.00  0.00     0.295 A 
HETATM    3  N   LIG     1       0.643   0.059   0.001  1.00  0.00    -0.217 N 
HETATM    4  N   LIG     1       0.156  -1.140   0.316  1.00  0.00    -0.289 N 
HETATM    5  C   LIG     1       0.960  -2.341   0.568  1.00  0.00     0.178 C 
HETATM    6  C   LIG     1      -1.199  -1.067   0.355  1.00  0.00     0.057 A 
HETATM    7  C   LIG     1      -2.115  -2.196   0.728  1.00  0.00     0.072 C 
HETATM    8  C   LIG     1      -1.581   0.225   0.006  1.00  0.00     0.124 A 
ENDROOT
BRANCH   3   9
HETATM    9  C   LIG     1       2.036   0.409  -0.087  1.00  0.00     0.060 A 
HETATM   10  C   LIG     1       2.540   1.020  -1.247  1.00  0.00     0.031 A 
HETATM   11  C   LIG     1       3.891   1.372  -1.327  1.00  0.00     0.002 A 
HETATM   12  C   LIG     1       4.745   1.123  -0.249  1.00  0.00     0.000 A 
HETATM   13  C   LIG     1       4.248   0.524   0.912  1.00  0.00     0.002 A 
HETATM   14  C   LIG     1       2.898   0.171   0.996  1.00  0.00     0.031 A 
ENDBRANCH   3   9
BRANCH   8  15
HETATM   15  N   LIG     1      -2.915   0.749  -0.145  1.00  0.00    -0.383 N 
HETATM   16  C   LIG     1      -3.925  -0.025  -0.870  1.00  0.00     0.149 C 
HETATM   17  C   LIG     1      -3.188   2.151   0.174  1.00  0.00     0.149 C 
ENDBRANCH   8  15
TORSDOF 2
