MODEL 1
REMARK VINA RESULT:      -5.8      0.000      0.000
REMARK  2 active torsions:
REMARK  status: ('A' for Active; 'I' for Inactive)
REMARK    1  A    between atoms: N_3  and  C_4 
REMARK    2  A    between atoms: C_14  and  N_15 
ROOT
HETATM    1  O   LIG     1      13.670  30.660  17.225  1.00  0.00    -0.264 OA
HETATM    2  C   LIG     1      14.439  31.222  16.399  1.00  0.00     0.295 A 
HETATM    3  N   LIG     1      15.194  32.303  16.676  1.00  0.00    -0.217 N 
HETATM    4  N   LIG     1      15.863  32.639  15.575  1.00  0.00    -0.289 N 
HETATM    5  C   LIG     1      16.763  33.791  15.450  1.00  0.00     0.178 C 
HETATM    6  C   LIG     1      15.567  31.750  14.592  1.00  0.00     0.057 A 
HETATM    7  C   LIG     1      16.163  31.754  13.215  1.00  0.00     0.072 C 
HETATM    8  C   LIG     1      14.637  30.841  15.086  1.00  0.00     0.124 A 
ENDROOT
BRANCH   3   9
HETATM    9  C   LIG     1      15.279  32.963  17.952  1.00  0.00     0.060 A 
HETATM   10  C   LIG     1      15.389  32.210  19.132  1.00  0.00     0.031 A 
HETATM   11  C   LIG     1      15.485  32.852  20.371  1.00  0.00     0.002 A 
HETATM   12  C   LIG     1      15.478  34.248  20.438  1.00  0.00     0.000 A 
HETATM   13  C   LIG     1      15.379  35.004  19.267  1.00  0.00     0.002 A 
HETATM   14  C   LIG     1      15.283  34.365  18.027  1.00  0.00     0.031 A 
ENDBRANCH   3   9
BRANCH   8  15
HETATM   15  N   LIG     1      13.990  29.759  14.387  1.00  0.00    -0.383 N 
HETATM   16  C   LIG     1      12.528  29.683  14.354  1.00  0.00     0.149 C 
HETATM   17  C   LIG     1      14.773  28.602  13.952  1.00  0.00     0.149 C 
ENDBRANCH   8  15
TORSDOF 2
ENDMDL
MODEL 2
REMARK VINA RESULT:      -5.5      4.503      8.052
REMARK  2 active torsions:
REMARK  status: ('A' for Active; 'I' for Inactive)
REMARK    1  A    between atoms: N_3  and  C_4 
REMARK    2  A    between atoms: C_14  and  N_15 
ROOT
HETATM    1  O   LIG     1      18.365  36.242  19.357  1.00  0.00    -0.264 OA
HETATM    2  C   LIG     1      17.546  36.521  20.273  1.00  0.00     0.295 A 
HETATM    3  N   LIG     1      16.408  35.841  20.510  1.00  0.00    -0.217 N 
HETATM    4  N   LIG     1      15.781  36.418  21.533  1.00  0.00    -0.289 N 
HETATM    5  C   LIG     1      14.481  36.002  22.073  1.00  0.00     0.178 C 
HETATM    6  C   LIG     1      16.535  37.453  21.983  1.00  0.00     0.057 A 
HETATM    7  C   LIG     1      16.198  38.319  23.162  1.00  0.00     0.072 C 
HETATM    8  C   LIG     1      17.666  37.557  21.178  1.00  0.00     0.124 A 
ENDROOT
BRANCH   3   9
HETATM    9  C   LIG     1      15.962  34.676  19.793  1.00  0.00     0.060 A 
HETATM   10  C   LIG     1      15.902  33.429  20.436  1.00  0.00     0.031 A 
HETATM   11  C   LIG     1      15.456  32.299  19.743  1.00  0.00     0.002 A 
HETATM   12  C   LIG     1      15.061  32.408  18.407  1.00  0.00     0.000 A 
HETATM   13  C   LIG     1      15.109  33.648  17.763  1.00  0.00     0.002 A 
HETATM   14  C   LIG     1      15.554  34.779  18.453  1.00  0.00     0.031 A 
ENDBRANCH   3   9
BRANCH   8  15
HETATM   15  N   LIG     1      18.716  38.542  21.242  1.00  0.00    -0.383 N 
HETATM   16  C   LIG     1      19.192  39.018  22.542  1.00  0.00     0.149 C 
HETATM   17  C   LIG     1      19.111  39.265  20.032  1.00  0.00     0.149 C 
ENDBRANCH   8  15
TORSDOF 2
ENDMDL
MODEL 3
REMARK VINA RESULT:      -5.3      4.326      7.848
REMARK  2 active torsions:
REMARK  status: ('A' for Active; 'I' for Inactive)
REMARK    1  A    between atoms: N_3  and  C_4 
REMARK    2  A    between atoms: C_14  and  N_15 
ROOT
HETATM    1  O   LIG     1      15.195  35.232  22.396  1.00  0.00    -0.264 OA
HETATM    2  C   LIG     1      16.087  35.857  21.762  1.00  0.00     0.295 A 
HETATM    3  N   LIG     1      16.474  35.564  20.506  1.00  0.00    -0.217 N 
HETATM    4  N   LIG     1      17.444  36.409  20.158  1.00  0.00    -0.289 N 
HETATM    5  C   LIG     1      18.164  36.393  18.880  1.00  0.00     0.178 C 
HETATM    6  C   LIG     1      17.658  37.276  21.182  1.00  0.00     0.057 A 
HETATM    7  C   LIG     1      18.633  38.416  21.158  1.00  0.00     0.072 C 
HETATM    8  C   LIG     1      16.816  36.931  22.235  1.00  0.00     0.124 A 
ENDROOT
BRANCH   3   9
HETATM    9  C   LIG     1      15.917  34.530  19.675  1.00  0.00     0.060 A 
HETATM   10  C   LIG     1      15.530  34.815  18.355  1.00  0.00     0.031 A 
HETATM   11  C   LIG     1      15.000  33.806  17.543  1.00  0.00     0.002 A 
HETATM   12  C   LIG     1      14.861  32.508  18.041  1.00  0.00     0.000 A 
HETATM   13  C   LIG     1      15.253  32.215  19.350  1.00  0.00     0.002 A 
HETATM   14  C   LIG     1      15.783  33.221  20.164  1.00  0.00     0.031 A 
ENDBRANCH   3   9
BRANCH   8  15
HETATM   15  N   LIG     1      16.736  37.530  23.543  1.00  0.00    -0.383 N 
HETATM   16  C   LIG     1      16.408  38.951  23.676  1.00  0.00     0.149 C 
HETATM   17  C   LIG     1      17.245  36.805  24.708  1.00  0.00     0.149 C 
ENDBRANCH   8  15
TORSDOF 2
ENDMDL
MODEL 4
REMARK VINA RESULT:      -5.0     19.435     21.582
REMARK  2 active torsions:
REMARK  status: ('A' for Active; 'I' for Inactive)
REMARK    1  A    between atoms: N_3  and  C_4 
REMARK    2  A    between atoms: C_14  and  N_15 
ROOT
HETATM    1  O   LIG     1      26.030  27.737  33.022  1.00  0.00    -0.264 OA
HETATM    2  C   LIG     1      27.219  28.153  32.985  1.00  0.00     0.295 A 
HETATM    3  N   LIG     1      27.769  28.970  33.905  1.00  0.00    -0.217 N 
HETATM    4  N   LIG     1      29.027  29.219  33.544  1.00  0.00    -0.289 N 
HETATM    5  C   LIG     1      29.953  30.103  34.260  1.00  0.00     0.178 C 
HETATM    6  C   LIG     1      29.302  28.531  32.407  1.00  0.00     0.057 A 
HETATM    7  C   LIG     1      30.633  28.505  31.714  1.00  0.00     0.072 C 
HETATM    8  C   LIG     1      28.152  27.854  32.012  1.00  0.00     0.124 A 
ENDROOT
BRANCH   3   9
HETATM    9  C   LIG     1      27.113  29.466  35.086  1.00  0.00     0.060 A 
HETATM   10  C   LIG     1      27.136  28.718  36.274  1.00  0.00     0.031 A 
HETATM   11  C   LIG     1      26.510  29.207  37.425  1.00  0.00     0.002 A 
HETATM   12  C   LIG     1      25.865  30.446  37.399  1.00  0.00     0.000 A 
HETATM   13  C   LIG     1      25.847  31.200  36.222  1.00  0.00     0.002 A 
HETATM   14  C   LIG     1      26.471  30.715  35.070  1.00  0.00     0.031 A 
ENDBRANCH   3   9
BRANCH   8  15
HETATM   15  N   LIG     1      27.955  27.047  30.834  1.00  0.00    -0.383 N 
HETATM   16  C   LIG     1      28.301  25.624  30.859  1.00  0.00     0.149 C 
HETATM   17  C   LIG     1      27.676  27.688  29.549  1.00  0.00     0.149 C 
ENDBRANCH   8  15
TORSDOF 2
ENDMDL
MODEL 5
REMARK VINA RESULT:      -5.0     20.670     23.017
REMARK  2 active torsions:
REMARK  status: ('A' for Active; 'I' for Inactive)
REMARK    1  A    between atoms: N_3  and  C_4 
REMARK    2  A    between atoms: C_14  and  N_15 
ROOT
HETATM    1  O   LIG     1      27.788  29.915  33.733  1.00  0.00    -0.264 OA
HETATM    2  C   LIG     1      27.616  28.922  34.491  1.00  0.00     0.295 A 
HETATM    3  N   LIG     1      27.466  29.002  35.827  1.00  0.00    -0.217 N 
HETATM    4  N   LIG     1      27.326  27.767  36.307  1.00  0.00    -0.289 N 
HETATM    5  C   LIG     1      27.182  27.422  37.726  1.00  0.00     0.178 C 
HETATM    6  C   LIG     1      27.349  26.889  35.273  1.00  0.00     0.057 A 
HETATM    7  C   LIG     1      27.165  25.404  35.395  1.00  0.00     0.072 C 
HETATM    8  C   LIG     1      27.556  27.600  34.095  1.00  0.00     0.124 A 
ENDROOT
BRANCH   3   9
HETATM    9  C   LIG     1      27.438  30.217  36.598  1.00  0.00     0.060 A 
HETATM   10  C   LIG     1      26.211  30.783  36.982  1.00  0.00     0.031 A 
HETATM   11  C   LIG     1      26.184  31.956  37.742  1.00  0.00     0.002 A 
HETATM   12  C   LIG     1      27.380  32.568  38.129  1.00  0.00     0.000 A 
HETATM   13  C   LIG     1      28.605  32.005  37.759  1.00  0.00     0.002 A 
HETATM   14  C   LIG     1      28.635  30.831  36.999  1.00  0.00     0.031 A 
ENDBRANCH   3   9
BRANCH   8  15
HETATM   15  N   LIG     1      27.711  27.084  32.758  1.00  0.00    -0.383 N 
HETATM   16  C   LIG     1      29.052  26.835  32.223  1.00  0.00     0.149 C 
HETATM   17  C   LIG     1      26.568  27.071  31.845  1.00  0.00     0.149 C 
ENDBRANCH   8  15
TORSDOF 2
ENDMDL
MODEL 6
REMARK VINA RESULT:      -5.0      4.868      7.136
REMARK  2 active torsions:
REMARK  status: ('A' for Active; 'I' for Inactive)
REMARK    1  A    between atoms: N_3  and  C_4 
REMARK    2  A    between atoms: C_14  and  N_15 
ROOT
HETATM    1  O   LIG     1      15.538  34.438  22.582  1.00  0.00    -0.264 OA
HETATM    2  C   LIG     1      16.260  35.181  21.865  1.00  0.00     0.295 A 
HETATM    3  N   LIG     1      17.049  36.164  22.340  1.00  0.00    -0.217 N 
HETATM    4  N   LIG     1      17.651  36.754  21.309  1.00  0.00    -0.289 N 
HETATM    5  C   LIG     1      18.559  37.902  21.403  1.00  0.00     0.178 C 
HETATM    6  C   LIG     1      17.278  36.126  20.165  1.00  0.00     0.057 A 
HETATM    7  C   LIG     1      17.783  36.459  18.792  1.00  0.00     0.072 C 
HETATM    8  C   LIG     1      16.367  35.124  20.489  1.00  0.00     0.124 A 
ENDROOT
BRANCH   3   9
HETATM    9  C   LIG     1      17.227  36.500  23.728  1.00  0.00     0.060 A 
HETATM   10  C   LIG     1      17.578  35.507  24.657  1.00  0.00     0.031 A 
HETATM   11  C   LIG     1      17.764  35.836  26.004  1.00  0.00     0.002 A 
HETATM   12  C   LIG     1      17.607  37.158  26.430  1.00  0.00     0.000 A 
HETATM   13  C   LIG     1      17.267  38.153  25.509  1.00  0.00     0.002 A 
HETATM   14  C   LIG     1      17.081  37.828  24.162  1.00  0.00     0.031 A 
ENDBRANCH   3   9
BRANCH   8  15
HETATM   15  N   LIG     1      15.659  34.242  19.596  1.00  0.00    -0.383 N 
HETATM   16  C   LIG     1      15.564  32.814  19.906  1.00  0.00     0.149 C 
HETATM   17  C   LIG     1      15.279  34.706  18.261  1.00  0.00     0.149 C 
ENDBRANCH   8  15
TORSDOF 2
ENDMDL
MODEL 7
REMARK VINA RESULT:      -4.9     14.278     15.099
REMARK  2 active torsions:
REMARK  status: ('A' for Active; 'I' for Inactive)
REMARK    1  A    between atoms: N_3  and  C_4 
REMARK    2  A    between atoms: C_14  and  N_15 
ROOT
HETATM    1  O   LIG     1      25.461  24.155  18.293  1.00  0.00    -0.264 OA
HETATM    2  C   LIG     1      26.096  24.029  19.374  1.00  0.00     0.295 A 
HETATM    3  N   LIG     1      27.303  24.575  19.615  1.00  0.00    -0.217 N 
HETATM    4  N   LIG     1      27.684  24.225  20.842  1.00  0.00    -0.289 N 
HETATM    5  C   LIG     1      28.963  24.582  21.467  1.00  0.00     0.178 C 
HETATM    6  C   LIG     1      26.703  23.479  21.410  1.00  0.00     0.057 A 
HETATM    7  C   LIG     1      26.728  22.939  22.811  1.00  0.00     0.072 C 
HETATM    8  C   LIG     1      25.679  23.318  20.482  1.00  0.00     0.124 A 
ENDROOT
BRANCH   3   9
HETATM    9  C   LIG     1      28.041  25.414  18.708  1.00  0.00     0.060 A 
HETATM   10  C   LIG     1      28.043  26.809  18.877  1.00  0.00     0.031 A 
HETATM   11  C   LIG     1      28.771  27.623  18.003  1.00  0.00     0.002 A 
HETATM   12  C   LIG     1      29.506  27.051  16.962  1.00  0.00     0.000 A 
HETATM   13  C   LIG     1      29.517  25.663  16.794  1.00  0.00     0.002 A 
HETATM   14  C   LIG     1      28.791  24.846  17.665  1.00  0.00     0.031 A 
ENDBRANCH   3   9
BRANCH   8  15
HETATM   15  N   LIG     1      24.464  22.553  20.619  1.00  0.00    -0.383 N 
HETATM   16  C   LIG     1      23.382  23.050  21.472  1.00  0.00     0.149 C 
HETATM   17  C   LIG     1      24.415  21.171  20.142  1.00  0.00     0.149 C 
ENDBRANCH   8  15
TORSDOF 2
ENDMDL
MODEL 8
REMARK VINA RESULT:      -4.9     14.216     15.150
REMARK  2 active torsions:
REMARK  status: ('A' for Active; 'I' for Inactive)
REMARK    1  A    between atoms: N_3  and  C_4 
REMARK    2  A    between atoms: C_14  and  N_15 
ROOT
HETATM    1  O   LIG     1      25.881  25.048  18.203  1.00  0.00    -0.264 OA
HETATM    2  C   LIG     1      26.659  24.097  18.486  1.00  0.00     0.295 A 
HETATM    3  N   LIG     1      26.322  23.040  19.249  1.00  0.00    -0.217 N 
HETATM    4  N   LIG     1      27.385  22.244  19.354  1.00  0.00    -0.289 N 
HETATM    5  C   LIG     1      27.442  21.007  20.141  1.00  0.00     0.178 C 
HETATM    6  C   LIG     1      28.402  22.771  18.625  1.00  0.00     0.057 A 
HETATM    7  C   LIG     1      29.752  22.141  18.444  1.00  0.00     0.072 C 
HETATM    8  C   LIG     1      27.971  23.974  18.073  1.00  0.00     0.124 A 
ENDROOT
BRANCH   3   9
HETATM    9  C   LIG     1      25.028  22.802  19.830  1.00  0.00     0.060 A 
HETATM   10  C   LIG     1      24.730  23.284  21.116  1.00  0.00     0.031 A 
HETATM   11  C   LIG     1      23.467  23.064  21.675  1.00  0.00     0.002 A 
HETATM   12  C   LIG     1      22.493  22.369  20.953  1.00  0.00     0.000 A 
HETATM   13  C   LIG     1      22.779  21.895  19.670  1.00  0.00     0.002 A 
HETATM   14  C   LIG     1      24.040  22.113  19.107  1.00  0.00     0.031 A 
ENDBRANCH   3   9
BRANCH   8  15
HETATM   15  N   LIG     1      28.725  24.909  17.276  1.00  0.00    -0.383 N 
HETATM   16  C   LIG     1      29.183  26.168  17.868  1.00  0.00     0.149 C 
HETATM   17  C   LIG     1      28.797  24.738  15.825  1.00  0.00     0.149 C 
ENDBRANCH   8  15
TORSDOF 2
ENDMDL
MODEL 9
REMARK VINA RESULT:      -4.8     13.718     14.720
REMARK  2 active torsions:
REMARK  status: ('A' for Active; 'I' for Inactive)
REMARK    1  A    between atoms: N_3  and  C_4 
REMARK    2  A    between atoms: C_14  and  N_15 
ROOT
HETATM    1  O   LIG     1      23.152  21.989  19.343  1.00  0.00    -0.264 OA
HETATM    2  C   LIG     1      24.021  21.363  18.678  1.00  0.00     0.295 A 
HETATM    3  N   LIG     1      25.277  21.800  18.466  1.00  0.00    -0.217 N 
HETATM    4  N   LIG     1      25.912  20.903  17.713  1.00  0.00    -0.289 N 
HETATM    5  C   LIG     1      27.289  21.030  17.223  1.00  0.00     0.178 C 
HETATM    6  C   LIG     1      25.073  19.863  17.469  1.00  0.00     0.057 A 
HETATM    7  C   LIG     1      25.433  18.624  16.703  1.00  0.00     0.072 C 
HETATM    8  C   LIG     1      23.843  20.141  18.059  1.00  0.00     0.124 A 
ENDROOT
BRANCH   3   9
HETATM    9  C   LIG     1      25.841  23.018  18.985  1.00  0.00     0.060 A 
HETATM   10  C   LIG     1      25.778  24.203  18.234  1.00  0.00     0.031 A 
HETATM   11  C   LIG     1      26.314  25.390  18.745  1.00  0.00     0.002 A 
HETATM   12  C   LIG     1      26.911  25.402  20.009  1.00  0.00     0.000 A 
HETATM   13  C   LIG     1      26.969  24.228  20.765  1.00  0.00     0.002 A 
HETATM   14  C   LIG     1      26.433  23.040  20.259  1.00  0.00     0.031 A 
ENDBRANCH   3   9
BRANCH   8  15
HETATM   15  N   LIG     1      22.636  19.356  18.012  1.00  0.00    -0.383 N 
HETATM   16  C   LIG     1      22.349  18.395  19.079  1.00  0.00     0.149 C 
HETATM   17  C   LIG     1      21.843  19.312  16.783  1.00  0.00     0.149 C 
ENDBRANCH   8  15
TORSDOF 2
ENDMDL
MODEL 10
REMARK VINA RESULT:      -4.8      3.948      6.233
REMARK  2 active torsions:
REMARK  status: ('A' for Active; 'I' for Inactive)
REMARK    1  A    between atoms: N_3  and  C_4 
REMARK    2  A    between atoms: C_14  and  N_15 
ROOT
HETATM    1  O   LIG     1      17.008  35.644  17.988  1.00  0.00    -0.264 OA
HETATM    2  C   LIG     1      16.591  35.315  19.131  1.00  0.00     0.295 A 
HETATM    3  N   LIG     1      17.006  35.877  20.283  1.00  0.00    -0.217 N 
HETATM    4  N   LIG     1      16.376  35.278  21.292  1.00  0.00    -0.289 N 
HETATM    5  C   LIG     1      16.584  35.572  22.714  1.00  0.00     0.178 C 
HETATM    6  C   LIG     1      15.523  34.350  20.788  1.00  0.00     0.057 A 
HETATM    7  C   LIG     1      14.591  33.501  21.602  1.00  0.00     0.072 C 
HETATM    8  C   LIG     1      15.656  34.336  19.402  1.00  0.00     0.124 A 
ENDROOT
BRANCH   3   9
HETATM    9  C   LIG     1      17.951  36.957  20.397  1.00  0.00     0.060 A 
HETATM   10  C   LIG     1      19.106  36.973  19.599  1.00  0.00     0.031 A 
HETATM   11  C   LIG     1      20.017  38.029  19.702  1.00  0.00     0.002 A 
HETATM   12  C   LIG     1      19.778  39.077  20.595  1.00  0.00     0.000 A 
HETATM   13  C   LIG     1      18.625  39.072  21.385  1.00  0.00     0.002 A 
HETATM   14  C   LIG     1      17.712  38.018  21.285  1.00  0.00     0.031 A 
ENDBRANCH   3   9
BRANCH   8  15
HETATM   15  N   LIG     1      14.997  33.474  18.454  1.00  0.00    -0.383 N 
HETATM   16  C   LIG     1      14.869  32.043  18.735  1.00  0.00     0.149 C 
HETATM   17  C   LIG     1      14.707  33.962  17.105  1.00  0.00     0.149 C 
ENDBRANCH   8  15
TORSDOF 2
ENDMDL
MODEL 11
REMARK VINA RESULT:      -4.7     14.404     15.593
REMARK  2 active torsions:
REMARK  status: ('A' for Active; 'I' for Inactive)
REMARK    1  A    between atoms: N_3  and  C_4 
REMARK    2  A    between atoms: C_14  and  N_15 
ROOT
HETATM    1  O   LIG     1      26.996  23.402  22.746  1.00  0.00    -0.264 OA
HETATM    2  C   LIG     1      25.912  22.867  22.388  1.00  0.00     0.295 A 
HETATM    3  N   LIG     1      25.434  22.887  21.130  1.00  0.00    -0.217 N 
HETATM    4  N   LIG     1      24.266  22.246  21.116  1.00  0.00    -0.289 N 
HETATM    5  C   LIG     1      23.402  22.086  19.941  1.00  0.00     0.178 C 
HETATM    6  C   LIG     1      24.007  21.779  22.364  1.00  0.00     0.057 A 
HETATM    7  C   LIG     1      22.812  20.956  22.748  1.00  0.00     0.072 C 
HETATM    8  C   LIG     1      25.037  22.182  23.208  1.00  0.00     0.124 A 
ENDROOT
BRANCH   3   9
HETATM    9  C   LIG     1      26.087  23.478  19.992  1.00  0.00     0.060 A 
HETATM   10  C   LIG     1      26.000  24.862  19.767  1.00  0.00     0.031 A 
HETATM   11  C   LIG     1      26.646  25.438  18.668  1.00  0.00     0.002 A 
HETATM   12  C   LIG     1      27.387  24.639  17.793  1.00  0.00     0.000 A 
HETATM   13  C   LIG     1      27.484  23.263  18.016  1.00  0.00     0.002 A 
HETATM   14  C   LIG     1      26.841  22.683  19.113  1.00  0.00     0.031 A 
ENDBRANCH   3   9
BRANCH   8  15
HETATM   15  N   LIG     1      25.159  21.970  24.628  1.00  0.00    -0.383 N 
HETATM   16  C   LIG     1      24.904  23.074  25.556  1.00  0.00     0.149 C 
HETATM   17  C   LIG     1      25.799  20.753  25.131  1.00  0.00     0.149 C 
ENDBRANCH   8  15
TORSDOF 2
ENDMDL
MODEL 12
REMARK VINA RESULT:      -4.7     13.977     15.023
REMARK  2 active torsions:
REMARK  status: ('A' for Active; 'I' for Inactive)
REMARK    1  A    between atoms: N_3  and  C_4 
REMARK    2  A    between atoms: C_14  and  N_15 
ROOT
HETATM    1  O   LIG     1      27.147  21.168  17.242  1.00  0.00    -0.264 OA
HETATM    2  C   LIG     1      25.947  21.039  17.608  1.00  0.00     0.295 A 
HETATM    3  N   LIG     1      25.309  21.888  18.436  1.00  0.00    -0.217 N 
HETATM    4  N   LIG     1      24.068  21.439  18.621  1.00  0.00    -0.289 N 
HETATM    5  C   LIG     1      23.065  22.059  19.493  1.00  0.00     0.178 C 
HETATM    6  C   LIG     1      23.893  20.316  17.879  1.00  0.00     0.057 A 
HETATM    7  C   LIG     1      22.611  19.542  17.772  1.00  0.00     0.072 C 
HETATM    8  C   LIG     1      25.091  20.022  17.234  1.00  0.00     0.124 A 
ENDROOT
BRANCH   3   9
HETATM    9  C   LIG     1      25.867  23.086  19.004  1.00  0.00     0.060 A 
HETATM   10  C   LIG     1      25.813  24.297  18.294  1.00  0.00     0.031 A 
HETATM   11  C   LIG     1      26.344  25.464  18.851  1.00  0.00     0.002 A 
HETATM   12  C   LIG     1      26.926  25.433  20.121  1.00  0.00     0.000 A 
HETATM   13  C   LIG     1      26.975  24.233  20.837  1.00  0.00     0.002 A 
HETATM   14  C   LIG     1      26.444  23.064  20.284  1.00  0.00     0.031 A 
ENDBRANCH   3   9
BRANCH   8  15
HETATM   15  N   LIG     1      25.395  18.893  16.391  1.00  0.00    -0.383 N 
HETATM   16  C   LIG     1      26.422  17.933  16.800  1.00  0.00     0.149 C 
HETATM   17  C   LIG     1      24.890  18.852  15.018  1.00  0.00     0.149 C 
ENDBRANCH   8  15
TORSDOF 2
ENDMDL
MODEL 13
REMARK VINA RESULT:      -4.7     14.236     15.374
REMARK  2 active torsions:
REMARK  status: ('A' for Active; 'I' for Inactive)
REMARK    1  A    between atoms: N_3  and  C_4 
REMARK    2  A    between atoms: C_14  and  N_15 
ROOT
HETATM    1  O   LIG     1      26.259  25.335  19.955  1.00  0.00    -0.264 OA
HETATM    2  C   LIG     1      27.009  24.638  19.219  1.00  0.00     0.295 A 
HETATM    3  N   LIG     1      26.714  23.394  18.795  1.00  0.00    -0.217 N 
HETATM    4  N   LIG     1      27.730  22.952  18.057  1.00  0.00    -0.289 N 
HETATM    5  C   LIG     1      27.817  21.621  17.446  1.00  0.00     0.178 C 
HETATM    6  C   LIG     1      28.670  23.928  17.974  1.00  0.00     0.057 A 
HETATM    7  C   LIG     1      29.943  23.837  17.184  1.00  0.00     0.072 C 
HETATM    8  C   LIG     1      28.244  25.016  18.730  1.00  0.00     0.124 A 
ENDROOT
BRANCH   3   9
HETATM    9  C   LIG     1      25.497  22.679  19.073  1.00  0.00     0.060 A 
HETATM   10  C   LIG     1      24.479  22.612  18.107  1.00  0.00     0.031 A 
HETATM   11  C   LIG     1      23.302  21.905  18.373  1.00  0.00     0.002 A 
HETATM   12  C   LIG     1      23.136  21.256  19.599  1.00  0.00     0.000 A 
HETATM   13  C   LIG     1      24.148  21.310  20.561  1.00  0.00     0.002 A 
HETATM   14  C   LIG     1      25.327  22.015  20.299  1.00  0.00     0.031 A 
ENDBRANCH   3   9
BRANCH   8  15
HETATM   15  N   LIG     1      28.940  26.252  18.983  1.00  0.00    -0.383 N 
HETATM   16  C   LIG     1      28.729  27.401  18.100  1.00  0.00     0.149 C 
HETATM   17  C   LIG     1      30.050  26.282  19.935  1.00  0.00     0.149 C 
ENDBRANCH   8  15
TORSDOF 2
ENDMDL
MODEL 14
REMARK VINA RESULT:      -4.7     14.510     15.400
REMARK  2 active torsions:
REMARK  status: ('A' for Active; 'I' for Inactive)
REMARK    1  A    between atoms: N_3  and  C_4 
REMARK    2  A    between atoms: C_14  and  N_15 
ROOT
HETATM    1  O   LIG     1      26.125  20.094  21.859  1.00  0.00    -0.264 OA
HETATM    2  C   LIG     1      25.160  20.694  21.313  1.00  0.00     0.295 A 
HETATM    3  N   LIG     1      24.257  21.443  21.974  1.00  0.00    -0.217 N 
HETATM    4  N   LIG     1      23.374  21.909  21.094  1.00  0.00    -0.289 N 
HETATM    5  C   LIG     1      22.205  22.732  21.422  1.00  0.00     0.178 C 
HETATM    6  C   LIG     1      23.728  21.490  19.852  1.00  0.00     0.057 A 
HETATM    7  C   LIG     1      23.016  21.851  18.582  1.00  0.00     0.072 C 
HETATM    8  C   LIG     1      24.861  20.688  19.964  1.00  0.00     0.124 A 
ENDROOT
BRANCH   3   9
HETATM    9  C   LIG     1      24.264  21.711  23.388  1.00  0.00     0.060 A 
HETATM   10  C   LIG     1      24.943  22.832  23.893  1.00  0.00     0.031 A 
HETATM   11  C   LIG     1      24.938  23.100  25.265  1.00  0.00     0.002 A 
HETATM   12  C   LIG     1      24.250  22.255  26.141  1.00  0.00     0.000 A 
HETATM   13  C   LIG     1      23.564  21.143  25.645  1.00  0.00     0.002 A 
HETATM   14  C   LIG     1      23.567  20.873  24.273  1.00  0.00     0.031 A 
ENDBRANCH   3   9
BRANCH   8  15
HETATM   15  N   LIG     1      25.555  19.977  18.921  1.00  0.00    -0.383 N 
HETATM   16  C   LIG     1      25.325  18.543  18.738  1.00  0.00     0.149 C 
HETATM   17  C   LIG     1      26.681  20.610  18.232  1.00  0.00     0.149 C 
ENDBRANCH   8  15
TORSDOF 2
ENDMDL
MODEL 15
REMARK VINA RESULT:      -4.7     14.133     15.126
REMARK  2 active torsions:
REMARK  status: ('A' for Active; 'I' for Inactive)
REMARK    1  A    between atoms: N_3  and  C_4 
REMARK    2  A    between atoms: C_14  and  N_15 
ROOT
HETATM    1  O   LIG     1      25.750  24.415  18.222  1.00  0.00    -0.264 OA
HETATM    2  C   LIG     1      26.533  24.434  19.209  1.00  0.00     0.295 A 
HETATM    3  N   LIG     1      26.315  23.778  20.366  1.00  0.00    -0.217 N 
HETATM    4  N   LIG     1      27.330  24.033  21.189  1.00  0.00    -0.289 N 
HETATM    5  C   LIG     1      27.448  23.540  22.566  1.00  0.00     0.178 C 
HETATM    6  C   LIG     1      28.226  24.827  20.549  1.00  0.00     0.057 A 
HETATM    7  C   LIG     1      29.534  25.290  21.122  1.00  0.00     0.072 C 
HETATM    8  C   LIG     1      27.730  25.119  19.282  1.00  0.00     0.124 A 
ENDROOT
BRANCH   3   9
HETATM    9  C   LIG     1      25.189  22.929  20.650  1.00  0.00     0.060 A 
HETATM   10  C   LIG     1      24.062  23.446  21.311  1.00  0.00     0.031 A 
HETATM   11  C   LIG     1      22.962  22.624  21.575  1.00  0.00     0.002 A 
HETATM   12  C   LIG     1      22.977  21.284  21.176  1.00  0.00     0.000 A 
HETATM   13  C   LIG     1      24.090  20.766  20.509  1.00  0.00     0.002 A 
HETATM   14  C   LIG     1      25.192  21.585  20.243  1.00  0.00     0.031 A 
ENDBRANCH   3   9
BRANCH   8  15
HETATM   15  N   LIG     1      28.308  25.972  18.275  1.00  0.00    -0.383 N 
HETATM   16  C   LIG     1      29.125  25.391  17.207  1.00  0.00     0.149 C 
HETATM   17  C   LIG     1      28.315  27.423  18.465  1.00  0.00     0.149 C 
ENDBRANCH   8  15
TORSDOF 2
ENDMDL
MODEL 16
REMARK VINA RESULT:      -4.5     14.646     15.497
REMARK  2 active torsions:
REMARK  status: ('A' for Active; 'I' for Inactive)
REMARK    1  A    between atoms: N_3  and  C_4 
REMARK    2  A    between atoms: C_14  and  N_15 
ROOT
HETATM    1  O   LIG     1      23.328  23.144  21.830  1.00  0.00    -0.264 OA
HETATM    2  C   LIG     1      24.128  22.183  21.671  1.00  0.00     0.295 A 
HETATM    3  N   LIG     1      24.642  21.447  22.675  1.00  0.00    -0.217 N 
HETATM    4  N   LIG     1      25.458  20.534  22.151  1.00  0.00    -0.289 N 
HETATM    5  C   LIG     1      26.248  19.565  22.917  1.00  0.00     0.178 C 
HETATM    6  C   LIG     1      25.442  20.657  20.799  1.00  0.00     0.057 A 
HETATM    7  C   LIG     1      26.189  19.774  19.842  1.00  0.00     0.072 C 
HETATM    8  C   LIG     1      24.613  21.723  20.462  1.00  0.00     0.124 A 
ENDROOT
BRANCH   3   9
HETATM    9  C   LIG     1      24.340  21.607  24.073  1.00  0.00     0.060 A 
HETATM   10  C   LIG     1      23.394  20.773  24.693  1.00  0.00     0.031 A 
HETATM   11  C   LIG     1      23.111  20.921  26.054  1.00  0.00     0.002 A 
HETATM   12  C   LIG     1      23.773  21.895  26.806  1.00  0.00     0.000 A 
HETATM   13  C   LIG     1      24.722  22.722  26.198  1.00  0.00     0.002 A 
HETATM   14  C   LIG     1      25.008  22.577  24.838  1.00  0.00     0.031 A 
ENDBRANCH   3   9
BRANCH   8  15
HETATM   15  N   LIG     1      24.340  22.260  19.153  1.00  0.00    -0.383 N 
HETATM   16  C   LIG     1      23.202  21.758  18.381  1.00  0.00     0.149 C 
HETATM   17  C   LIG     1      25.340  23.093  18.484  1.00  0.00     0.149 C 
ENDBRANCH   8  15
TORSDOF 2
ENDMDL
MODEL 17
REMARK VINA RESULT:      -4.4     14.473     15.352
REMARK  2 active torsions:
REMARK  status: ('A' for Active; 'I' for Inactive)
REMARK    1  A    between atoms: N_3  and  C_4 
REMARK    2  A    between atoms: C_14  and  N_15 
ROOT
HETATM    1  O   LIG     1      26.755  22.940  22.295  1.00  0.00    -0.264 OA
HETATM    2  C   LIG     1      25.943  22.463  21.457  1.00  0.00     0.295 A 
HETATM    3  N   LIG     1      25.844  22.869  20.177  1.00  0.00    -0.217 N 
HETATM    4  N   LIG     1      24.878  22.167  19.588  1.00  0.00    -0.289 N 
HETATM    5  C   LIG     1      24.428  22.341  18.202  1.00  0.00     0.178 C 
HETATM    6  C   LIG     1      24.375  21.277  20.482  1.00  0.00     0.057 A 
HETATM    7  C   LIG     1      23.307  20.265  20.186  1.00  0.00     0.072 C 
HETATM    8  C   LIG     1      25.026  21.459  21.698  1.00  0.00     0.124 A 
ENDROOT
BRANCH   3   9
HETATM    9  C   LIG     1      26.661  23.874  19.550  1.00  0.00     0.060 A 
HETATM   10  C   LIG     1      27.784  23.501  18.793  1.00  0.00     0.031 A 
HETATM   11  C   LIG     1      28.571  24.477  18.172  1.00  0.00     0.002 A 
HETATM   12  C   LIG     1      28.238  25.829  18.297  1.00  0.00     0.000 A 
HETATM   13  C   LIG     1      27.116  26.206  19.041  1.00  0.00     0.002 A 
HETATM   14  C   LIG     1      26.327  25.233  19.662  1.00  0.00     0.031 A 
ENDBRANCH   3   9
BRANCH   8  15
HETATM   15  N   LIG     1      24.783  20.783  22.948  1.00  0.00    -0.383 N 
HETATM   16  C   LIG     1      25.489  19.537  23.253  1.00  0.00     0.149 C 
HETATM   17  C   LIG     1      23.646  21.177  23.781  1.00  0.00     0.149 C 
ENDBRANCH   8  15
TORSDOF 2
ENDMDL
MODEL 18
REMARK VINA RESULT:      -4.4     14.682     15.870
REMARK  2 active torsions:
REMARK  status: ('A' for Active; 'I' for Inactive)
REMARK    1  A    between atoms: N_3  and  C_4 
REMARK    2  A    between atoms: C_14  and  N_15 
ROOT
HETATM    1  O   LIG     1      26.380  22.014  23.146  1.00  0.00    -0.264 OA
HETATM    2  C   LIG     1      26.795  22.975  22.443  1.00  0.00     0.295 A 
HETATM    3  N   LIG     1      26.184  23.421  21.329  1.00  0.00    -0.217 N 
HETATM    4  N   LIG     1      26.901  24.429  20.833  1.00  0.00    -0.289 N 
HETATM    5  C   LIG     1      26.594  25.159  19.598  1.00  0.00     0.178 C 
HETATM    6  C   LIG     1      27.960  24.658  21.651  1.00  0.00     0.057 A 
HETATM    7  C   LIG     1      28.974  25.749  21.467  1.00  0.00     0.072 C 
HETATM    8  C   LIG     1      27.930  23.724  22.683  1.00  0.00     0.124 A 
ENDROOT
BRANCH   3   9
HETATM    9  C   LIG     1      24.954  22.911  20.783  1.00  0.00     0.060 A 
HETATM   10  C   LIG     1      23.740  23.118  21.460  1.00  0.00     0.031 A 
HETATM   11  C   LIG     1      22.544  22.633  20.923  1.00  0.00     0.002 A 
HETATM   12  C   LIG     1      22.549  21.946  19.706  1.00  0.00     0.000 A 
HETATM   13  C   LIG     1      23.752  21.745  19.023  1.00  0.00     0.002 A 
HETATM   14  C   LIG     1      24.950  22.228  19.556  1.00  0.00     0.031 A 
ENDBRANCH   3   9
BRANCH   8  15
HETATM   15  N   LIG     1      28.882  23.545  23.750  1.00  0.00    -0.383 N 
HETATM   16  C   LIG     1      28.769  24.345  24.971  1.00  0.00     0.149 C 
HETATM   17  C   LIG     1      30.107  22.780  23.512  1.00  0.00     0.149 C 
ENDBRANCH   8  15
TORSDOF 2
ENDMDL
MODEL 19
REMARK VINA RESULT:      -4.4     20.593     22.577
REMARK  2 active torsions:
REMARK  status: ('A' for Active; 'I' for Inactive)
REMARK    1  A    between atoms: N_3  and  C_4 
REMARK    2  A    between atoms: C_14  and  N_15 
ROOT
HETATM    1  O   LIG     1      21.920  20.996  33.391  1.00  0.00    -0.264 OA
HETATM    2  C   LIG     1      20.984  20.445  34.029  1.00  0.00     0.295 A 
HETATM    3  N   LIG     1      20.721  20.661  35.332  1.00  0.00    -0.217 N 
HETATM    4  N   LIG     1      19.682  19.905  35.681  1.00  0.00    -0.289 N 
HETATM    5  C   LIG     1      19.112  19.820  37.030  1.00  0.00     0.178 C 
HETATM    6  C   LIG     1      19.248  19.225  34.590  1.00  0.00     0.057 A 
HETATM    7  C   LIG     1      18.060  18.308  34.558  1.00  0.00     0.072 C 
HETATM    8  C   LIG     1      20.079  19.535  33.518  1.00  0.00     0.124 A 
ENDROOT
BRANCH   3   9
HETATM    9  C   LIG     1      21.430  21.573  36.192  1.00  0.00     0.060 A 
HETATM   10  C   LIG     1      22.436  21.099  37.049  1.00  0.00     0.031 A 
HETATM   11  C   LIG     1      23.133  21.987  37.875  1.00  0.00     0.002 A 
HETATM   12  C   LIG     1      22.836  23.352  37.845  1.00  0.00     0.000 A 
HETATM   13  C   LIG     1      21.842  23.832  36.986  1.00  0.00     0.002 A 
HETATM   14  C   LIG     1      21.143  22.947  36.160  1.00  0.00     0.031 A 
ENDBRANCH   3   9
BRANCH   8  15
HETATM   15  N   LIG     1      20.039  19.007  32.178  1.00  0.00    -0.383 N 
HETATM   16  C   LIG     1      20.998  17.977  31.771  1.00  0.00     0.149 C 
HETATM   17  C   LIG     1      19.241  19.679  31.152  1.00  0.00     0.149 C 
ENDBRANCH   8  15
TORSDOF 2
ENDMDL
MODEL 20
REMARK VINA RESULT:      -4.4     14.559     15.589
REMARK  2 active torsions:
REMARK  status: ('A' for Active; 'I' for Inactive)
REMARK    1  A    between atoms: N_3  and  C_4 
REMARK    2  A    between atoms: C_14  and  N_15 
ROOT
HETATM    1  O   LIG     1      26.882  22.455  22.381  1.00  0.00    -0.264 OA
HETATM    2  C   LIG     1      26.430  22.729  21.237  1.00  0.00     0.295 A 
HETATM    3  N   LIG     1      25.336  22.162  20.694  1.00  0.00    -0.217 N 
HETATM    4  N   LIG     1      25.161  22.671  19.476  1.00  0.00    -0.289 N 
HETATM    5  C   LIG     1      24.102  22.279  18.539  1.00  0.00     0.178 C 
HETATM    6  C   LIG     1      26.126  23.597  19.244  1.00  0.00     0.057 A 
HETATM    7  C   LIG     1      26.239  24.435  18.004  1.00  0.00     0.072 C 
HETATM    8  C   LIG     1      26.969  23.641  20.350  1.00  0.00     0.124 A 
ENDROOT
BRANCH   3   9
HETATM    9  C   LIG     1      24.488  21.192  21.335  1.00  0.00     0.060 A 
HETATM   10  C   LIG     1      23.425  21.610  22.151  1.00  0.00     0.031 A 
HETATM   11  C   LIG     1      22.593  20.667  22.763  1.00  0.00     0.002 A 
HETATM   12  C   LIG     1      22.813  19.302  22.559  1.00  0.00     0.000 A 
HETATM   13  C   LIG     1      23.864  18.878  21.740  1.00  0.00     0.002 A 
HETATM   14  C   LIG     1      24.697  19.819  21.126  1.00  0.00     0.031 A 
ENDBRANCH   3   9
BRANCH   8  15
HETATM   15  N   LIG     1      28.162  24.429  20.529  1.00  0.00    -0.383 N 
HETATM   16  C   LIG     1      28.061  25.802  21.029  1.00  0.00     0.149 C 
HETATM   17  C   LIG     1      29.431  23.972  19.960  1.00  0.00     0.149 C 
ENDBRANCH   8  15
TORSDOF 2
ENDMDL
