MODEL 1
REMARK VINA RESULT:      -7.5      0.000      0.000
REMARK  0 active torsions:
REMARK  status: ('A' for Active; 'I' for Inactive)
ROOT
HETATM    1  O   LIG     1      16.731  35.143  19.690  1.00  0.00    -0.287 OA
HETATM    2  C   LIG     1      16.758  36.084  20.531  1.00  0.00     0.189 A 
HETATM    3  C   LIG     1      15.715  36.164  21.584  1.00  0.00    -0.007 A 
HETATM    4  C   LIG     1      14.644  35.111  21.657  1.00  0.00     0.052 C 
HETATM    5  C   LIG     1      15.764  37.137  22.509  1.00  0.00     0.066 A 
HETATM    6  C   LIG     1      17.831  37.105  20.471  1.00  0.00     0.029 A 
HETATM    7  C   LIG     1      18.819  37.064  19.472  1.00  0.00     0.016 A 
HETATM    8  C   LIG     1      19.823  38.035  19.432  1.00  0.00     0.001 A 
HETATM    9  C   LIG     1      19.851  39.053  20.387  1.00  0.00     0.001 A 
HETATM   10  C   LIG     1      18.875  39.104  21.386  1.00  0.00     0.016 A 
HETATM   11  C   LIG     1      17.861  38.133  21.436  1.00  0.00     0.028 A 
HETATM   12  C   LIG     1      16.819  38.165  22.486  1.00  0.00     0.183 A 
HETATM   13  O   LIG     1      16.821  39.067  23.367  1.00  0.00    -0.288 OA
ENDROOT
TORSDOF 0
ENDMDL
MODEL 2
REMARK VINA RESULT:      -7.5      2.869      5.080
REMARK  0 active torsions:
REMARK  status: ('A' for Active; 'I' for Inactive)
ROOT
HETATM    1  O   LIG     1      18.823  39.125  23.852  1.00  0.00    -0.287 OA
HETATM    2  C   LIG     1      18.186  38.095  23.499  1.00  0.00     0.189 A 
HETATM    3  C   LIG     1      17.673  37.983  22.110  1.00  0.00    -0.007 A 
HETATM    4  C   LIG     1      17.934  39.090  21.126  1.00  0.00     0.052 C 
HETATM    5  C   LIG     1      17.034  36.870  21.715  1.00  0.00     0.066 A 
HETATM    6  C   LIG     1      17.954  36.995  24.466  1.00  0.00     0.029 A 
HETATM    7  C   LIG     1      18.412  37.084  25.792  1.00  0.00     0.016 A 
HETATM    8  C   LIG     1      18.184  36.037  26.688  1.00  0.00     0.001 A 
HETATM    9  C   LIG     1      17.500  34.894  26.270  1.00  0.00     0.001 A 
HETATM   10  C   LIG     1      17.041  34.792  24.955  1.00  0.00     0.016 A 
HETATM   11  C   LIG     1      17.264  35.839  24.045  1.00  0.00     0.028 A 
HETATM   12  C   LIG     1      16.790  35.754  22.645  1.00  0.00     0.183 A 
HETATM   13  O   LIG     1      16.176  34.732  22.235  1.00  0.00    -0.288 OA
ENDROOT
TORSDOF 0
ENDMDL
MODEL 3
REMARK VINA RESULT:      -7.2      1.064      3.816
REMARK  0 active torsions:
REMARK  status: ('A' for Active; 'I' for Inactive)
ROOT
HETATM    1  O   LIG     1      19.023  36.443  19.071  1.00  0.00    -0.287 OA
HETATM    2  C   LIG     1      18.532  37.126  20.011  1.00  0.00     0.189 A 
HETATM    3  C   LIG     1      19.167  38.411  20.400  1.00  0.00    -0.007 A 
HETATM    4  C   LIG     1      20.379  38.901  19.657  1.00  0.00     0.052 C 
HETATM    5  C   LIG     1      18.624  39.164  21.370  1.00  0.00     0.066 A 
HETATM    6  C   LIG     1      17.322  36.651  20.723  1.00  0.00     0.029 A 
HETATM    7  C   LIG     1      16.714  35.429  20.388  1.00  0.00     0.016 A 
HETATM    8  C   LIG     1      15.573  34.999  21.070  1.00  0.00     0.001 A 
HETATM    9  C   LIG     1      15.030  35.782  22.091  1.00  0.00     0.001 A 
HETATM   10  C   LIG     1      15.625  36.999  22.433  1.00  0.00     0.016 A 
HETATM   11  C   LIG     1      16.772  37.442  21.754  1.00  0.00     0.028 A 
HETATM   12  C   LIG     1      17.418  38.729  22.096  1.00  0.00     0.183 A 
HETATM   13  O   LIG     1      16.947  39.463  23.007  1.00  0.00    -0.288 OA
ENDROOT
TORSDOF 0
ENDMDL
MODEL 4
REMARK VINA RESULT:      -7.0      1.206      3.153
REMARK  0 active torsions:
REMARK  status: ('A' for Active; 'I' for Inactive)
ROOT
HETATM    1  O   LIG     1      18.283  39.289  23.461  1.00  0.00    -0.287 OA
HETATM    2  C   LIG     1      17.967  38.290  22.759  1.00  0.00     0.189 A 
HETATM    3  C   LIG     1      17.189  37.178  23.363  1.00  0.00    -0.007 A 
HETATM    4  C   LIG     1      16.764  37.260  24.803  1.00  0.00     0.052 C 
HETATM    5  C   LIG     1      16.812  36.133  22.609  1.00  0.00     0.066 A 
HETATM    6  C   LIG     1      18.366  38.226  21.332  1.00  0.00     0.029 A 
HETATM    7  C   LIG     1      19.119  39.255  20.742  1.00  0.00     0.016 A 
HETATM    8  C   LIG     1      19.485  39.178  19.395  1.00  0.00     0.001 A 
HETATM    9  C   LIG     1      19.104  38.075  18.628  1.00  0.00     0.001 A 
HETATM   10  C   LIG     1      18.354  37.046  19.203  1.00  0.00     0.016 A 
HETATM   11  C   LIG     1      17.980  37.113  20.556  1.00  0.00     0.028 A 
HETATM   12  C   LIG     1      17.184  36.037  21.187  1.00  0.00     0.183 A 
HETATM   13  O   LIG     1      16.817  35.033  20.519  1.00  0.00    -0.288 OA
ENDROOT
TORSDOF 0
ENDMDL
MODEL 5
REMARK VINA RESULT:      -6.8      6.670      8.824
REMARK  0 active torsions:
REMARK  status: ('A' for Active; 'I' for Inactive)
ROOT
HETATM    1  O   LIG     1      16.668  31.544  12.995  1.00  0.00    -0.287 OA
HETATM    2  C   LIG     1      16.354  32.121  14.073  1.00  0.00     0.189 A 
HETATM    3  C   LIG     1      17.132  33.300  14.533  1.00  0.00    -0.007 A 
HETATM    4  C   LIG     1      18.275  33.812  13.701  1.00  0.00     0.052 C 
HETATM    5  C   LIG     1      16.776  33.946  15.655  1.00  0.00     0.066 A 
HETATM    6  C   LIG     1      15.210  31.628  14.876  1.00  0.00     0.029 A 
HETATM    7  C   LIG     1      14.471  30.503  14.474  1.00  0.00     0.016 A 
HETATM    8  C   LIG     1      13.395  30.054  15.244  1.00  0.00     0.001 A 
HETATM    9  C   LIG     1      13.048  30.722  16.420  1.00  0.00     0.001 A 
HETATM   10  C   LIG     1      13.775  31.843  16.830  1.00  0.00     0.016 A 
HETATM   11  C   LIG     1      14.859  32.303  16.064  1.00  0.00     0.028 A 
HETATM   12  C   LIG     1      15.642  33.490  16.477  1.00  0.00     0.183 A 
HETATM   13  O   LIG     1      15.349  34.120  17.529  1.00  0.00    -0.288 OA
ENDROOT
TORSDOF 0
ENDMDL
MODEL 6
REMARK VINA RESULT:      -6.8      1.613      4.398
REMARK  0 active torsions:
REMARK  status: ('A' for Active; 'I' for Inactive)
ROOT
HETATM    1  O   LIG     1      19.058  39.966  21.135  1.00  0.00    -0.287 OA
HETATM    2  C   LIG     1      18.548  38.818  21.020  1.00  0.00     0.189 A 
HETATM    3  C   LIG     1      18.567  38.130  19.704  1.00  0.00    -0.007 A 
HETATM    4  C   LIG     1      19.215  38.795  18.521  1.00  0.00     0.052 C 
HETATM    5  C   LIG     1      18.066  36.889  19.586  1.00  0.00     0.066 A 
HETATM    6  C   LIG     1      17.934  38.155  22.195  1.00  0.00     0.029 A 
HETATM    7  C   LIG     1      17.885  38.793  23.446  1.00  0.00     0.016 A 
HETATM    8  C   LIG     1      17.303  38.152  24.543  1.00  0.00     0.001 A 
HETATM    9  C   LIG     1      16.766  36.871  24.400  1.00  0.00     0.001 A 
HETATM   10  C   LIG     1      16.810  36.225  23.162  1.00  0.00     0.016 A 
HETATM   11  C   LIG     1      17.393  36.860  22.053  1.00  0.00     0.028 A 
HETATM   12  C   LIG     1      17.453  36.196  20.732  1.00  0.00     0.183 A 
HETATM   13  O   LIG     1      16.985  35.036  20.573  1.00  0.00    -0.288 OA
ENDROOT
TORSDOF 0
ENDMDL
MODEL 7
REMARK VINA RESULT:      -6.7      6.978      9.411
REMARK  0 active torsions:
REMARK  status: ('A' for Active; 'I' for Inactive)
ROOT
HETATM    1  O   LIG     1      16.474  34.489  16.081  1.00  0.00    -0.287 OA
HETATM    2  C   LIG     1      16.251  33.465  15.379  1.00  0.00     0.189 A 
HETATM    3  C   LIG     1      17.057  33.218  14.156  1.00  0.00    -0.007 A 
HETATM    4  C   LIG     1      18.149  34.179  13.774  1.00  0.00     0.052 C 
HETATM    5  C   LIG     1      16.855  32.108  13.428  1.00  0.00     0.066 A 
HETATM    6  C   LIG     1      15.191  32.507  15.774  1.00  0.00     0.029 A 
HETATM    7  C   LIG     1      14.401  32.726  16.915  1.00  0.00     0.016 A 
HETATM    8  C   LIG     1      13.407  31.811  17.272  1.00  0.00     0.001 A 
HETATM    9  C   LIG     1      13.194  30.671  16.495  1.00  0.00     0.001 A 
HETATM   10  C   LIG     1      13.974  30.440  15.359  1.00  0.00     0.016 A 
HETATM   11  C   LIG     1      14.976  31.353  14.990  1.00  0.00     0.028 A 
HETATM   12  C   LIG     1      15.816  31.129  13.793  1.00  0.00     0.183 A 
HETATM   13  O   LIG     1      15.654  30.105  13.076  1.00  0.00    -0.288 OA
ENDROOT
TORSDOF 0
ENDMDL
MODEL 8
REMARK VINA RESULT:      -6.6      6.560      8.468
REMARK  0 active torsions:
REMARK  status: ('A' for Active; 'I' for Inactive)
ROOT
HETATM    1  O   LIG     1      16.587  34.404  15.810  1.00  0.00    -0.287 OA
HETATM    2  C   LIG     1      15.832  33.454  16.152  1.00  0.00     0.189 A 
HETATM    3  C   LIG     1      15.194  33.462  17.494  1.00  0.00    -0.007 A 
HETATM    4  C   LIG     1      15.435  34.615  18.428  1.00  0.00     0.052 C 
HETATM    5  C   LIG     1      14.354  32.476  17.846  1.00  0.00     0.066 A 
HETATM    6  C   LIG     1      15.576  32.332  15.217  1.00  0.00     0.029 A 
HETATM    7  C   LIG     1      16.182  32.290  13.950  1.00  0.00     0.016 A 
HETATM    8  C   LIG     1      15.928  31.225  13.082  1.00  0.00     0.001 A 
HETATM    9  C   LIG     1      15.069  30.195  13.469  1.00  0.00     0.001 A 
HETATM   10  C   LIG     1      14.459  30.226  14.726  1.00  0.00     0.016 A 
HETATM   11  C   LIG     1      14.707  31.292  15.607  1.00  0.00     0.028 A 
HETATM   12  C   LIG     1      14.070  31.348  16.942  1.00  0.00     0.183 A 
HETATM   13  O   LIG     1      13.283  30.438  17.318  1.00  0.00    -0.288 OA
ENDROOT
TORSDOF 0
ENDMDL
MODEL 9
REMARK VINA RESULT:      -6.4      7.233      9.399
REMARK  0 active torsions:
REMARK  status: ('A' for Active; 'I' for Inactive)
ROOT
HETATM    1  O   LIG     1      13.305  32.052  17.474  1.00  0.00    -0.287 OA
HETATM    2  C   LIG     1      14.217  32.111  16.604  1.00  0.00     0.189 A 
HETATM    3  C   LIG     1      15.204  33.220  16.643  1.00  0.00    -0.007 A 
HETATM    4  C   LIG     1      15.124  34.254  17.732  1.00  0.00     0.052 C 
HETATM    5  C   LIG     1      16.203  33.264  15.746  1.00  0.00     0.066 A 
HETATM    6  C   LIG     1      14.307  31.075  15.547  1.00  0.00     0.029 A 
HETATM    7  C   LIG     1      13.373  30.027  15.476  1.00  0.00     0.016 A 
HETATM    8  C   LIG     1      13.475  29.059  14.473  1.00  0.00     0.001 A 
HETATM    9  C   LIG     1      14.507  29.128  13.535  1.00  0.00     0.001 A 
HETATM   10  C   LIG     1      15.442  30.164  13.596  1.00  0.00     0.016 A 
HETATM   11  C   LIG     1      15.349  31.143  14.600  1.00  0.00     0.028 A 
HETATM   12  C   LIG     1      16.329  32.249  14.686  1.00  0.00     0.183 A 
HETATM   13  O   LIG     1      17.277  32.335  13.859  1.00  0.00    -0.288 OA
ENDROOT
TORSDOF 0
ENDMDL
MODEL 10
REMARK VINA RESULT:      -6.4      7.245      9.098
REMARK  0 active torsions:
REMARK  status: ('A' for Active; 'I' for Inactive)
ROOT
HETATM    1  O   LIG     1      12.698  30.301  16.448  1.00  0.00    -0.287 OA
HETATM    2  C   LIG     1      13.659  30.624  15.697  1.00  0.00     0.189 A 
HETATM    3  C   LIG     1      13.975  29.799  14.504  1.00  0.00    -0.007 A 
HETATM    4  C   LIG     1      13.134  28.594  14.185  1.00  0.00     0.052 C 
HETATM    5  C   LIG     1      14.968  30.163  13.676  1.00  0.00     0.066 A 
HETATM    6  C   LIG     1      14.469  31.828  16.002  1.00  0.00     0.029 A 
HETATM    7  C   LIG     1      14.205  32.615  17.136  1.00  0.00     0.016 A 
HETATM    8  C   LIG     1      14.979  33.747  17.406  1.00  0.00     0.001 A 
HETATM    9  C   LIG     1      16.022  34.102  16.548  1.00  0.00     0.001 A 
HETATM   10  C   LIG     1      16.294  33.329  15.417  1.00  0.00     0.016 A 
HETATM   11  C   LIG     1      15.523  32.189  15.136  1.00  0.00     0.028 A 
HETATM   12  C   LIG     1      15.791  31.356  13.942  1.00  0.00     0.183 A 
HETATM   13  O   LIG     1      16.720  31.655  13.144  1.00  0.00    -0.288 OA
ENDROOT
TORSDOF 0
ENDMDL
MODEL 11
REMARK VINA RESULT:      -5.9      6.704      8.478
REMARK  0 active torsions:
REMARK  status: ('A' for Active; 'I' for Inactive)
ROOT
HETATM    1  O   LIG     1      15.564  33.688  17.367  1.00  0.00    -0.287 OA
HETATM    2  C   LIG     1      15.501  32.880  16.401  1.00  0.00     0.189 A 
HETATM    3  C   LIG     1      14.581  31.716  16.471  1.00  0.00    -0.007 A 
HETATM    4  C   LIG     1      13.714  31.520  17.683  1.00  0.00     0.052 C 
HETATM    5  C   LIG     1      14.477  30.876  15.428  1.00  0.00     0.066 A 
HETATM    6  C   LIG     1      16.339  33.091  15.197  1.00  0.00     0.029 A 
HETATM    7  C   LIG     1      17.232  34.173  15.114  1.00  0.00     0.016 A 
HETATM    8  C   LIG     1      18.013  34.357  13.969  1.00  0.00     0.001 A 
HETATM    9  C   LIG     1      17.910  33.464  12.901  1.00  0.00     0.001 A 
HETATM   10  C   LIG     1      17.025  32.386  12.970  1.00  0.00     0.016 A 
HETATM   11  C   LIG     1      16.235  32.191  14.115  1.00  0.00     0.028 A 
HETATM   12  C   LIG     1      15.288  31.058  14.211  1.00  0.00     0.183 A 
HETATM   13  O   LIG     1      15.165  30.240  13.260  1.00  0.00    -0.288 OA
ENDROOT
TORSDOF 0
ENDMDL
MODEL 12
REMARK VINA RESULT:      -5.8      2.237      2.604
REMARK  0 active torsions:
REMARK  status: ('A' for Active; 'I' for Inactive)
ROOT
HETATM    1  O   LIG     1      17.371  34.537  22.814  1.00  0.00    -0.287 OA
HETATM    2  C   LIG     1      17.360  35.696  23.310  1.00  0.00     0.189 A 
HETATM    3  C   LIG     1      17.099  35.877  24.761  1.00  0.00    -0.007 A 
HETATM    4  C   LIG     1      16.870  34.675  25.634  1.00  0.00     0.052 C 
HETATM    5  C   LIG     1      17.129  37.105  25.303  1.00  0.00     0.066 A 
HETATM    6  C   LIG     1      17.612  36.877  22.449  1.00  0.00     0.029 A 
HETATM    7  C   LIG     1      17.842  36.735  21.070  1.00  0.00     0.016 A 
HETATM    8  C   LIG     1      18.079  37.860  20.275  1.00  0.00     0.001 A 
HETATM    9  C   LIG     1      18.087  39.133  20.848  1.00  0.00     0.001 A 
HETATM   10  C   LIG     1      17.861  39.287  22.218  1.00  0.00     0.016 A 
HETATM   11  C   LIG     1      17.622  38.164  23.027  1.00  0.00     0.028 A 
HETATM   12  C   LIG     1      17.383  38.302  24.481  1.00  0.00     0.183 A 
HETATM   13  O   LIG     1      17.393  39.437  25.030  1.00  0.00    -0.288 OA
ENDROOT
TORSDOF 0
ENDMDL
MODEL 13
REMARK VINA RESULT:      -5.7      1.298      4.577
REMARK  0 active torsions:
REMARK  status: ('A' for Active; 'I' for Inactive)
ROOT
HETATM    1  O   LIG     1      16.922  37.543  23.532  1.00  0.00    -0.287 OA
HETATM    2  C   LIG     1      17.216  37.335  22.323  1.00  0.00     0.189 A 
HETATM    3  C   LIG     1      18.212  38.203  21.645  1.00  0.00    -0.007 A 
HETATM    4  C   LIG     1      18.881  39.312  22.410  1.00  0.00     0.052 C 
HETATM    5  C   LIG     1      18.563  37.959  20.372  1.00  0.00     0.066 A 
HETATM    6  C   LIG     1      16.573  36.224  21.581  1.00  0.00     0.029 A 
HETATM    7  C   LIG     1      15.613  35.401  22.193  1.00  0.00     0.016 A 
HETATM    8  C   LIG     1      15.019  34.358  21.477  1.00  0.00     0.001 A 
HETATM    9  C   LIG     1      15.377  34.128  20.147  1.00  0.00     0.001 A 
HETATM   10  C   LIG     1      16.332  34.939  19.528  1.00  0.00     0.016 A 
HETATM   11  C   LIG     1      16.936  35.991  20.238  1.00  0.00     0.028 A 
HETATM   12  C   LIG     1      17.951  36.861  19.604  1.00  0.00     0.183 A 
HETATM   13  O   LIG     1      18.303  36.674  18.408  1.00  0.00    -0.288 OA
ENDROOT
TORSDOF 0
ENDMDL
MODEL 14
REMARK VINA RESULT:      -5.5      1.641      1.966
REMARK  0 active torsions:
REMARK  status: ('A' for Active; 'I' for Inactive)
ROOT
HETATM    1  O   LIG     1      17.223  35.147  21.893  1.00  0.00    -0.287 OA
HETATM    2  C   LIG     1      17.474  36.377  22.014  1.00  0.00     0.189 A 
HETATM    3  C   LIG     1      17.238  37.054  23.315  1.00  0.00    -0.007 A 
HETATM    4  C   LIG     1      16.721  36.265  24.486  1.00  0.00     0.052 C 
HETATM    5  C   LIG     1      17.546  38.353  23.464  1.00  0.00     0.066 A 
HETATM    6  C   LIG     1      18.009  37.145  20.865  1.00  0.00     0.029 A 
HETATM    7  C   LIG     1      18.222  36.533  19.618  1.00  0.00     0.016 A 
HETATM    8  C   LIG     1      18.728  37.273  18.546  1.00  0.00     0.001 A 
HETATM    9  C   LIG     1      19.024  38.628  18.708  1.00  0.00     0.001 A 
HETATM   10  C   LIG     1      18.818  39.248  19.943  1.00  0.00     0.016 A 
HETATM   11  C   LIG     1      18.310  38.514  21.028  1.00  0.00     0.028 A 
HETATM   12  C   LIG     1      18.085  39.148  22.346  1.00  0.00     0.183 A 
HETATM   13  O   LIG     1      18.351  40.367  22.527  1.00  0.00    -0.288 OA
ENDROOT
TORSDOF 0
ENDMDL
MODEL 15
REMARK VINA RESULT:      -5.2      3.887      6.026
REMARK  0 active torsions:
REMARK  status: ('A' for Active; 'I' for Inactive)
ROOT
HETATM    1  O   LIG     1      15.570  34.507  16.516  1.00  0.00    -0.287 OA
HETATM    2  C   LIG     1      15.299  33.672  17.422  1.00  0.00     0.189 A 
HETATM    3  C   LIG     1      14.831  32.310  17.055  1.00  0.00    -0.007 A 
HETATM    4  C   LIG     1      14.704  31.928  15.607  1.00  0.00     0.052 C 
HETATM    5  C   LIG     1      14.584  31.403  18.014  1.00  0.00     0.066 A 
HETATM    6  C   LIG     1      15.451  34.045  18.848  1.00  0.00     0.029 A 
HETATM    7  C   LIG     1      15.873  35.332  19.222  1.00  0.00     0.016 A 
HETATM    8  C   LIG     1      16.012  35.665  20.572  1.00  0.00     0.001 A 
HETATM    9  C   LIG     1      15.731  34.718  21.559  1.00  0.00     0.001 A 
HETATM   10  C   LIG     1      15.312  33.434  21.200  1.00  0.00     0.016 A 
HETATM   11  C   LIG     1      15.169  33.089  19.846  1.00  0.00     0.028 A 
HETATM   12  C   LIG     1      14.730  31.734  19.442  1.00  0.00     0.183 A 
HETATM   13  O   LIG     1      14.477  30.855  20.309  1.00  0.00    -0.288 OA
ENDROOT
TORSDOF 0
ENDMDL
MODEL 16
REMARK VINA RESULT:      -4.7      4.382      6.736
REMARK  0 active torsions:
REMARK  status: ('A' for Active; 'I' for Inactive)
ROOT
HETATM    1  O   LIG     1      16.079  35.328  18.082  1.00  0.00    -0.287 OA
HETATM    2  C   LIG     1      15.673  34.269  18.634  1.00  0.00     0.189 A 
HETATM    3  C   LIG     1      15.732  34.137  20.112  1.00  0.00    -0.007 A 
HETATM    4  C   LIG     1      16.256  35.275  20.944  1.00  0.00     0.052 C 
HETATM    5  C   LIG     1      15.260  33.030  20.709  1.00  0.00     0.066 A 
HETATM    6  C   LIG     1      15.133  33.160  17.812  1.00  0.00     0.029 A 
HETATM    7  C   LIG     1      15.084  33.251  16.410  1.00  0.00     0.016 A 
HETATM    8  C   LIG     1      14.571  32.196  15.652  1.00  0.00     0.001 A 
HETATM    9  C   LIG     1      14.103  31.042  16.284  1.00  0.00     0.001 A 
HETATM   10  C   LIG     1      14.145  30.940  17.676  1.00  0.00     0.016 A 
HETATM   11  C   LIG     1      14.658  31.994  18.449  1.00  0.00     0.028 A 
HETATM   12  C   LIG     1      14.711  31.910  19.926  1.00  0.00     0.183 A 
HETATM   13  O   LIG     1      14.288  30.885  20.527  1.00  0.00    -0.288 OA
ENDROOT
TORSDOF 0
ENDMDL
MODEL 17
REMARK VINA RESULT:      -4.7      5.019      7.297
REMARK  0 active torsions:
REMARK  status: ('A' for Active; 'I' for Inactive)
ROOT
HETATM    1  O   LIG     1      14.287  31.601  20.142  1.00  0.00    -0.287 OA
HETATM    2  C   LIG     1      14.678  32.347  19.203  1.00  0.00     0.189 A 
HETATM    3  C   LIG     1      15.304  33.657  19.513  1.00  0.00    -0.007 A 
HETATM    4  C   LIG     1      15.490  34.077  20.945  1.00  0.00     0.052 C 
HETATM    5  C   LIG     1      15.762  34.437  18.520  1.00  0.00     0.066 A 
HETATM    6  C   LIG     1      14.516  31.918  17.794  1.00  0.00     0.029 A 
HETATM    7  C   LIG     1      13.908  30.692  17.473  1.00  0.00     0.016 A 
HETATM    8  C   LIG     1      13.766  30.304  16.138  1.00  0.00     0.001 A 
HETATM    9  C   LIG     1      14.228  31.133  15.114  1.00  0.00     0.001 A 
HETATM   10  C   LIG     1      14.835  32.353  15.420  1.00  0.00     0.016 A 
HETATM   11  C   LIG     1      14.984  32.754  16.759  1.00  0.00     0.028 A 
HETATM   12  C   LIG     1      15.626  34.041  17.108  1.00  0.00     0.183 A 
HETATM   13  O   LIG     1      16.061  34.808  16.207  1.00  0.00    -0.288 OA
ENDROOT
TORSDOF 0
ENDMDL
