REMARK  0 active torsions:
REMARK  status: ('A' for Active; 'I' for Inactive)
ROOT
HETATM    1  O   LIG     1      -1.098  -2.222   0.550  1.00  0.00    -0.287 OA
HETATM    2  C   LIG     1      -0.845  -1.024   0.246  1.00  0.00     0.189 A 
HETATM    3  C   LIG     1      -1.959  -0.068   0.021  1.00  0.00    -0.007 A 
HETATM    4  C   LIG     1      -3.382  -0.528   0.178  1.00  0.00     0.052 C 
HETATM    5  C   LIG     1      -1.696   1.219  -0.259  1.00  0.00     0.066 A 
HETATM    6  C   LIG     1       0.560  -0.569   0.118  1.00  0.00     0.029 A 
HETATM    7  C   LIG     1       1.632  -1.458   0.306  1.00  0.00     0.016 A 
HETATM    8  C   LIG     1       2.950  -1.010   0.182  1.00  0.00     0.001 A 
HETATM    9  C   LIG     1       3.209   0.326  -0.130  1.00  0.00     0.001 A 
HETATM   10  C   LIG     1       2.152   1.220  -0.318  1.00  0.00     0.016 A 
HETATM   11  C   LIG     1       0.823   0.781  -0.196  1.00  0.00     0.028 A 
HETATM   12  C   LIG     1      -0.313   1.710  -0.388  1.00  0.00     0.183 A 
HETATM   13  O   LIG     1      -0.112   2.924  -0.662  1.00  0.00    -0.288 OA
ENDROOT
TORSDOF 0
