MODEL 1
REMARK VINA RESULT:      -8.1      0.000      0.000
REMARK  4 active torsions:
REMARK  status: ('A' for Active; 'I' for Inactive)
REMARK    1  A    between atoms: N_15  and  C_16 
REMARK    2  A    between atoms: C_16  and  C_17 
REMARK    3  A    between atoms: C_17  and  C_18 
REMARK    4  A    between atoms: C_18  and  N_19 
ROOT
HETATM    1 CL   LIG     1      17.538  34.433  26.638  1.00  0.00    -0.084 Cl
HETATM    2  C   LIG     1      17.505  35.806  25.546  1.00  0.00     0.036 A 
HETATM    3  C   LIG     1      17.071  35.638  24.226  1.00  0.00     0.054 A 
HETATM    4  C   LIG     1      17.047  36.732  23.346  1.00  0.00     0.053 A 
HETATM    5  C   LIG     1      17.465  37.995  23.805  1.00  0.00     0.032 A 
HETATM    6  C   LIG     1      17.923  38.153  25.117  1.00  0.00     0.023 A 
HETATM    7  C   LIG     1      17.937  37.060  25.988  1.00  0.00     0.025 A 
HETATM    8  S   LIG     1      17.327  39.418  22.719  1.00  0.00    -0.086 SA
HETATM    9  C   LIG     1      18.034  38.557  21.310  1.00  0.00     0.032 A 
HETATM   10  C   LIG     1      17.583  37.261  20.995  1.00  0.00     0.052 A 
HETATM   11  C   LIG     1      18.065  36.628  19.838  1.00  0.00     0.031 A 
HETATM   12  C   LIG     1      18.984  37.281  19.011  1.00  0.00     0.002 A 
HETATM   13  C   LIG     1      19.444  38.558  19.342  1.00  0.00     0.002 A 
HETATM   14  C   LIG     1      18.972  39.196  20.494  1.00  0.00     0.021 A 
HETATM   15  N   LIG     1      16.764  36.548  21.944  1.00  0.00    -0.345 N 
ENDROOT
BRANCH  15  16
HETATM   16  C   LIG     1      15.520  35.897  21.513  1.00  0.00     0.131 C 
BRANCH  16  17
HETATM   17  C   LIG     1      15.784  34.419  21.205  1.00  0.00     0.050 C 
BRANCH  17  18
HETATM   18  C   LIG     1      14.955  33.925  20.014  1.00  0.00     0.274 C 
BRANCH  18  19
HETATM   19  N   LIG     1      15.837  33.377  18.956  1.00  0.00     0.091 N 
HETATM   20  C   LIG     1      15.742  31.908  18.848  1.00  0.00     0.302 C 
HETATM   21  C   LIG     1      14.372  31.450  18.299  1.00  0.00     0.302 C 
HETATM   22  N   LIG     1      13.677  32.529  17.565  1.00  0.00     0.087 N 
HETATM   23  C   LIG     1      14.626  33.294  16.740  1.00  0.00     0.302 C 
HETATM   24  C   LIG     1      12.600  31.974  16.733  1.00  0.00     0.310 C 
HETATM   25  C   LIG     1      15.637  34.034  17.641  1.00  0.00     0.302 C 
ENDBRANCH  18  19
ENDBRANCH  17  18
ENDBRANCH  16  17
ENDBRANCH  15  16
TORSDOF 4
ENDMDL
MODEL 2
REMARK VINA RESULT:      -5.3      7.322     10.821
REMARK  4 active torsions:
REMARK  status: ('A' for Active; 'I' for Inactive)
REMARK    1  A    between atoms: N_15  and  C_16 
REMARK    2  A    between atoms: C_16  and  C_17 
REMARK    3  A    between atoms: C_17  and  C_18 
REMARK    4  A    between atoms: C_18  and  N_19 
ROOT
HETATM    1 CL   LIG     1      16.513  26.665  11.918  1.00  0.00    -0.084 Cl
HETATM    2  C   LIG     1      15.418  27.667  12.855  1.00  0.00     0.036 A 
HETATM    3  C   LIG     1      15.734  29.009  13.096  1.00  0.00     0.054 A 
HETATM    4  C   LIG     1      14.864  29.814  13.851  1.00  0.00     0.053 A 
HETATM    5  C   LIG     1      13.677  29.256  14.362  1.00  0.00     0.032 A 
HETATM    6  C   LIG     1      13.379  27.908  14.140  1.00  0.00     0.023 A 
HETATM    7  C   LIG     1      14.247  27.116  13.383  1.00  0.00     0.025 A 
HETATM    8  S   LIG     1      12.508  30.310  15.227  1.00  0.00    -0.086 SA
HETATM    9  C   LIG     1      13.778  31.097  16.223  1.00  0.00     0.032 A 
HETATM   10  C   LIG     1      14.960  31.549  15.604  1.00  0.00     0.052 A 
HETATM   11  C   LIG     1      15.909  32.251  16.365  1.00  0.00     0.031 A 
HETATM   12  C   LIG     1      15.679  32.495  17.723  1.00  0.00     0.002 A 
HETATM   13  C   LIG     1      14.514  32.025  18.334  1.00  0.00     0.002 A 
HETATM   14  C   LIG     1      13.565  31.322  17.585  1.00  0.00     0.021 A 
HETATM   15  N   LIG     1      15.248  31.145  14.250  1.00  0.00    -0.345 N 
ENDROOT
BRANCH  15  16
HETATM   16  C   LIG     1      15.646  32.140  13.245  1.00  0.00     0.131 C 
BRANCH  16  17
HETATM   17  C   LIG     1      16.983  32.775  13.641  1.00  0.00     0.050 C 
BRANCH  17  18
HETATM   18  C   LIG     1      17.944  32.875  12.450  1.00  0.00     0.274 C 
BRANCH  18  19
HETATM   19  N   LIG     1      18.628  34.190  12.441  1.00  0.00     0.091 N 
HETATM   20  C   LIG     1      19.958  34.138  13.079  1.00  0.00     0.302 C 
HETATM   21  C   LIG     1      20.972  33.318  12.249  1.00  0.00     0.302 C 
HETATM   22  N   LIG     1      20.563  33.195  10.834  1.00  0.00     0.087 N 
HETATM   23  C   LIG     1      20.004  34.464  10.340  1.00  0.00     0.302 C 
HETATM   24  C   LIG     1      21.703  32.775  10.005  1.00  0.00     0.310 C 
HETATM   25  C   LIG     1      18.696  34.795  11.087  1.00  0.00     0.302 C 
ENDBRANCH  18  19
ENDBRANCH  17  18
ENDBRANCH  16  17
ENDBRANCH  15  16
TORSDOF 4
ENDMDL
MODEL 3
REMARK VINA RESULT:      -5.2     15.201     16.818
REMARK  4 active torsions:
REMARK  status: ('A' for Active; 'I' for Inactive)
REMARK    1  A    between atoms: N_15  and  C_16 
REMARK    2  A    between atoms: C_16  and  C_17 
REMARK    3  A    between atoms: C_17  and  C_18 
REMARK    4  A    between atoms: C_18  and  N_19 
ROOT
HETATM    1 CL   LIG     1      21.998  22.796  21.293  1.00  0.00    -0.084 Cl
HETATM    2  C   LIG     1      23.520  22.659  20.433  1.00  0.00     0.036 A 
HETATM    3  C   LIG     1      24.641  23.369  20.878  1.00  0.00     0.054 A 
HETATM    4  C   LIG     1      25.862  23.268  20.190  1.00  0.00     0.053 A 
HETATM    5  C   LIG     1      25.943  22.447  19.049  1.00  0.00     0.032 A 
HETATM    6  C   LIG     1      24.814  21.759  18.593  1.00  0.00     0.023 A 
HETATM    7  C   LIG     1      23.606  21.861  19.287  1.00  0.00     0.025 A 
HETATM    8  S   LIG     1      27.528  22.223  18.236  1.00  0.00    -0.086 SA
HETATM    9  C   LIG     1      27.920  23.975  18.264  1.00  0.00     0.032 A 
HETATM   10  C   LIG     1      27.724  24.708  19.450  1.00  0.00     0.052 A 
HETATM   11  C   LIG     1      28.122  26.054  19.500  1.00  0.00     0.031 A 
HETATM   12  C   LIG     1      28.706  26.656  18.382  1.00  0.00     0.002 A 
HETATM   13  C   LIG     1      28.878  25.929  17.201  1.00  0.00     0.002 A 
HETATM   14  C   LIG     1      28.481  24.589  17.140  1.00  0.00     0.021 A 
HETATM   15  N   LIG     1      26.976  24.115  20.532  1.00  0.00    -0.345 N 
ENDROOT
BRANCH  15  16
HETATM   16  C   LIG     1      27.503  24.140  21.903  1.00  0.00     0.131 C 
BRANCH  16  17
HETATM   17  C   LIG     1      27.746  22.708  22.394  1.00  0.00     0.050 C 
BRANCH  17  18
HETATM   18  C   LIG     1      27.390  22.543  23.876  1.00  0.00     0.274 C 
BRANCH  18  19
HETATM   19  N   LIG     1      26.327  23.499  24.267  1.00  0.00     0.091 N 
HETATM   20  C   LIG     1      25.020  22.841  24.457  1.00  0.00     0.302 C 
HETATM   21  C   LIG     1      25.004  21.922  25.700  1.00  0.00     0.302 C 
HETATM   22  N   LIG     1      26.072  22.269  26.662  1.00  0.00     0.087 N 
HETATM   23  C   LIG     1      26.215  23.729  26.780  1.00  0.00     0.302 C 
HETATM   24  C   LIG     1      25.795  21.669  27.975  1.00  0.00     0.310 C 
HETATM   25  C   LIG     1      26.698  24.325  25.442  1.00  0.00     0.302 C 
ENDBRANCH  18  19
ENDBRANCH  17  18
ENDBRANCH  16  17
ENDBRANCH  15  16
TORSDOF 4
ENDMDL
MODEL 4
REMARK VINA RESULT:      -5.1     14.972     16.391
REMARK  4 active torsions:
REMARK  status: ('A' for Active; 'I' for Inactive)
REMARK    1  A    between atoms: N_15  and  C_16 
REMARK    2  A    between atoms: C_16  and  C_17 
REMARK    3  A    between atoms: C_17  and  C_18 
REMARK    4  A    between atoms: C_18  and  N_19 
ROOT
HETATM    1 CL   LIG     1      26.589  25.467  28.364  1.00  0.00    -0.084 Cl
HETATM    2  C   LIG     1      26.185  24.073  27.378  1.00  0.00     0.036 A 
HETATM    3  C   LIG     1      26.289  24.150  25.984  1.00  0.00     0.054 A 
HETATM    4  C   LIG     1      25.961  23.039  25.189  1.00  0.00     0.053 A 
HETATM    5  C   LIG     1      25.526  21.853  25.809  1.00  0.00     0.032 A 
HETATM    6  C   LIG     1      25.399  21.788  27.200  1.00  0.00     0.023 A 
HETATM    7  C   LIG     1      25.734  22.896  27.984  1.00  0.00     0.025 A 
HETATM    8  S   LIG     1      25.218  20.396  24.805  1.00  0.00    -0.086 SA
HETATM    9  C   LIG     1      24.285  21.303  23.568  1.00  0.00     0.032 A 
HETATM   10  C   LIG     1      24.791  22.523  23.078  1.00  0.00     0.052 A 
HETATM   11  C   LIG     1      24.110  23.183  22.041  1.00  0.00     0.031 A 
HETATM   12  C   LIG     1      22.942  22.631  21.506  1.00  0.00     0.002 A 
HETATM   13  C   LIG     1      22.435  21.432  22.012  1.00  0.00     0.002 A 
HETATM   14  C   LIG     1      23.103  20.770  23.046  1.00  0.00     0.021 A 
HETATM   15  N   LIG     1      25.901  23.149  23.753  1.00  0.00    -0.345 N 
ENDROOT
BRANCH  15  16
HETATM   16  C   LIG     1      27.064  23.624  22.991  1.00  0.00     0.131 C 
BRANCH  16  17
HETATM   17  C   LIG     1      27.329  22.688  21.807  1.00  0.00     0.050 C 
BRANCH  17  18
HETATM   18  C   LIG     1      27.933  23.435  20.612  1.00  0.00     0.274 C 
BRANCH  18  19
HETATM   19  N   LIG     1      26.897  23.705  19.587  1.00  0.00     0.091 N 
HETATM   20  C   LIG     1      26.324  25.059  19.709  1.00  0.00     0.302 C 
HETATM   21  C   LIG     1      27.343  26.160  19.336  1.00  0.00     0.302 C 
HETATM   22  N   LIG     1      28.445  25.638  18.501  1.00  0.00     0.087 N 
HETATM   23  C   LIG     1      27.937  24.683  17.503  1.00  0.00     0.302 C 
HETATM   24  C   LIG     1      29.158  26.743  17.841  1.00  0.00     0.310 C 
HETATM   25  C   LIG     1      27.367  23.434  18.206  1.00  0.00     0.302 C 
ENDBRANCH  18  19
ENDBRANCH  17  18
ENDBRANCH  16  17
ENDBRANCH  15  16
TORSDOF 4
ENDMDL
