REMARK  4 active torsions:
REMARK  status: ('A' for Active; 'I' for Inactive)
REMARK    1  A    between atoms: N_15  and  C_16 
REMARK    2  A    between atoms: C_16  and  C_17 
REMARK    3  A    between atoms: C_17  and  C_18 
REMARK    4  A    between atoms: C_18  and  N_19 
ROOT
HETATM    1 CL   LIG     1      -4.417   2.358   4.468  1.00  0.00    -0.084 Cl
HETATM    2  C   LIG     1      -4.173   1.109   3.260  1.00  0.00     0.036 A 
HETATM    3  C   LIG     1      -3.197   1.276   2.270  1.00  0.00     0.054 A 
HETATM    4  C   LIG     1      -3.001   0.282   1.297  1.00  0.00     0.053 A 
HETATM    5  C   LIG     1      -3.796  -0.879   1.328  1.00  0.00     0.032 A 
HETATM    6  C   LIG     1      -4.787  -1.030   2.303  1.00  0.00     0.023 A 
HETATM    7  C   LIG     1      -4.971  -0.039   3.271  1.00  0.00     0.025 A 
HETATM    8  S   LIG     1      -3.470  -2.202   0.158  1.00  0.00    -0.086 SA
HETATM    9  C   LIG     1      -3.344  -1.087  -1.244  1.00  0.00     0.032 A 
HETATM   10  C   LIG     1      -2.575   0.087  -1.126  1.00  0.00     0.052 A 
HETATM   11  C   LIG     1      -2.397   0.908  -2.252  1.00  0.00     0.031 A 
HETATM   12  C   LIG     1      -2.980   0.560  -3.474  1.00  0.00     0.002 A 
HETATM   13  C   LIG     1      -3.759  -0.595  -3.578  1.00  0.00     0.002 A 
HETATM   14  C   LIG     1      -3.945  -1.417  -2.462  1.00  0.00     0.021 A 
HETATM   15  N   LIG     1      -2.122   0.507   0.177  1.00  0.00    -0.345 N 
ENDROOT
BRANCH  15  16
HETATM   16  C   LIG     1      -0.717   0.878   0.393  1.00  0.00     0.131 C 
BRANCH  16  17
HETATM   17  C   LIG     1       0.134  -0.384   0.573  1.00  0.00     0.050 C 
BRANCH  17  18
HETATM   18  C   LIG     1       1.611  -0.049   0.812  1.00  0.00     0.274 C 
BRANCH  18  19
HETATM   19  N   LIG     1       2.191   0.628  -0.372  1.00  0.00     0.091 N 
HETATM   20  C   LIG     1       3.205   1.635  -0.005  1.00  0.00     0.302 C 
HETATM   21  C   LIG     1       4.486   0.991   0.572  1.00  0.00     0.302 C 
HETATM   22  N   LIG     1       4.617  -0.430   0.185  1.00  0.00     0.087 N 
HETATM   23  C   LIG     1       4.213  -0.629  -1.216  1.00  0.00     0.302 C 
HETATM   24  C   LIG     1       5.996  -0.895   0.396  1.00  0.00     0.310 C 
HETATM   25  C   LIG     1       2.710  -0.325  -1.384  1.00  0.00     0.302 C 
ENDBRANCH  18  19
ENDBRANCH  17  18
ENDBRANCH  16  17
ENDBRANCH  15  16
TORSDOF 4
