MODEL 1
REMARK VINA RESULT:      -8.9      0.000      0.000
REMARK  7 active torsions:
REMARK  status: ('A' for Active; 'I' for Inactive)
REMARK    1  A    between atoms: N_15  and  C_16 
REMARK    2  A    between atoms: C_16  and  C_17 
REMARK    3  A    between atoms: C_17  and  C_18 
REMARK    4  A    between atoms: C_18  and  N_19 
REMARK    5  A    between atoms: N_22  and  C_23 
REMARK    6  A    between atoms: C_23  and  C_24 
REMARK    7  A    between atoms: C_24  and  O_25 
ROOT
HETATM    1 CL   LIG     1      18.070  34.487  26.926  1.00  0.00    -0.084 Cl
HETATM    2  C   LIG     1      17.748  35.746  25.748  1.00  0.00     0.036 A 
HETATM    3  C   LIG     1      17.550  35.412  24.403  1.00  0.00     0.054 A 
HETATM    4  C   LIG     1      17.305  36.416  23.448  1.00  0.00     0.053 A 
HETATM    5  C   LIG     1      17.218  37.754  23.875  1.00  0.00     0.032 A 
HETATM    6  C   LIG     1      17.441  38.088  25.214  1.00  0.00     0.023 A 
HETATM    7  C   LIG     1      17.708  37.085  26.149  1.00  0.00     0.025 A 
HETATM    8  S   LIG     1      16.679  39.016  22.722  1.00  0.00    -0.086 SA
HETATM    9  C   LIG     1      17.778  38.453  21.423  1.00  0.00     0.032 A 
HETATM   10  C   LIG     1      17.850  37.079  21.117  1.00  0.00     0.052 A 
HETATM   11  C   LIG     1      18.614  36.671  20.009  1.00  0.00     0.031 A 
HETATM   12  C   LIG     1      19.307  37.612  19.241  1.00  0.00     0.002 A 
HETATM   13  C   LIG     1      19.256  38.967  19.576  1.00  0.00     0.002 A 
HETATM   14  C   LIG     1      18.492  39.388  20.665  1.00  0.00     0.021 A 
HETATM   15  N   LIG     1      17.269  36.116  22.030  1.00  0.00    -0.345 N 
ENDROOT
BRANCH  15  16
HETATM   16  C   LIG     1      16.623  34.888  21.539  1.00  0.00     0.131 C 
BRANCH  16  17
HETATM   17  C   LIG     1      15.199  35.156  21.010  1.00  0.00     0.050 C 
BRANCH  17  18
HETATM   18  C   LIG     1      15.182  35.316  19.480  1.00  0.00     0.274 C 
BRANCH  18  19
HETATM   19  N   LIG     1      15.586  34.065  18.801  1.00  0.00     0.091 N 
HETATM   20  C   LIG     1      15.396  34.163  17.331  1.00  0.00     0.302 C 
HETATM   21  C   LIG     1      14.062  33.547  16.877  1.00  0.00     0.302 C 
HETATM   22  N   LIG     1      13.961  32.104  17.220  1.00  0.00     0.093 N 
HETATM   23  C   LIG     1      14.794  31.726  18.388  1.00  0.00     0.302 C 
HETATM   24  C   LIG     1      14.914  32.879  19.394  1.00  0.00     0.302 C 
BRANCH  22  25
HETATM   25  C   LIG     1      14.248  31.249  16.047  1.00  0.00     0.298 C 
BRANCH  25  26
HETATM   26  C   LIG     1      13.018  30.432  15.631  1.00  0.00     0.194 C 
BRANCH  26  27
HETATM   27  O   LIG     1      12.264  30.079  16.759  1.00  0.00    -0.399 OA
HETATM   28  H   LIG     1      11.739  30.883  17.012  1.00  0.00     0.209 HD
ENDBRANCH  26  27
ENDBRANCH  25  26
ENDBRANCH  22  25
ENDBRANCH  18  19
ENDBRANCH  17  18
ENDBRANCH  16  17
ENDBRANCH  15  16
TORSDOF 7
ENDMDL
MODEL 2
REMARK VINA RESULT:      -7.7      1.743      2.066
REMARK  7 active torsions:
REMARK  status: ('A' for Active; 'I' for Inactive)
REMARK    1  A    between atoms: N_15  and  C_16 
REMARK    2  A    between atoms: C_16  and  C_17 
REMARK    3  A    between atoms: C_17  and  C_18 
REMARK    4  A    between atoms: C_18  and  N_19 
REMARK    5  A    between atoms: N_22  and  C_23 
REMARK    6  A    between atoms: C_23  and  C_24 
REMARK    7  A    between atoms: C_24  and  O_25 
ROOT
HETATM    1 CL   LIG     1      18.149  34.501  26.991  1.00  0.00    -0.084 Cl
HETATM    2  C   LIG     1      17.805  35.734  25.792  1.00  0.00     0.036 A 
HETATM    3  C   LIG     1      17.508  35.364  24.475  1.00  0.00     0.054 A 
HETATM    4  C   LIG     1      17.245  36.346  23.502  1.00  0.00     0.053 A 
HETATM    5  C   LIG     1      17.240  37.700  23.886  1.00  0.00     0.032 A 
HETATM    6  C   LIG     1      17.562  38.068  25.196  1.00  0.00     0.023 A 
HETATM    7  C   LIG     1      17.846  37.086  26.147  1.00  0.00     0.025 A 
HETATM    8  S   LIG     1      16.681  38.946  22.724  1.00  0.00    -0.086 SA
HETATM    9  C   LIG     1      17.671  38.293  21.381  1.00  0.00     0.032 A 
HETATM   10  C   LIG     1      17.667  36.908  21.120  1.00  0.00     0.052 A 
HETATM   11  C   LIG     1      18.342  36.432  19.981  1.00  0.00     0.031 A 
HETATM   12  C   LIG     1      19.022  37.316  19.139  1.00  0.00     0.002 A 
HETATM   13  C   LIG     1      19.049  38.682  19.428  1.00  0.00     0.002 A 
HETATM   14  C   LIG     1      18.374  39.172  20.547  1.00  0.00     0.021 A 
HETATM   15  N   LIG     1      17.106  36.002  22.101  1.00  0.00    -0.345 N 
ENDROOT
BRANCH  15  16
HETATM   16  C   LIG     1      16.381  34.788  21.695  1.00  0.00     0.131 C 
BRANCH  16  17
HETATM   17  C   LIG     1      15.712  34.949  20.314  1.00  0.00     0.050 C 
BRANCH  17  18
HETATM   18  C   LIG     1      15.298  33.593  19.720  1.00  0.00     0.274 C 
BRANCH  18  19
HETATM   19  N   LIG     1      14.896  33.722  18.302  1.00  0.00     0.091 N 
HETATM   20  C   LIG     1      14.565  32.400  17.711  1.00  0.00     0.302 C 
HETATM   21  C   LIG     1      15.751  31.797  16.940  1.00  0.00     0.302 C 
HETATM   22  N   LIG     1      16.192  32.662  15.815  1.00  0.00     0.093 N 
HETATM   23  C   LIG     1      15.869  34.095  16.026  1.00  0.00     0.302 C 
HETATM   24  C   LIG     1      15.908  34.471  17.513  1.00  0.00     0.302 C 
BRANCH  22  25
HETATM   25  C   LIG     1      15.670  32.172  14.520  1.00  0.00     0.298 C 
BRANCH  25  26
HETATM   26  C   LIG     1      16.694  32.359  13.393  1.00  0.00     0.194 C 
BRANCH  26  27
HETATM   27  O   LIG     1      16.403  33.519  12.661  1.00  0.00    -0.399 OA
HETATM   28  H   LIG     1      16.610  34.288  13.253  1.00  0.00     0.209 HD
ENDBRANCH  26  27
ENDBRANCH  25  26
ENDBRANCH  22  25
ENDBRANCH  18  19
ENDBRANCH  17  18
ENDBRANCH  16  17
ENDBRANCH  15  16
TORSDOF 7
ENDMDL
