REMARK  7 active torsions:
REMARK  status: ('A' for Active; 'I' for Inactive)
REMARK    1  A    between atoms: N_15  and  C_16 
REMARK    2  A    between atoms: C_16  and  C_17 
REMARK    3  A    between atoms: C_17  and  C_18 
REMARK    4  A    between atoms: C_18  and  N_19 
REMARK    5  A    between atoms: N_22  and  C_23 
REMARK    6  A    between atoms: C_23  and  C_24 
REMARK    7  A    between atoms: C_24  and  O_25 
ROOT
HETATM    1 CL   LIG     1      -0.599  -4.385   0.976  1.00  0.00    -0.084 Cl
HETATM    2  C   LIG     1      -2.047  -3.452   0.643  1.00  0.00     0.036 A 
HETATM    3  C   LIG     1      -1.940  -2.161   0.113  1.00  0.00     0.054 A 
HETATM    4  C   LIG     1      -3.095  -1.399  -0.144  1.00  0.00     0.053 A 
HETATM    5  C   LIG     1      -4.357  -1.974   0.097  1.00  0.00     0.032 A 
HETATM    6  C   LIG     1      -4.460  -3.254   0.650  1.00  0.00     0.023 A 
HETATM    7  C   LIG     1      -3.306  -3.991   0.925  1.00  0.00     0.025 A 
HETATM    8  S   LIG     1      -5.836  -1.115  -0.439  1.00  0.00    -0.086 SA
HETATM    9  C   LIG     1      -5.306   0.453   0.248  1.00  0.00     0.032 A 
HETATM   10  C   LIG     1      -3.994   0.911   0.011  1.00  0.00     0.052 A 
HETATM   11  C   LIG     1      -3.639   2.202   0.443  1.00  0.00     0.031 A 
HETATM   12  C   LIG     1      -4.566   3.004   1.115  1.00  0.00     0.002 A 
HETATM   13  C   LIG     1      -5.852   2.525   1.375  1.00  0.00     0.002 A 
HETATM   14  C   LIG     1      -6.223   1.251   0.942  1.00  0.00     0.021 A 
HETATM   15  N   LIG     1      -3.009  -0.004  -0.528  1.00  0.00    -0.345 N 
ENDROOT
BRANCH  15  16
HETATM   16  C   LIG     1      -1.973   0.453  -1.468  1.00  0.00     0.131 C 
BRANCH  16  17
HETATM   17  C   LIG     1      -0.696   0.919  -0.738  1.00  0.00     0.050 C 
BRANCH  17  18
HETATM   18  C   LIG     1       0.576   0.502  -1.495  1.00  0.00     0.274 C 
BRANCH  18  19
HETATM   19  N   LIG     1       1.793   1.036  -0.844  1.00  0.00     0.091 N 
HETATM   20  C   LIG     1       2.975   0.927  -1.737  1.00  0.00     0.302 C 
HETATM   21  C   LIG     1       3.811  -0.329  -1.440  1.00  0.00     0.302 C 
HETATM   22  N   LIG     1       4.331  -0.345  -0.048  1.00  0.00     0.093 N 
HETATM   23  C   LIG     1       3.496   0.443   0.892  1.00  0.00     0.302 C 
HETATM   24  C   LIG     1       2.015   0.419   0.489  1.00  0.00     0.302 C 
BRANCH  22  25
HETATM   25  C   LIG     1       5.750   0.073   0.003  1.00  0.00     0.298 C 
BRANCH  25  26
HETATM   26  C   LIG     1       6.383  -0.248   1.363  1.00  0.00     0.194 C 
BRANCH  26  27
HETATM   27  O   LIG     1       7.771  -0.058   1.310  1.00  0.00    -0.399 OA
HETATM   28  H   LIG     1       7.924   0.923   1.319  1.00  0.00     0.209 HD
ENDBRANCH  26  27
ENDBRANCH  25  26
ENDBRANCH  22  25
ENDBRANCH  18  19
ENDBRANCH  17  18
ENDBRANCH  16  17
ENDBRANCH  15  16
TORSDOF 7
