MODEL 1
REMARK VINA RESULT:      -9.7      0.000      0.000
REMARK  4 active torsions:
REMARK  status: ('A' for Active; 'I' for Inactive)
REMARK    1  A    between atoms: N_2  and  C_4 
REMARK    2  A    between atoms: C_4  and  C_5 
REMARK    3  A    between atoms: C_5  and  C_6 
REMARK    4  A    between atoms: C_6  and  N_7 
ROOT
HETATM    1  N   LIG     1      16.914  36.326  22.161  1.00  0.00    -0.345 N 
HETATM    2  C   LIG     1      17.696  37.231  21.348  1.00  0.00     0.052 A 
HETATM    3  C   LIG     1      18.101  38.471  21.882  1.00  0.00     0.032 A 
HETATM    4  C   LIG     1      19.011  39.278  21.191  1.00  0.00     0.021 A 
HETATM    5  C   LIG     1      19.498  38.873  19.946  1.00  0.00     0.002 A 
HETATM    6  C   LIG     1      19.081  37.661  19.393  1.00  0.00     0.002 A 
HETATM    7  C   LIG     1      18.191  36.839  20.091  1.00  0.00     0.031 A 
HETATM    8  S   LIG     1      17.360  39.064  23.403  1.00  0.00    -0.086 SA
HETATM    9  C   LIG     1      17.549  37.491  24.242  1.00  0.00     0.032 A 
HETATM   10  C   LIG     1      17.162  36.306  23.586  1.00  0.00     0.052 A 
HETATM   11  C   LIG     1      17.147  35.099  24.309  1.00  0.00     0.031 A 
HETATM   12  C   LIG     1      17.549  35.075  25.648  1.00  0.00     0.002 A 
HETATM   13  C   LIG     1      17.975  36.248  26.276  1.00  0.00     0.002 A 
HETATM   14  C   LIG     1      17.972  37.457  25.574  1.00  0.00     0.021 A 
ENDROOT
BRANCH   1  15
HETATM   15  C   LIG     1      15.782  35.577  21.595  1.00  0.00     0.131 C 
BRANCH  15  16
HETATM   16  C   LIG     1      16.246  34.291  20.881  1.00  0.00     0.050 C 
BRANCH  16  17
HETATM   17  C   LIG     1      15.045  33.416  20.462  1.00  0.00     0.273 C 
BRANCH  17  18
HETATM   18  N   LIG     1      15.400  32.259  19.609  1.00  0.00     0.080 N 
HETATM   19  C   LIG     1      14.872  30.984  20.120  1.00  0.00     0.309 C 
HETATM   20  C   LIG     1      15.046  32.456  18.195  1.00  0.00     0.309 C 
ENDBRANCH  17  18
ENDBRANCH  16  17
ENDBRANCH  15  16
ENDBRANCH   1  15
TORSDOF 4
ENDMDL
