REMARK  4 active torsions:
REMARK  status: ('A' for Active; 'I' for Inactive)
REMARK    1  A    between atoms: N_2  and  C_4 
REMARK    2  A    between atoms: C_4  and  C_5 
REMARK    3  A    between atoms: C_5  and  C_6 
REMARK    4  A    between atoms: C_6  and  N_7 
ROOT
HETATM    1  N   LIG     1      -0.937   0.344  -0.541  1.00  0.00    -0.345 N 
HETATM    2  C   LIG     1      -1.747   1.249   0.245  1.00  0.00     0.052 A 
HETATM    3  C   LIG     1      -3.148   1.239   0.091  1.00  0.00     0.032 A 
HETATM    4  C   LIG     1      -3.963   1.963   0.967  1.00  0.00     0.021 A 
HETATM    5  C   LIG     1      -3.389   2.730   1.983  1.00  0.00     0.002 A 
HETATM    6  C   LIG     1      -2.001   2.771   2.127  1.00  0.00     0.002 A 
HETATM    7  C   LIG     1      -1.182   2.030   1.270  1.00  0.00     0.031 A 
HETATM    8  S   LIG     1      -3.879   0.382  -1.304  1.00  0.00    -0.086 SA
HETATM    9  C   LIG     1      -2.876  -1.086  -1.073  1.00  0.00     0.032 A 
HETATM   10  C   LIG     1      -1.489  -0.952  -0.869  1.00  0.00     0.052 A 
HETATM   11  C   LIG     1      -0.685  -2.106  -0.864  1.00  0.00     0.031 A 
HETATM   12  C   LIG     1      -1.264  -3.369  -1.021  1.00  0.00     0.002 A 
HETATM   13  C   LIG     1      -2.647  -3.494  -1.177  1.00  0.00     0.002 A 
HETATM   14  C   LIG     1      -3.453  -2.353  -1.206  1.00  0.00     0.021 A 
ENDROOT
BRANCH   1  15
HETATM   15  C   LIG     1       0.332   0.783  -1.141  1.00  0.00     0.131 C 
BRANCH  15  16
HETATM   16  C   LIG     1       1.530   0.511  -0.209  1.00  0.00     0.050 C 
BRANCH  16  17
HETATM   17  C   LIG     1       2.783   0.096  -1.010  1.00  0.00     0.273 C 
BRANCH  17  18
HETATM   18  N   LIG     1       3.975  -0.184  -0.178  1.00  0.00     0.080 N 
HETATM   19  C   LIG     1       4.452   0.996   0.561  1.00  0.00     0.309 C 
HETATM   20  C   LIG     1       3.794  -1.337   0.717  1.00  0.00     0.309 C 
ENDBRANCH  17  18
ENDBRANCH  16  17
ENDBRANCH  15  16
ENDBRANCH   1  15
TORSDOF 4
