MODEL 1
REMARK VINA RESULT:      -5.9      0.000      0.000
REMARK  6 active torsions:
REMARK  status: ('A' for Active; 'I' for Inactive)
REMARK    1  A    between atoms: O6_1  and  C6_2 
REMARK    2  A    between atoms: N9_10  and  C1*_11 
REMARK    3  A    between atoms: C2*_12  and  O2*_13 
REMARK    4  A    between atoms: C3*_14  and  O3*_15 
REMARK    5  A    between atoms: C4*_16  and  C5*_17 
REMARK    6  A    between atoms: C5*_17  and  O5*_18 
ROOT
ATOM      1  C1*   I A   1      17.324  33.272  14.441  1.00  0.00     0.262 C 
ATOM      2  C2*   I A   1      16.875  34.549  13.720  1.00  0.00     0.198 C 
ATOM      3  C3*   I A   1      17.419  34.361  12.328  1.00  0.00     0.182 C 
ATOM      4  C4*   I A   1      18.573  33.379  12.531  1.00  0.00     0.179 C 
ATOM      5  O4*   I A   1      18.269  32.578  13.651  1.00  0.00    -0.353 OA
ENDROOT
BRANCH   1   6
ATOM      6  N9    I A   1      16.174  32.404  14.713  1.00  0.00    -0.294 N 
ATOM      7  C4    I A   1      15.483  32.255  15.851  1.00  0.00     0.167 A 
ATOM      8  N3    I A   1      15.643  32.929  17.015  1.00  0.00    -0.221 NA
ATOM      9  C5    I A   1      14.563  31.276  15.696  1.00  0.00     0.156 A 
ATOM     10  C2    I A   1      14.827  32.601  18.063  1.00  0.00     0.238 A 
ATOM     11  N1    I A   1      13.884  31.613  17.929  1.00  0.00    -0.216 NA
ATOM     12  C6    I A   1      13.730  30.932  16.755  1.00  0.00     0.196 A 
ATOM     13  N7    I A   1      14.636  30.750  14.458  1.00  0.00    -0.235 NA
ATOM     14  C8    I A   1      15.643  31.467  13.887  1.00  0.00     0.214 A 
BRANCH  12  15
ATOM     15  O6    I A   1      12.771  29.929  16.644  1.00  0.00    -0.343 OA
ATOM     16  H6    I A   1      13.004  28.955  16.797  1.00  0.00     0.219 HD
ENDBRANCH  12  15
ENDBRANCH   1   6
BRANCH   2  17
ATOM     17  O2*   I A   1      17.444  35.680  14.329  1.00  0.00    -0.388 OA
ATOM     18  H2*   I A   1      17.211  35.629  15.293  1.00  0.00     0.210 HD
ENDBRANCH   2  17
BRANCH   3  19
ATOM     19  O3*   I A   1      17.818  35.578  11.749  1.00  0.00    -0.390 OA
ATOM     20  H3*   I A   1      18.366  36.048  12.432  1.00  0.00     0.210 HD
ENDBRANCH   3  19
BRANCH   4  21
ATOM     21  C5*   I A   1      19.937  34.056  12.743  1.00  0.00     0.198 C 
BRANCH  21  22
ATOM     22  O5*   I A   1      20.454  34.469  11.508  1.00  0.00    -0.398 OA
ATOM     23  H5*   I A   1      21.374  34.796  11.689  1.00  0.00     0.209 HD
ENDBRANCH  21  22
ENDBRANCH   4  21
TORSDOF 6
ENDMDL
MODEL 2
REMARK VINA RESULT:      -5.8      8.446     11.012
REMARK  6 active torsions:
REMARK  status: ('A' for Active; 'I' for Inactive)
REMARK    1  A    between atoms: O6_1  and  C6_2 
REMARK    2  A    between atoms: N9_10  and  C1*_11 
REMARK    3  A    between atoms: C2*_12  and  O2*_13 
REMARK    4  A    between atoms: C3*_14  and  O3*_15 
REMARK    5  A    between atoms: C4*_16  and  C5*_17 
REMARK    6  A    between atoms: C5*_17  and  O5*_18 
ROOT
ATOM      1  C1*   I A   1      16.945  36.475  23.841  1.00  0.00     0.262 C 
ATOM      2  C2*   I A   1      17.645  37.554  24.676  1.00  0.00     0.198 C 
ATOM      3  C3*   I A   1      18.632  36.764  25.495  1.00  0.00     0.182 C 
ATOM      4  C4*   I A   1      18.024  35.361  25.520  1.00  0.00     0.179 C 
ATOM      5  O4*   I A   1      17.274  35.192  24.337  1.00  0.00    -0.353 OA
ENDROOT
BRANCH   1   6
ATOM      6  N9    I A   1      17.343  36.577  22.434  1.00  0.00    -0.294 N 
ATOM      7  C4    I A   1      17.887  37.616  21.787  1.00  0.00     0.167 A 
ATOM      8  N3    I A   1      18.268  38.810  22.302  1.00  0.00    -0.221 NA
ATOM      9  C5    I A   1      18.001  37.321  20.471  1.00  0.00     0.156 A 
ATOM     10  C2    I A   1      18.794  39.738  21.447  1.00  0.00     0.238 A 
ATOM     11  N1    I A   1      18.922  39.461  20.110  1.00  0.00    -0.216 NA
ATOM     12  C6    I A   1      18.532  38.258  19.593  1.00  0.00     0.196 A 
ATOM     13  N7    I A   1      17.522  36.087  20.222  1.00  0.00    -0.235 NA
ATOM     14  C8    I A   1      17.121  35.666  21.453  1.00  0.00     0.214 A 
BRANCH  12  15
ATOM     15  O6    I A   1      18.665  38.000  18.231  1.00  0.00    -0.343 OA
ATOM     16  H6    I A   1      18.315  37.144  17.818  1.00  0.00     0.219 HD
ENDBRANCH  12  15
ENDBRANCH   1   6
BRANCH   2  17
ATOM     17  O2*   I A   1      16.718  38.207  25.507  1.00  0.00    -0.388 OA
ATOM     18  H2*   I A   1      16.900  39.180  25.423  1.00  0.00     0.210 HD
ENDBRANCH   2  17
BRANCH   3  19
ATOM     19  O3*   I A   1      18.817  37.314  26.775  1.00  0.00    -0.390 OA
ATOM     20  H3*   I A   1      19.666  36.934  27.123  1.00  0.00     0.210 HD
ENDBRANCH   3  19
BRANCH   4  21
ATOM     21  C5*   I A   1      17.124  35.094  26.737  1.00  0.00     0.198 C 
BRANCH  21  22
ATOM     22  O5*   I A   1      16.187  34.101  26.421  1.00  0.00    -0.398 OA
ATOM     23  H5*   I A   1      16.091  34.117  25.433  1.00  0.00     0.209 HD
ENDBRANCH  21  22
ENDBRANCH   4  21
TORSDOF 6
ENDMDL
MODEL 3
REMARK VINA RESULT:      -5.7      8.528     11.141
REMARK  6 active torsions:
REMARK  status: ('A' for Active; 'I' for Inactive)
REMARK    1  A    between atoms: O6_1  and  C6_2 
REMARK    2  A    between atoms: N9_10  and  C1*_11 
REMARK    3  A    between atoms: C2*_12  and  O2*_13 
REMARK    4  A    between atoms: C3*_14  and  O3*_15 
REMARK    5  A    between atoms: C4*_16  and  C5*_17 
REMARK    6  A    between atoms: C5*_17  and  O5*_18 
ROOT
ATOM      1  C1*   I A   1      17.111  37.540  23.695  1.00  0.00     0.262 C 
ATOM      2  C2*   I A   1      17.736  38.088  24.984  1.00  0.00     0.198 C 
ATOM      3  C3*   I A   1      18.576  36.935  25.470  1.00  0.00     0.182 C 
ATOM      4  C4*   I A   1      17.915  35.720  24.819  1.00  0.00     0.179 C 
ATOM      5  O4*   I A   1      17.320  36.144  23.612  1.00  0.00    -0.353 OA
ENDROOT
BRANCH   1   6
ATOM      6  N9    I A   1      17.692  38.197  22.522  1.00  0.00    -0.294 N 
ATOM      7  C4    I A   1      17.871  37.710  21.287  1.00  0.00     0.167 A 
ATOM      8  N3    I A   1      17.489  36.502  20.806  1.00  0.00    -0.221 NA
ATOM      9  C5    I A   1      18.538  38.616  20.535  1.00  0.00     0.156 A 
ATOM     10  C2    I A   1      17.789  36.206  19.505  1.00  0.00     0.238 A 
ATOM     11  N1    I A   1      18.462  37.110  18.722  1.00  0.00    -0.216 NA
ATOM     12  C6    I A   1      18.850  38.325  19.212  1.00  0.00     0.196 A 
ATOM     13  N7    I A   1      18.824  39.713  21.261  1.00  0.00    -0.235 NA
ATOM     14  C8    I A   1      18.293  39.414  22.478  1.00  0.00     0.214 A 
BRANCH  12  15
ATOM     15  O6    I A   1      19.537  39.224  18.401  1.00  0.00    -0.343 OA
ATOM     16  H6    I A   1      20.063  39.996  18.794  1.00  0.00     0.219 HD
ENDBRANCH  12  15
ENDBRANCH   1   6
BRANCH   2  17
ATOM     17  O2*   I A   1      16.736  38.405  25.918  1.00  0.00    -0.388 OA
ATOM     18  H2*   I A   1      17.175  38.419  26.808  1.00  0.00     0.210 HD
ENDBRANCH   2  17
BRANCH   3  19
ATOM     19  O3*   I A   1      18.613  36.865  26.874  1.00  0.00    -0.390 OA
ATOM     20  H3*   I A   1      17.762  36.437  27.155  1.00  0.00     0.210 HD
ENDBRANCH   3  19
BRANCH   4  21
ATOM     21  C5*   I A   1      16.853  35.041  25.700  1.00  0.00     0.198 C 
BRANCH  21  22
ATOM     22  O5*   I A   1      17.482  34.336  26.735  1.00  0.00    -0.398 OA
ATOM     23  H5*   I A   1      18.105  33.699  26.296  1.00  0.00     0.209 HD
ENDBRANCH  21  22
ENDBRANCH   4  21
TORSDOF 6
ENDMDL
MODEL 4
REMARK VINA RESULT:      -5.7      7.331      9.628
REMARK  6 active torsions:
REMARK  status: ('A' for Active; 'I' for Inactive)
REMARK    1  A    between atoms: O6_1  and  C6_2 
REMARK    2  A    between atoms: N9_10  and  C1*_11 
REMARK    3  A    between atoms: C2*_12  and  O2*_13 
REMARK    4  A    between atoms: C3*_14  and  O3*_15 
REMARK    5  A    between atoms: C4*_16  and  C5*_17 
REMARK    6  A    between atoms: C5*_17  and  O5*_18 
ROOT
ATOM      1  C1*   I A   1      17.042  35.542  21.584  1.00  0.00     0.262 C 
ATOM      2  C2*   I A   1      16.556  36.064  20.227  1.00  0.00     0.198 C 
ATOM      3  C3*   I A   1      15.183  35.457  20.102  1.00  0.00     0.182 C 
ATOM      4  C4*   I A   1      15.252  34.237  21.022  1.00  0.00     0.179 C 
ATOM      5  O4*   I A   1      16.183  34.518  22.044  1.00  0.00    -0.353 OA
ENDROOT
BRANCH   1   6
ATOM      6  N9    I A   1      17.085  36.629  22.567  1.00  0.00    -0.294 N 
ATOM      7  C4    I A   1      17.309  36.562  23.886  1.00  0.00     0.167 A 
ATOM      8  N3    I A   1      17.621  35.468  24.622  1.00  0.00    -0.221 NA
ATOM      9  C5    I A   1      17.159  37.790  24.433  1.00  0.00     0.156 A 
ATOM     10  C2    I A   1      17.796  35.631  25.969  1.00  0.00     0.238 A 
ATOM     11  N1    I A   1      17.651  36.867  26.546  1.00  0.00    -0.216 NA
ATOM     12  C6    I A   1      17.331  37.966  25.801  1.00  0.00     0.196 A 
ATOM     13  N7    I A   1      16.820  38.689  23.490  1.00  0.00    -0.235 NA
ATOM     14  C8    I A   1      16.779  37.935  22.357  1.00  0.00     0.214 A 
BRANCH  12  15
ATOM     15  O6    I A   1      17.183  39.210  26.410  1.00  0.00    -0.343 OA
ATOM     16  H6    I A   1      17.975  39.825  26.555  1.00  0.00     0.219 HD
ENDBRANCH  12  15
ENDBRANCH   1   6
BRANCH   2  17
ATOM     17  O2*   I A   1      17.398  35.608  19.197  1.00  0.00    -0.388 OA
ATOM     18  H2*   I A   1      17.021  34.744  18.887  1.00  0.00     0.210 HD
ENDBRANCH   2  17
BRANCH   3  19
ATOM     19  O3*   I A   1      14.867  35.135  18.771  1.00  0.00    -0.390 OA
ATOM     20  H3*   I A   1      14.017  34.621  18.801  1.00  0.00     0.210 HD
ENDBRANCH   3  19
BRANCH   4  21
ATOM     21  C5*   I A   1      15.658  32.939  20.305  1.00  0.00     0.198 C 
BRANCH  21  22
ATOM     22  O5*   I A   1      14.539  32.381  19.673  1.00  0.00    -0.398 OA
ATOM     23  H5*   I A   1      14.030  31.907  20.381  1.00  0.00     0.209 HD
ENDBRANCH  21  22
ENDBRANCH   4  21
TORSDOF 6
ENDMDL
MODEL 5
REMARK VINA RESULT:      -5.6      7.533      9.860
REMARK  6 active torsions:
REMARK  status: ('A' for Active; 'I' for Inactive)
REMARK    1  A    between atoms: O6_1  and  C6_2 
REMARK    2  A    between atoms: N9_10  and  C1*_11 
REMARK    3  A    between atoms: C2*_12  and  O2*_13 
REMARK    4  A    between atoms: C3*_14  and  O3*_15 
REMARK    5  A    between atoms: C4*_16  and  C5*_17 
REMARK    6  A    between atoms: C5*_17  and  O5*_18 
ROOT
ATOM      1  C1*   I A   1      16.288  36.636  21.643  1.00  0.00     0.262 C 
ATOM      2  C2*   I A   1      15.022  35.882  22.067  1.00  0.00     0.198 C 
ATOM      3  C3*   I A   1      15.323  34.461  21.664  1.00  0.00     0.182 C 
ATOM      4  C4*   I A   1      16.375  34.622  20.567  1.00  0.00     0.179 C 
ATOM      5  O4*   I A   1      17.091  35.810  20.823  1.00  0.00    -0.353 OA
ENDROOT
BRANCH   1   6
ATOM      6  N9    I A   1      17.053  37.057  22.821  1.00  0.00    -0.294 N 
ATOM      7  C4    I A   1      17.335  36.364  23.932  1.00  0.00     0.167 A 
ATOM      8  N3    I A   1      17.035  35.071  24.205  1.00  0.00    -0.221 NA
ATOM      9  C5    I A   1      17.979  37.164  24.813  1.00  0.00     0.156 A 
ATOM     10  C2    I A   1      17.412  34.568  25.419  1.00  0.00     0.238 A 
ATOM     11  N1    I A   1      18.069  35.360  26.328  1.00  0.00    -0.216 NA
ATOM     12  C6    I A   1      18.365  36.665  26.051  1.00  0.00     0.196 A 
ATOM     13  N7    I A   1      18.123  38.404  24.307  1.00  0.00    -0.235 NA
ATOM     14  C8    I A   1      17.535  38.298  23.083  1.00  0.00     0.214 A 
BRANCH  12  15
ATOM     15  O6    I A   1      19.026  37.451  26.991  1.00  0.00    -0.343 OA
ATOM     16  H6    I A   1      19.705  37.053  27.629  1.00  0.00     0.219 HD
ENDBRANCH  12  15
ENDBRANCH   1   6
BRANCH   2  17
ATOM     17  O2*   I A   1      13.904  36.371  21.370  1.00  0.00    -0.388 OA
ATOM     18  H2*   I A   1      13.103  36.013  21.834  1.00  0.00     0.210 HD
ENDBRANCH   2  17
BRANCH   3  19
ATOM     19  O3*   I A   1      14.170  33.779  21.237  1.00  0.00    -0.390 OA
ATOM     20  H3*   I A   1      13.625  33.614  22.051  1.00  0.00     0.210 HD
ENDBRANCH   3  19
BRANCH   4  21
ATOM     21  C5*   I A   1      15.789  34.676  19.146  1.00  0.00     0.198 C 
BRANCH  21  22
ATOM     22  O5*   I A   1      15.340  33.402  18.775  1.00  0.00    -0.398 OA
ATOM     23  H5*   I A   1      15.442  32.827  19.578  1.00  0.00     0.209 HD
ENDBRANCH  21  22
ENDBRANCH   4  21
TORSDOF 6
ENDMDL
MODEL 6
REMARK VINA RESULT:      -5.6      4.944      7.450
REMARK  6 active torsions:
REMARK  status: ('A' for Active; 'I' for Inactive)
REMARK    1  A    between atoms: O6_1  and  C6_2 
REMARK    2  A    between atoms: N9_10  and  C1*_11 
REMARK    3  A    between atoms: C2*_12  and  O2*_13 
REMARK    4  A    between atoms: C3*_14  and  O3*_15 
REMARK    5  A    between atoms: C4*_16  and  C5*_17 
REMARK    6  A    between atoms: C5*_17  and  O5*_18 
ROOT
ATOM      1  C1*   I A   1      15.858  35.262  20.449  1.00  0.00     0.262 C 
ATOM      2  C2*   I A   1      17.052  35.051  21.387  1.00  0.00     0.198 C 
ATOM      3  C3*   I A   1      16.467  35.325  22.748  1.00  0.00     0.182 C 
ATOM      4  C4*   I A   1      15.259  36.210  22.440  1.00  0.00     0.179 C 
ATOM      5  O4*   I A   1      14.796  35.878  21.149  1.00  0.00    -0.353 OA
ENDROOT
BRANCH   1   6
ATOM      6  N9    I A   1      15.408  33.982  19.894  1.00  0.00    -0.294 N 
ATOM      7  C4    I A   1      15.252  33.629  18.611  1.00  0.00     0.167 A 
ATOM      8  N3    I A   1      15.544  34.358  17.507  1.00  0.00    -0.221 NA
ATOM      9  C5    I A   1      14.718  32.388  18.545  1.00  0.00     0.156 A 
ATOM     10  C2    I A   1      15.290  33.799  16.285  1.00  0.00     0.238 A 
ATOM     11  N1    I A   1      14.751  32.541  16.192  1.00  0.00    -0.216 NA
ATOM     12  C6    I A   1      14.453  31.811  17.309  1.00  0.00     0.196 A 
ATOM     13  N7    I A   1      14.498  31.902  19.782  1.00  0.00    -0.235 NA
ATOM     14  C8    I A   1      14.929  32.915  20.583  1.00  0.00     0.214 A 
BRANCH  12  15
ATOM     15  O6    I A   1      13.901  30.538  17.191  1.00  0.00    -0.343 OA
ATOM     16  H6    I A   1      14.288  29.746  17.689  1.00  0.00     0.219 HD
ENDBRANCH  12  15
ENDBRANCH   1   6
BRANCH   2  17
ATOM     17  O2*   I A   1      18.076  35.967  21.091  1.00  0.00    -0.388 OA
ATOM     18  H2*   I A   1      17.943  36.243  20.147  1.00  0.00     0.210 HD
ENDBRANCH   2  17
BRANCH   3  19
ATOM     19  O3*   I A   1      17.397  35.930  23.611  1.00  0.00    -0.390 OA
ATOM     20  H3*   I A   1      17.165  36.895  23.640  1.00  0.00     0.210 HD
ENDBRANCH   3  19
BRANCH   4  21
ATOM     21  C5*   I A   1      15.561  37.717  22.501  1.00  0.00     0.198 C 
BRANCH  21  22
ATOM     22  O5*   I A   1      15.472  38.160  23.827  1.00  0.00    -0.398 OA
ATOM     23  H5*   I A   1      14.598  37.838  24.169  1.00  0.00     0.209 HD
ENDBRANCH  21  22
ENDBRANCH   4  21
TORSDOF 6
ENDMDL
MODEL 7
REMARK VINA RESULT:      -5.5      5.616      8.327
REMARK  6 active torsions:
REMARK  status: ('A' for Active; 'I' for Inactive)
REMARK    1  A    between atoms: O6_1  and  C6_2 
REMARK    2  A    between atoms: N9_10  and  C1*_11 
REMARK    3  A    between atoms: C2*_12  and  O2*_13 
REMARK    4  A    between atoms: C3*_14  and  O3*_15 
REMARK    5  A    between atoms: C4*_16  and  C5*_17 
REMARK    6  A    between atoms: C5*_17  and  O5*_18 
ROOT
ATOM      1  C1*   I A   1      15.444  35.006  19.993  1.00  0.00     0.262 C 
ATOM      2  C2*   I A   1      15.384  33.757  20.881  1.00  0.00     0.198 C 
ATOM      3  C3*   I A   1      15.894  32.669  19.971  1.00  0.00     0.182 C 
ATOM      4  C4*   I A   1      15.622  33.225  18.572  1.00  0.00     0.179 C 
ATOM      5  O4*   I A   1      15.668  34.632  18.648  1.00  0.00    -0.353 OA
ENDROOT
BRANCH   1   6
ATOM      6  N9    I A   1      16.511  35.904  20.442  1.00  0.00    -0.294 N 
ATOM      7  C4    I A   1      16.511  36.763  21.470  1.00  0.00     0.167 A 
ATOM      8  N3    I A   1      15.537  36.957  22.392  1.00  0.00    -0.221 NA
ATOM      9  C5    I A   1      17.664  37.472  21.467  1.00  0.00     0.156 A 
ATOM     10  C2    I A   1      15.747  37.904  23.355  1.00  0.00     0.238 A 
ATOM     11  N1    I A   1      16.908  38.634  23.375  1.00  0.00    -0.216 NA
ATOM     12  C6    I A   1      17.886  38.439  22.440  1.00  0.00     0.196 A 
ATOM     13  N7    I A   1      18.441  37.106  20.430  1.00  0.00    -0.235 NA
ATOM     14  C8    I A   1      17.694  36.144  19.821  1.00  0.00     0.214 A 
BRANCH  12  15
ATOM     15  O6    I A   1      19.054  39.196  22.475  1.00  0.00    -0.343 OA
ATOM     16  H6    I A   1      19.330  39.780  21.695  1.00  0.00     0.219 HD
ENDBRANCH  12  15
ENDBRANCH   1   6
BRANCH   2  17
ATOM     17  O2*   I A   1      14.060  33.498  21.274  1.00  0.00    -0.388 OA
ATOM     18  H2*   I A   1      13.864  34.114  22.027  1.00  0.00     0.210 HD
ENDBRANCH   2  17
BRANCH   3  19
ATOM     19  O3*   I A   1      15.262  31.438  20.215  1.00  0.00    -0.390 OA
ATOM     20  H3*   I A   1      15.520  30.837  19.466  1.00  0.00     0.210 HD
ENDBRANCH   3  19
BRANCH   4  21
ATOM     21  C5*   I A   1      14.269  32.790  17.983  1.00  0.00     0.198 C 
BRANCH  21  22
ATOM     22  O5*   I A   1      13.897  33.673  16.961  1.00  0.00    -0.398 OA
ATOM     23  H5*   I A   1      13.124  34.190  17.309  1.00  0.00     0.209 HD
ENDBRANCH  21  22
ENDBRANCH   4  21
TORSDOF 6
ENDMDL
MODEL 8
REMARK VINA RESULT:      -5.5      6.503      8.753
REMARK  6 active torsions:
REMARK  status: ('A' for Active; 'I' for Inactive)
REMARK    1  A    between atoms: O6_1  and  C6_2 
REMARK    2  A    between atoms: N9_10  and  C1*_11 
REMARK    3  A    between atoms: C2*_12  and  O2*_13 
REMARK    4  A    between atoms: C3*_14  and  O3*_15 
REMARK    5  A    between atoms: C4*_16  and  C5*_17 
REMARK    6  A    between atoms: C5*_17  and  O5*_18 
ROOT
ATOM      1  C1*   I A   1      15.825  35.966  22.654  1.00  0.00     0.262 C 
ATOM      2  C2*   I A   1      15.760  37.496  22.578  1.00  0.00     0.198 C 
ATOM      3  C3*   I A   1      17.140  37.916  23.012  1.00  0.00     0.182 C 
ATOM      4  C4*   I A   1      17.628  36.724  23.836  1.00  0.00     0.179 C 
ATOM      5  O4*   I A   1      16.995  35.566  23.339  1.00  0.00    -0.353 OA
ENDROOT
BRANCH   1   6
ATOM      6  N9    I A   1      15.816  35.384  21.309  1.00  0.00    -0.294 N 
ATOM      7  C4    I A   1      15.314  34.209  20.904  1.00  0.00     0.167 A 
ATOM      8  N3    I A   1      14.627  33.301  21.638  1.00  0.00    -0.221 NA
ATOM      9  C5    I A   1      15.611  34.017  19.598  1.00  0.00     0.156 A 
ATOM     10  C2    I A   1      14.217  32.154  21.017  1.00  0.00     0.238 A 
ATOM     11  N1    I A   1      14.503  31.938  19.693  1.00  0.00    -0.216 NA
ATOM     12  C6    I A   1      15.202  32.854  18.958  1.00  0.00     0.196 A 
ATOM     13  N7    I A   1      16.325  35.053  19.119  1.00  0.00    -0.235 NA
ATOM     14  C8    I A   1      16.435  35.869  20.203  1.00  0.00     0.214 A 
BRANCH  12  15
ATOM     15  O6    I A   1      15.487  32.610  17.616  1.00  0.00    -0.343 OA
ATOM     16  H6    I A   1      15.490  31.670  17.239  1.00  0.00     0.219 HD
ENDBRANCH  12  15
ENDBRANCH   1   6
BRANCH   2  17
ATOM     17  O2*   I A   1      14.787  37.990  23.463  1.00  0.00    -0.388 OA
ATOM     18  H2*   I A   1      15.278  38.458  24.189  1.00  0.00     0.210 HD
ENDBRANCH   2  17
BRANCH   3  19
ATOM     19  O3*   I A   1      17.123  39.123  23.733  1.00  0.00    -0.390 OA
ATOM     20  H3*   I A   1      18.072  39.392  23.853  1.00  0.00     0.210 HD
ENDBRANCH   3  19
BRANCH   4  21
ATOM     21  C5*   I A   1      17.346  36.853  25.343  1.00  0.00     0.198 C 
BRANCH  21  22
ATOM     22  O5*   I A   1      18.342  37.635  25.942  1.00  0.00    -0.398 OA
ATOM     23  H5*   I A   1      18.209  37.549  26.922  1.00  0.00     0.209 HD
ENDBRANCH  21  22
ENDBRANCH   4  21
TORSDOF 6
ENDMDL
MODEL 9
REMARK VINA RESULT:      -5.5      0.941      2.071
REMARK  6 active torsions:
REMARK  status: ('A' for Active; 'I' for Inactive)
REMARK    1  A    between atoms: O6_1  and  C6_2 
REMARK    2  A    between atoms: N9_10  and  C1*_11 
REMARK    3  A    between atoms: C2*_12  and  O2*_13 
REMARK    4  A    between atoms: C3*_14  and  O3*_15 
REMARK    5  A    between atoms: C4*_16  and  C5*_17 
REMARK    6  A    between atoms: C5*_17  and  O5*_18 
ROOT
ATOM      1  C1*   I A   1      17.243  33.496  15.164  1.00  0.00     0.262 C 
ATOM      2  C2*   I A   1      16.787  34.733  14.381  1.00  0.00     0.198 C 
ATOM      3  C3*   I A   1      17.084  34.358  12.952  1.00  0.00     0.182 C 
ATOM      4  C4*   I A   1      18.173  33.293  13.087  1.00  0.00     0.179 C 
ATOM      5  O4*   I A   1      17.990  32.639  14.324  1.00  0.00    -0.353 OA
ENDROOT
BRANCH   1   6
ATOM      6  N9    I A   1      16.085  32.774  15.702  1.00  0.00    -0.294 N 
ATOM      7  C4    I A   1      15.438  31.720  15.188  1.00  0.00     0.167 A 
ATOM      8  N3    I A   1      15.745  31.020  14.069  1.00  0.00    -0.221 NA
ATOM      9  C5    I A   1      14.362  31.432  15.955  1.00  0.00     0.156 A 
ATOM     10  C2    I A   1      14.930  29.978  13.721  1.00  0.00     0.238 A 
ATOM     11  N1    I A   1      13.835  29.665  14.485  1.00  0.00    -0.216 NA
ATOM     12  C6    I A   1      13.525  30.377  15.610  1.00  0.00     0.196 A 
ATOM     13  N7    I A   1      14.270  32.297  16.984  1.00  0.00    -0.235 NA
ATOM     14  C8    I A   1      15.344  33.110  16.789  1.00  0.00     0.214 A 
BRANCH  12  15
ATOM     15  O6    I A   1      12.404  30.045  16.367  1.00  0.00    -0.343 OA
ATOM     16  H6    I A   1      12.462  29.922  17.371  1.00  0.00     0.219 HD
ENDBRANCH  12  15
ENDBRANCH   1   6
BRANCH   2  17
ATOM     17  O2*   I A   1      17.535  35.859  14.766  1.00  0.00    -0.388 OA
ATOM     18  H2*   I A   1      17.412  35.957  15.747  1.00  0.00     0.210 HD
ENDBRANCH   2  17
BRANCH   3  19
ATOM     19  O3*   I A   1      17.481  35.468  12.187  1.00  0.00    -0.390 OA
ATOM     20  H3*   I A   1      17.148  35.305  11.265  1.00  0.00     0.210 HD
ENDBRANCH   3  19
BRANCH   4  21
ATOM     21  C5*   I A   1      19.603  33.853  13.013  1.00  0.00     0.198 C 
BRANCH  21  22
ATOM     22  O5*   I A   1      19.951  34.079  11.675  1.00  0.00    -0.398 OA
ATOM     23  H5*   I A   1      20.750  34.667  11.693  1.00  0.00     0.209 HD
ENDBRANCH  21  22
ENDBRANCH   4  21
TORSDOF 6
ENDMDL
MODEL 10
REMARK VINA RESULT:      -5.2      1.914      2.837
REMARK  6 active torsions:
REMARK  status: ('A' for Active; 'I' for Inactive)
REMARK    1  A    between atoms: O6_1  and  C6_2 
REMARK    2  A    between atoms: N9_10  and  C1*_11 
REMARK    3  A    between atoms: C2*_12  and  O2*_13 
REMARK    4  A    between atoms: C3*_14  and  O3*_15 
REMARK    5  A    between atoms: C4*_16  and  C5*_17 
REMARK    6  A    between atoms: C5*_17  and  O5*_18 
ROOT
ATOM      1  C1*   I A   1      18.849  33.285  13.391  1.00  0.00     0.262 C 
ATOM      2  C2*   I A   1      19.366  34.618  12.837  1.00  0.00     0.198 C 
ATOM      3  C3*   I A   1      18.851  34.619  11.421  1.00  0.00     0.182 C 
ATOM      4  C4*   I A   1      18.646  33.134  11.120  1.00  0.00     0.179 C 
ATOM      5  O4*   I A   1      18.359  32.480  12.337  1.00  0.00    -0.353 OA
ENDROOT
BRANCH   1   6
ATOM      6  N9    I A   1      17.785  33.515  14.373  1.00  0.00    -0.294 N 
ATOM      7  C4    I A   1      16.798  32.692  14.752  1.00  0.00     0.167 A 
ATOM      8  N3    I A   1      16.587  31.412  14.363  1.00  0.00    -0.221 NA
ATOM      9  C5    I A   1      15.973  33.339  15.607  1.00  0.00     0.156 A 
ATOM     10  C2    I A   1      15.499  30.758  14.872  1.00  0.00     0.238 A 
ATOM     11  N1    I A   1      14.650  31.392  15.743  1.00  0.00    -0.216 NA
ATOM     12  C6    I A   1      14.862  32.686  16.128  1.00  0.00     0.196 A 
ATOM     13  N7    I A   1      16.391  34.605  15.800  1.00  0.00    -0.235 NA
ATOM     14  C8    I A   1      17.504  34.675  15.019  1.00  0.00     0.214 A 
BRANCH  12  15
ATOM     15  O6    I A   1      13.984  33.311  17.009  1.00  0.00    -0.343 OA
ATOM     16  H6    I A   1      14.306  34.006  17.673  1.00  0.00     0.219 HD
ENDBRANCH  12  15
ENDBRANCH   1   6
BRANCH   2  17
ATOM     17  O2*   I A   1      20.771  34.644  12.856  1.00  0.00    -0.388 OA
ATOM     18  H2*   I A   1      21.075  33.893  12.282  1.00  0.00     0.210 HD
ENDBRANCH   2  17
BRANCH   3  19
ATOM     19  O3*   I A   1      19.742  35.250  10.536  1.00  0.00    -0.390 OA
ATOM     20  H3*   I A   1      19.876  34.621   9.778  1.00  0.00     0.210 HD
ENDBRANCH   3  19
BRANCH   4  21
ATOM     21  C5*   I A   1      19.857  32.461  10.453  1.00  0.00     0.198 C 
BRANCH  21  22
ATOM     22  O5*   I A   1      19.768  31.072  10.609  1.00  0.00    -0.398 OA
ATOM     23  H5*   I A   1      20.333  30.676   9.895  1.00  0.00     0.209 HD
ENDBRANCH  21  22
ENDBRANCH   4  21
TORSDOF 6
ENDMDL
MODEL 11
REMARK VINA RESULT:      -4.9      7.028      9.424
REMARK  6 active torsions:
REMARK  status: ('A' for Active; 'I' for Inactive)
REMARK    1  A    between atoms: O6_1  and  C6_2 
REMARK    2  A    between atoms: N9_10  and  C1*_11 
REMARK    3  A    between atoms: C2*_12  and  O2*_13 
REMARK    4  A    between atoms: C3*_14  and  O3*_15 
REMARK    5  A    between atoms: C4*_16  and  C5*_17 
REMARK    6  A    between atoms: C5*_17  and  O5*_18 
ROOT
ATOM      1  C1*   I A   1      16.968  34.853  21.704  1.00  0.00     0.262 C 
ATOM      2  C2*   I A   1      16.467  35.782  20.592  1.00  0.00     0.198 C 
ATOM      3  C3*   I A   1      15.093  35.241  20.291  1.00  0.00     0.182 C 
ATOM      4  C4*   I A   1      15.175  33.790  20.767  1.00  0.00     0.179 C 
ATOM      5  O4*   I A   1      16.116  33.731  21.816  1.00  0.00    -0.353 OA
ENDROOT
BRANCH   1   6
ATOM      6  N9    I A   1      17.019  35.565  22.984  1.00  0.00    -0.294 N 
ATOM      7  C4    I A   1      17.014  36.885  23.214  1.00  0.00     0.167 A 
ATOM      8  N3    I A   1      16.888  37.886  22.309  1.00  0.00    -0.221 NA
ATOM      9  C5    I A   1      17.178  37.115  24.537  1.00  0.00     0.156 A 
ATOM     10  C2    I A   1      16.922  39.173  22.769  1.00  0.00     0.238 A 
ATOM     11  N1    I A   1      17.085  39.431  24.107  1.00  0.00    -0.216 NA
ATOM     12  C6    I A   1      17.217  38.419  25.015  1.00  0.00     0.196 A 
ATOM     13  N7    I A   1      17.308  35.953  25.205  1.00  0.00    -0.235 NA
ATOM     14  C8    I A   1      17.212  35.024  24.214  1.00  0.00     0.214 A 
BRANCH  12  15
ATOM     15  O6    I A   1      17.387  38.705  26.367  1.00  0.00    -0.343 OA
ATOM     16  H6    I A   1      16.906  39.480  26.809  1.00  0.00     0.219 HD
ENDBRANCH  12  15
ENDBRANCH   1   6
BRANCH   2  17
ATOM     17  O2*   I A   1      17.298  35.688  19.463  1.00  0.00    -0.388 OA
ATOM     18  H2*   I A   1      17.219  36.553  18.982  1.00  0.00     0.210 HD
ENDBRANCH   2  17
BRANCH   3  19
ATOM     19  O3*   I A   1      14.764  35.364  18.930  1.00  0.00    -0.390 OA
ATOM     20  H3*   I A   1      13.906  35.864  18.894  1.00  0.00     0.210 HD
ENDBRANCH   3  19
BRANCH   4  21
ATOM     21  C5*   I A   1      15.576  32.795  19.665  1.00  0.00     0.198 C 
BRANCH  21  22
ATOM     22  O5*   I A   1      14.446  32.444  18.915  1.00  0.00    -0.398 OA
ATOM     23  H5*   I A   1      14.366  31.457  18.983  1.00  0.00     0.209 HD
ENDBRANCH  21  22
ENDBRANCH   4  21
TORSDOF 6
ENDMDL
MODEL 12
REMARK VINA RESULT:      -4.7      3.539      5.955
REMARK  6 active torsions:
REMARK  status: ('A' for Active; 'I' for Inactive)
REMARK    1  A    between atoms: O6_1  and  C6_2 
REMARK    2  A    between atoms: N9_10  and  C1*_11 
REMARK    3  A    between atoms: C2*_12  and  O2*_13 
REMARK    4  A    between atoms: C3*_14  and  O3*_15 
REMARK    5  A    between atoms: C4*_16  and  C5*_17 
REMARK    6  A    between atoms: C5*_17  and  O5*_18 
ROOT
ATOM      1  C1*   I A   1      13.713  29.644  13.955  1.00  0.00     0.262 C 
ATOM      2  C2*   I A   1      12.524  28.693  14.131  1.00  0.00     0.198 C 
ATOM      3  C3*   I A   1      13.187  27.361  14.365  1.00  0.00     0.182 C 
ATOM      4  C4*   I A   1      14.564  27.536  13.726  1.00  0.00     0.179 C 
ATOM      5  O4*   I A   1      14.907  28.902  13.802  1.00  0.00    -0.353 OA
ENDROOT
BRANCH   1   6
ATOM      6  N9    I A   1      13.832  30.538  15.111  1.00  0.00    -0.294 N 
ATOM      7  C4    I A   1      14.728  31.508  15.336  1.00  0.00     0.167 A 
ATOM      8  N3    I A   1      15.707  31.944  14.507  1.00  0.00    -0.221 NA
ATOM      9  C5    I A   1      14.540  32.019  16.574  1.00  0.00     0.156 A 
ATOM     10  C2    I A   1      16.523  32.948  14.951  1.00  0.00     0.238 A 
ATOM     11  N1    I A   1      16.350  33.484  16.202  1.00  0.00    -0.216 NA
ATOM     12  C6    I A   1      15.365  33.037  17.038  1.00  0.00     0.196 A 
ATOM     13  N7    I A   1      13.526  31.388  17.197  1.00  0.00    -0.235 NA
ATOM     14  C8    I A   1      13.122  30.480  16.266  1.00  0.00     0.214 A 
BRANCH  12  15
ATOM     15  O6    I A   1      15.213  33.592  18.306  1.00  0.00    -0.343 OA
ATOM     16  H6    I A   1      14.931  34.557  18.430  1.00  0.00     0.219 HD
ENDBRANCH  12  15
ENDBRANCH   1   6
BRANCH   2  17
ATOM     17  O2*   I A   1      11.744  28.663  12.962  1.00  0.00    -0.388 OA
ATOM     18  H2*   I A   1      12.235  29.193  12.281  1.00  0.00     0.210 HD
ENDBRANCH   2  17
BRANCH   3  19
ATOM     19  O3*   I A   1      12.447  26.299  13.815  1.00  0.00    -0.390 OA
ATOM     20  H3*   I A   1      12.912  25.464  14.086  1.00  0.00     0.210 HD
ENDBRANCH   3  19
BRANCH   4  21
ATOM     21  C5*   I A   1      14.634  27.073  12.261  1.00  0.00     0.198 C 
BRANCH  21  22
ATOM     22  O5*   I A   1      15.875  27.427  11.715  1.00  0.00    -0.398 OA
ATOM     23  H5*   I A   1      16.543  27.295  12.437  1.00  0.00     0.209 HD
ENDBRANCH  21  22
ENDBRANCH   4  21
TORSDOF 6
ENDMDL
MODEL 13
REMARK VINA RESULT:      -4.5      2.511      6.428
REMARK  6 active torsions:
REMARK  status: ('A' for Active; 'I' for Inactive)
REMARK    1  A    between atoms: O6_1  and  C6_2 
REMARK    2  A    between atoms: N9_10  and  C1*_11 
REMARK    3  A    between atoms: C2*_12  and  O2*_13 
REMARK    4  A    between atoms: C3*_14  and  O3*_15 
REMARK    5  A    between atoms: C4*_16  and  C5*_17 
REMARK    6  A    between atoms: C5*_17  and  O5*_18 
ROOT
ATOM      1  C1*   I A   1      17.207  33.007  14.859  1.00  0.00     0.262 C 
ATOM      2  C2*   I A   1      16.354  31.768  14.564  1.00  0.00     0.198 C 
ATOM      3  C3*   I A   1      15.000  32.153  15.103  1.00  0.00     0.182 C 
ATOM      4  C4*   I A   1      15.327  33.230  16.138  1.00  0.00     0.179 C 
ATOM      5  O4*   I A   1      16.513  33.876  15.732  1.00  0.00    -0.353 OA
ENDROOT
BRANCH   1   6
ATOM      6  N9    I A   1      17.535  33.713  13.616  1.00  0.00    -0.294 N 
ATOM      7  C4    I A   1      18.705  33.772  12.966  1.00  0.00     0.167 A 
ATOM      8  N3    I A   1      19.858  33.131  13.269  1.00  0.00    -0.221 NA
ATOM      9  C5    I A   1      18.595  34.618  11.915  1.00  0.00     0.156 A 
ATOM     10  C2    I A   1      20.944  33.350  12.467  1.00  0.00     0.238 A 
ATOM     11  N1    I A   1      20.857  34.201  11.394  1.00  0.00    -0.216 NA
ATOM     12  C6    I A   1      19.693  34.851  11.095  1.00  0.00     0.196 A 
ATOM     13  N7    I A   1      17.357  35.143  11.859  1.00  0.00    -0.235 NA
ATOM     14  C8    I A   1      16.737  34.566  12.925  1.00  0.00     0.214 A 
BRANCH  12  15
ATOM     15  O6    I A   1      19.629  35.715  10.005  1.00  0.00    -0.343 OA
ATOM     16  H6    I A   1      18.763  35.871   9.503  1.00  0.00     0.219 HD
ENDBRANCH  12  15
ENDBRANCH   1   6
BRANCH   2  17
ATOM     17  O2*   I A   1      16.862  30.649  15.246  1.00  0.00    -0.388 OA
ATOM     18  H2*   I A   1      16.085  30.064  15.445  1.00  0.00     0.210 HD
ENDBRANCH   2  17
BRANCH   3  19
ATOM     19  O3*   I A   1      14.314  31.051  15.641  1.00  0.00    -0.390 OA
ATOM     20  H3*   I A   1      14.935  30.624  16.289  1.00  0.00     0.210 HD
ENDBRANCH   3  19
BRANCH   4  21
ATOM     21  C5*   I A   1      15.505  32.687  17.566  1.00  0.00     0.198 C 
BRANCH  21  22
ATOM     22  O5*   I A   1      14.249  32.429  18.130  1.00  0.00    -0.398 OA
ATOM     23  H5*   I A   1      13.629  32.281  17.370  1.00  0.00     0.209 HD
ENDBRANCH  21  22
ENDBRANCH   4  21
TORSDOF 6
ENDMDL
MODEL 14
REMARK VINA RESULT:      -4.5      2.221      6.185
REMARK  6 active torsions:
REMARK  status: ('A' for Active; 'I' for Inactive)
REMARK    1  A    between atoms: O6_1  and  C6_2 
REMARK    2  A    between atoms: N9_10  and  C1*_11 
REMARK    3  A    between atoms: C2*_12  and  O2*_13 
REMARK    4  A    between atoms: C3*_14  and  O3*_15 
REMARK    5  A    between atoms: C4*_16  and  C5*_17 
REMARK    6  A    between atoms: C5*_17  and  O5*_18 
ROOT
ATOM      1  C1*   I A   1      15.534  32.991  15.249  1.00  0.00     0.262 C 
ATOM      2  C2*   I A   1      15.377  33.513  16.682  1.00  0.00     0.198 C 
ATOM      3  C3*   I A   1      15.116  32.258  17.474  1.00  0.00     0.182 C 
ATOM      4  C4*   I A   1      14.563  31.291  16.427  1.00  0.00     0.179 C 
ATOM      5  O4*   I A   1      15.113  31.643  15.177  1.00  0.00    -0.353 OA
ENDROOT
BRANCH   1   6
ATOM      6  N9    I A   1      16.930  33.097  14.815  1.00  0.00    -0.294 N 
ATOM      7  C4    I A   1      17.430  33.712  13.734  1.00  0.00     0.167 A 
ATOM      8  N3    I A   1      16.764  34.450  12.814  1.00  0.00    -0.221 NA
ATOM      9  C5    I A   1      18.761  33.478  13.657  1.00  0.00     0.156 A 
ATOM     10  C2    I A   1      17.480  34.979  11.777  1.00  0.00     0.238 A 
ATOM     11  N1    I A   1      18.831  34.758  11.678  1.00  0.00    -0.216 NA
ATOM     12  C6    I A   1      19.498  34.009  12.605  1.00  0.00     0.196 A 
ATOM     13  N7    I A   1      19.163  32.694  14.675  1.00  0.00    -0.235 NA
ATOM     14  C8    I A   1      18.006  32.476  15.360  1.00  0.00     0.214 A 
BRANCH  12  15
ATOM     15  O6    I A   1      20.868  33.793  12.481  1.00  0.00    -0.343 OA
ATOM     16  H6    I A   1      21.478  33.790  13.290  1.00  0.00     0.219 HD
ENDBRANCH  12  15
ENDBRANCH   1   6
BRANCH   2  17
ATOM     17  O2*   I A   1      14.283  34.392  16.766  1.00  0.00    -0.388 OA
ATOM     18  H2*   I A   1      14.382  34.884  17.623  1.00  0.00     0.210 HD
ENDBRANCH   2  17
BRANCH   3  19
ATOM     19  O3*   I A   1      14.235  32.484  18.546  1.00  0.00    -0.390 OA
ATOM     20  H3*   I A   1      14.442  33.392  18.892  1.00  0.00     0.210 HD
ENDBRANCH   3  19
BRANCH   4  21
ATOM     21  C5*   I A   1      13.028  31.292  16.328  1.00  0.00     0.198 C 
BRANCH  21  22
ATOM     22  O5*   I A   1      12.609  30.233  15.512  1.00  0.00    -0.398 OA
ATOM     23  H5*   I A   1      13.383  30.006  14.934  1.00  0.00     0.209 HD
ENDBRANCH  21  22
ENDBRANCH   4  21
TORSDOF 6
ENDMDL
MODEL 15
REMARK VINA RESULT:      -4.4      2.422      3.811
REMARK  6 active torsions:
REMARK  status: ('A' for Active; 'I' for Inactive)
REMARK    1  A    between atoms: O6_1  and  C6_2 
REMARK    2  A    between atoms: N9_10  and  C1*_11 
REMARK    3  A    between atoms: C2*_12  and  O2*_13 
REMARK    4  A    between atoms: C3*_14  and  O3*_15 
REMARK    5  A    between atoms: C4*_16  and  C5*_17 
REMARK    6  A    between atoms: C5*_17  and  O5*_18 
ROOT
ATOM      1  C1*   I A   1      16.550  31.444  14.110  1.00  0.00     0.262 C 
ATOM      2  C2*   I A   1      16.798  32.290  15.365  1.00  0.00     0.198 C 
ATOM      3  C3*   I A   1      16.392  33.673  14.926  1.00  0.00     0.182 C 
ATOM      4  C4*   I A   1      16.540  33.617  13.405  1.00  0.00     0.179 C 
ATOM      5  O4*   I A   1      16.322  32.285  12.997  1.00  0.00    -0.353 OA
ENDROOT
BRANCH   1   6
ATOM      6  N9    I A   1      15.397  30.560  14.306  1.00  0.00    -0.294 N 
ATOM      7  C4    I A   1      15.170  29.346  13.787  1.00  0.00     0.167 A 
ATOM      8  N3    I A   1      15.994  28.609  13.003  1.00  0.00    -0.221 NA
ATOM      9  C5    I A   1      13.935  28.925  14.145  1.00  0.00     0.156 A 
ATOM     10  C2    I A   1      15.547  27.390  12.572  1.00  0.00     0.238 A 
ATOM     11  N1    I A   1      14.300  26.941  12.924  1.00  0.00    -0.216 NA
ATOM     12  C6    I A   1      13.470  27.689  13.711  1.00  0.00     0.196 A 
ATOM     13  N7    I A   1      13.318  29.856  14.896  1.00  0.00    -0.235 NA
ATOM     14  C8    I A   1      14.248  30.849  14.967  1.00  0.00     0.214 A 
BRANCH  12  15
ATOM     15  O6    I A   1      12.206  27.215  14.051  1.00  0.00    -0.343 OA
ATOM     16  H6    I A   1      11.811  27.374  14.970  1.00  0.00     0.219 HD
ENDBRANCH  12  15
ENDBRANCH   1   6
BRANCH   2  17
ATOM     17  O2*   I A   1      18.158  32.257  15.717  1.00  0.00    -0.388 OA
ATOM     18  H2*   I A   1      18.581  33.043  15.281  1.00  0.00     0.210 HD
ENDBRANCH   2  17
BRANCH   3  19
ATOM     19  O3*   I A   1      17.181  34.670  15.527  1.00  0.00    -0.390 OA
ATOM     20  H3*   I A   1      18.123  34.362  15.457  1.00  0.00     0.210 HD
ENDBRANCH   3  19
BRANCH   4  21
ATOM     21  C5*   I A   1      17.913  34.089  12.895  1.00  0.00     0.198 C 
BRANCH  21  22
ATOM     22  O5*   I A   1      17.770  34.665  11.627  1.00  0.00    -0.398 OA
ATOM     23  H5*   I A   1      18.094  35.600  11.709  1.00  0.00     0.209 HD
ENDBRANCH  21  22
ENDBRANCH   4  21
TORSDOF 6
ENDMDL
MODEL 16
REMARK VINA RESULT:      -4.2      5.464      8.278
REMARK  6 active torsions:
REMARK  status: ('A' for Active; 'I' for Inactive)
REMARK    1  A    between atoms: O6_1  and  C6_2 
REMARK    2  A    between atoms: N9_10  and  C1*_11 
REMARK    3  A    between atoms: C2*_12  and  O2*_13 
REMARK    4  A    between atoms: C3*_14  and  O3*_15 
REMARK    5  A    between atoms: C4*_16  and  C5*_17 
REMARK    6  A    between atoms: C5*_17  and  O5*_18 
ROOT
ATOM      1  C1*   I A   1      15.067  34.987  20.264  1.00  0.00     0.262 C 
ATOM      2  C2*   I A   1      15.187  33.671  21.041  1.00  0.00     0.198 C 
ATOM      3  C3*   I A   1      15.983  32.797  20.106  1.00  0.00     0.182 C 
ATOM      4  C4*   I A   1      15.724  33.422  18.735  1.00  0.00     0.179 C 
ATOM      5  O4*   I A   1      15.477  34.798  18.925  1.00  0.00    -0.353 OA
ENDROOT
BRANCH   1   6
ATOM      6  N9    I A   1      15.887  36.029  20.890  1.00  0.00    -0.294 N 
ATOM      7  C4    I A   1      17.016  36.594  20.440  1.00  0.00     0.167 A 
ATOM      8  N3    I A   1      17.637  36.382  19.255  1.00  0.00    -0.221 NA
ATOM      9  C5    I A   1      17.503  37.439  21.378  1.00  0.00     0.156 A 
ATOM     10  C2    I A   1      18.796  37.064  19.008  1.00  0.00     0.238 A 
ATOM     11  N1    I A   1      19.309  37.929  19.942  1.00  0.00    -0.216 NA
ATOM     12  C6    I A   1      18.682  38.135  21.139  1.00  0.00     0.196 A 
ATOM     13  N7    I A   1      16.714  37.440  22.469  1.00  0.00    -0.235 NA
ATOM     14  C8    I A   1      15.735  36.556  22.131  1.00  0.00     0.214 A 
BRANCH  12  15
ATOM     15  O6    I A   1      19.224  39.013  22.074  1.00  0.00    -0.343 OA
ATOM     16  H6    I A   1      18.634  39.609  22.643  1.00  0.00     0.219 HD
ENDBRANCH  12  15
ENDBRANCH   1   6
BRANCH   2  17
ATOM     17  O2*   I A   1      13.915  33.121  21.274  1.00  0.00    -0.388 OA
ATOM     18  H2*   I A   1      14.048  32.145  21.399  1.00  0.00     0.210 HD
ENDBRANCH   2  17
BRANCH   3  19
ATOM     19  O3*   I A   1      15.597  31.448  20.187  1.00  0.00    -0.390 OA
ATOM     20  H3*   I A   1      15.425  31.150  19.255  1.00  0.00     0.210 HD
ENDBRANCH   3  19
BRANCH   4  21
ATOM     21  C5*   I A   1      14.544  32.792  17.977  1.00  0.00     0.198 C 
BRANCH  21  22
ATOM     22  O5*   I A   1      14.045  33.707  17.041  1.00  0.00    -0.398 OA
ATOM     23  H5*   I A   1      13.063  33.740  17.184  1.00  0.00     0.209 HD
ENDBRANCH  21  22
ENDBRANCH   4  21
TORSDOF 6
ENDMDL
MODEL 17
REMARK VINA RESULT:      -4.0     21.531     23.241
REMARK  6 active torsions:
REMARK  status: ('A' for Active; 'I' for Inactive)
REMARK    1  A    between atoms: O6_1  and  C6_2 
REMARK    2  A    between atoms: N9_10  and  C1*_11 
REMARK    3  A    between atoms: C2*_12  and  O2*_13 
REMARK    4  A    between atoms: C3*_14  and  O3*_15 
REMARK    5  A    between atoms: C4*_16  and  C5*_17 
REMARK    6  A    between atoms: C5*_17  and  O5*_18 
ROOT
ATOM      1  C1*   I A   1      27.962  29.032  35.003  1.00  0.00     0.262 C 
ATOM      2  C2*   I A   1      27.031  28.630  36.153  1.00  0.00     0.198 C 
ATOM      3  C3*   I A   1      26.271  29.900  36.435  1.00  0.00     0.182 C 
ATOM      4  C4*   I A   1      27.199  30.991  35.900  1.00  0.00     0.179 C 
ATOM      5  O4*   I A   1      27.957  30.437  34.847  1.00  0.00    -0.353 OA
ENDROOT
BRANCH   1   6
ATOM      6  N9    I A   1      27.539  28.394  33.753  1.00  0.00    -0.294 N 
ATOM      7  C4    I A   1      28.128  28.430  32.550  1.00  0.00     0.167 A 
ATOM      8  N3    I A   1      29.303  29.014  32.216  1.00  0.00    -0.221 NA
ATOM      9  C5    I A   1      27.349  27.790  31.647  1.00  0.00     0.156 A 
ATOM     10  C2    I A   1      29.710  28.937  30.912  1.00  0.00     0.238 A 
ATOM     11  N1    I A   1      28.939  28.290  29.979  1.00  0.00    -0.216 NA
ATOM     12  C6    I A   1      27.751  27.707  30.319  1.00  0.00     0.196 A 
ATOM     13  N7    I A   1      26.227  27.330  32.232  1.00  0.00    -0.235 NA
ATOM     14  C8    I A   1      26.379  27.728  33.526  1.00  0.00     0.214 A 
BRANCH  12  15
ATOM     15  O6    I A   1      26.982  27.062  29.354  1.00  0.00    -0.343 OA
ATOM     16  H6    I A   1      27.372  26.334  28.767  1.00  0.00     0.219 HD
ENDBRANCH  12  15
ENDBRANCH   1   6
BRANCH   2  17
ATOM     17  O2*   I A   1      27.780  28.238  37.276  1.00  0.00    -0.388 OA
ATOM     18  H2*   I A   1      27.153  27.763  37.882  1.00  0.00     0.210 HD
ENDBRANCH   2  17
BRANCH   3  19
ATOM     19  O3*   I A   1      25.971  30.044  37.800  1.00  0.00    -0.390 OA
ATOM     20  H3*   I A   1      26.509  29.360  38.279  1.00  0.00     0.210 HD
ENDBRANCH   3  19
BRANCH   4  21
ATOM     21  C5*   I A   1      28.149  31.576  36.959  1.00  0.00     0.198 C 
BRANCH  21  22
ATOM     22  O5*   I A   1      27.448  32.476  37.772  1.00  0.00    -0.398 OA
ATOM     23  H5*   I A   1      26.486  32.340  37.570  1.00  0.00     0.209 HD
ENDBRANCH  21  22
ENDBRANCH   4  21
TORSDOF 6
ENDMDL
MODEL 18
REMARK VINA RESULT:      -3.9      5.247      7.391
REMARK  6 active torsions:
REMARK  status: ('A' for Active; 'I' for Inactive)
REMARK    1  A    between atoms: O6_1  and  C6_2 
REMARK    2  A    between atoms: N9_10  and  C1*_11 
REMARK    3  A    between atoms: C2*_12  and  O2*_13 
REMARK    4  A    between atoms: C3*_14  and  O3*_15 
REMARK    5  A    between atoms: C4*_16  and  C5*_17 
REMARK    6  A    between atoms: C5*_17  and  O5*_18 
ROOT
ATOM      1  C1*   I A   1      16.629  35.224  20.978  1.00  0.00     0.262 C 
ATOM      2  C2*   I A   1      15.568  35.553  22.034  1.00  0.00     0.198 C 
ATOM      3  C3*   I A   1      15.558  37.059  22.048  1.00  0.00     0.182 C 
ATOM      4  C4*   I A   1      16.941  37.425  21.509  1.00  0.00     0.179 C 
ATOM      5  O4*   I A   1      17.357  36.390  20.645  1.00  0.00    -0.353 OA
ENDROOT
BRANCH   1   6
ATOM      6  N9    I A   1      16.002  34.674  19.773  1.00  0.00    -0.294 N 
ATOM      7  C4    I A   1      15.451  33.466  19.588  1.00  0.00     0.167 A 
ATOM      8  N3    I A   1      15.279  32.482  20.503  1.00  0.00    -0.221 NA
ATOM      9  C5    I A   1      15.080  33.331  18.294  1.00  0.00     0.156 A 
ATOM     10  C2    I A   1      14.699  31.315  20.088  1.00  0.00     0.238 A 
ATOM     11  N1    I A   1      14.312  31.156  18.781  1.00  0.00    -0.216 NA
ATOM     12  C6    I A   1      14.492  32.149  17.860  1.00  0.00     0.196 A 
ATOM     13  N7    I A   1      15.390  34.440  17.596  1.00  0.00    -0.235 NA
ATOM     14  C8    I A   1      15.961  35.239  18.540  1.00  0.00     0.214 A 
BRANCH  12  15
ATOM     15  O6    I A   1      14.097  31.963  16.538  1.00  0.00    -0.343 OA
ATOM     16  H6    I A   1      13.230  31.494  16.306  1.00  0.00     0.219 HD
ENDBRANCH  12  15
ENDBRANCH   1   6
BRANCH   2  17
ATOM     17  O2*   I A   1      15.950  35.045  23.287  1.00  0.00    -0.388 OA
ATOM     18  H2*   I A   1      16.921  34.847  23.227  1.00  0.00     0.210 HD
ENDBRANCH   2  17
BRANCH   3  19
ATOM     19  O3*   I A   1      15.306  37.573  23.332  1.00  0.00    -0.390 OA
ATOM     20  H3*   I A   1      14.545  37.050  23.699  1.00  0.00     0.210 HD
ENDBRANCH   3  19
BRANCH   4  21
ATOM     21  C5*   I A   1      18.001  37.633  22.603  1.00  0.00     0.198 C 
BRANCH  21  22
ATOM     22  O5*   I A   1      17.838  38.899  23.181  1.00  0.00    -0.398 OA
ATOM     23  H5*   I A   1      18.347  38.882  24.033  1.00  0.00     0.209 HD
ENDBRANCH  21  22
ENDBRANCH   4  21
TORSDOF 6
ENDMDL
MODEL 19
REMARK VINA RESULT:      -3.7     13.790     14.488
REMARK  6 active torsions:
REMARK  status: ('A' for Active; 'I' for Inactive)
REMARK    1  A    between atoms: O6_1  and  C6_2 
REMARK    2  A    between atoms: N9_10  and  C1*_11 
REMARK    3  A    between atoms: C2*_12  and  O2*_13 
REMARK    4  A    between atoms: C3*_14  and  O3*_15 
REMARK    5  A    between atoms: C4*_16  and  C5*_17 
REMARK    6  A    between atoms: C5*_17  and  O5*_18 
ROOT
ATOM      1  C1*   I A   1      26.972  25.028  18.718  1.00  0.00     0.262 C 
ATOM      2  C2*   I A   1      28.211  24.454  18.020  1.00  0.00     0.198 C 
ATOM      3  C3*   I A   1      29.343  25.220  18.653  1.00  0.00     0.182 C 
ATOM      4  C4*   I A   1      28.668  26.498  19.151  1.00  0.00     0.179 C 
ATOM      5  O4*   I A   1      27.321  26.193  19.440  1.00  0.00    -0.353 OA
ENDROOT
BRANCH   1   6
ATOM      6  N9    I A   1      26.391  24.038  19.629  1.00  0.00    -0.294 N 
ATOM      7  C4    I A   1      25.410  23.155  19.397  1.00  0.00     0.167 A 
ATOM      8  N3    I A   1      24.763  22.918  18.230  1.00  0.00    -0.221 NA
ATOM      9  C5    I A   1      25.110  22.501  20.543  1.00  0.00     0.156 A 
ATOM     10  C2    I A   1      23.777  21.971  18.225  1.00  0.00     0.238 A 
ATOM     11  N1    I A   1      23.457  21.292  19.374  1.00  0.00    -0.216 NA
ATOM     12  C6    I A   1      24.108  21.538  20.550  1.00  0.00     0.196 A 
ATOM     13  N7    I A   1      25.877  22.947  21.556  1.00  0.00    -0.235 NA
ATOM     14  C8    I A   1      26.646  23.896  20.955  1.00  0.00     0.214 A 
BRANCH  12  15
ATOM     15  O6    I A   1      23.762  20.841  21.705  1.00  0.00    -0.343 OA
ATOM     16  H6    I A   1      23.621  21.317  22.588  1.00  0.00     0.219 HD
ENDBRANCH  12  15
ENDBRANCH   1   6
BRANCH   2  17
ATOM     17  O2*   I A   1      28.153  24.701  16.638  1.00  0.00    -0.388 OA
ATOM     18  H2*   I A   1      28.308  23.829  16.189  1.00  0.00     0.210 HD
ENDBRANCH   2  17
BRANCH   3  19
ATOM     19  O3*   I A   1      30.391  25.459  17.747  1.00  0.00    -0.390 OA
ATOM     20  H3*   I A   1      30.023  25.280  16.841  1.00  0.00     0.210 HD
ENDBRANCH   3  19
BRANCH   4  21
ATOM     21  C5*   I A   1      28.723  27.662  18.147  1.00  0.00     0.198 C 
BRANCH  21  22
ATOM     22  O5*   I A   1      29.902  28.393  18.340  1.00  0.00    -0.398 OA
ATOM     23  H5*   I A   1      30.015  28.483  19.322  1.00  0.00     0.209 HD
ENDBRANCH  21  22
ENDBRANCH   4  21
TORSDOF 6
ENDMDL
MODEL 20
REMARK VINA RESULT:      -3.5     14.059     14.631
REMARK  6 active torsions:
REMARK  status: ('A' for Active; 'I' for Inactive)
REMARK    1  A    between atoms: O6_1  and  C6_2 
REMARK    2  A    between atoms: N9_10  and  C1*_11 
REMARK    3  A    between atoms: C2*_12  and  O2*_13 
REMARK    4  A    between atoms: C3*_14  and  O3*_15 
REMARK    5  A    between atoms: C4*_16  and  C5*_17 
REMARK    6  A    between atoms: C5*_17  and  O5*_18 
ROOT
ATOM      1  C1*   I A   1      26.570  24.821  20.178  1.00  0.00     0.262 C 
ATOM      2  C2*   I A   1      27.302  25.528  19.031  1.00  0.00     0.198 C 
ATOM      3  C3*   I A   1      28.725  25.061  19.199  1.00  0.00     0.182 C 
ATOM      4  C4*   I A   1      28.795  24.668  20.675  1.00  0.00     0.179 C 
ATOM      5  O4*   I A   1      27.506  24.260  21.076  1.00  0.00    -0.353 OA
ENDROOT
BRANCH   1   6
ATOM      6  N9    I A   1      25.694  23.768  19.655  1.00  0.00    -0.294 N 
ATOM      7  C4    I A   1      24.835  22.982  20.319  1.00  0.00     0.167 A 
ATOM      8  N3    I A   1      24.518  23.022  21.635  1.00  0.00    -0.221 NA
ATOM      9  C5    I A   1      24.303  22.074  19.468  1.00  0.00     0.156 A 
ATOM     10  C2    I A   1      23.617  22.107  22.105  1.00  0.00     0.238 A 
ATOM     11  N1    I A   1      23.061  21.179  21.261  1.00  0.00    -0.216 NA
ATOM     12  C6    I A   1      23.388  21.138  19.935  1.00  0.00     0.196 A 
ATOM     13  N7    I A   1      24.809  22.234  18.230  1.00  0.00    -0.235 NA
ATOM     14  C8    I A   1      25.665  23.281  18.389  1.00  0.00     0.214 A 
BRANCH  12  15
ATOM     15  O6    I A   1      22.816  20.183  19.098  1.00  0.00    -0.343 OA
ATOM     16  H6    I A   1      21.930  20.348  18.636  1.00  0.00     0.219 HD
ENDBRANCH  12  15
ENDBRANCH   1   6
BRANCH   2  17
ATOM     17  O2*   I A   1      27.215  26.923  19.181  1.00  0.00    -0.388 OA
ATOM     18  H2*   I A   1      26.429  27.095  19.762  1.00  0.00     0.210 HD
ENDBRANCH   2  17
BRANCH   3  19
ATOM     19  O3*   I A   1      29.653  26.054  18.841  1.00  0.00    -0.390 OA
ATOM     20  H3*   I A   1      29.815  25.948  17.866  1.00  0.00     0.210 HD
ENDBRANCH   3  19
BRANCH   4  21
ATOM     21  C5*   I A   1      29.282  25.798  21.597  1.00  0.00     0.198 C 
BRANCH  21  22
ATOM     22  O5*   I A   1      28.551  25.778  22.792  1.00  0.00    -0.398 OA
ATOM     23  H5*   I A   1      27.776  26.381  22.652  1.00  0.00     0.209 HD
ENDBRANCH  21  22
ENDBRANCH   4  21
TORSDOF 6
ENDMDL
