REMARK  0 active torsions:
REMARK  status: ('A' for Active; 'I' for Inactive)
ROOT
HETATM    1 BR   LIG     1      -4.058  -1.595  -0.053  1.00  0.00    -0.051 Br
HETATM    2  C   LIG     1      -2.394  -0.657  -0.035  1.00  0.00     0.011 A 
HETATM    3  C   LIG     1      -1.191  -1.371  -0.004  1.00  0.00     0.031 A 
HETATM    4  C   LIG     1       0.034  -0.686   0.009  1.00  0.00    -0.025 A 
HETATM    5  C   LIG     1       1.248  -1.390   0.040  1.00  0.00     0.012 A 
HETATM    6  C   LIG     1       2.461  -0.696   0.053  1.00  0.00     0.001 A 
HETATM    7  C   LIG     1       2.473   0.702   0.036  1.00  0.00     0.001 A 
HETATM    8  C   LIG     1       1.271   1.415   0.005  1.00  0.00     0.012 A 
HETATM    9  C   LIG     1       0.046   0.731  -0.009  1.00  0.00    -0.026 A 
HETATM   10  C   LIG     1      -1.168   1.435  -0.039  1.00  0.00     0.013 A 
HETATM   11  C   LIG     1      -2.381   0.741  -0.052  1.00  0.00     0.020 A 
ENDROOT
TORSDOF 0
