MODEL 1
REMARK VINA RESULT:      -8.0      0.000      0.000
REMARK  0 active torsions:
REMARK  status: ('A' for Active; 'I' for Inactive)
ROOT
HETATM    1 BR   LIG     1      15.838  35.184  20.295  1.00  0.00    -0.051 Br
HETATM    2  C   LIG     1      16.485  35.933  21.929  1.00  0.00     0.011 A 
HETATM    3  C   LIG     1      16.806  35.095  23.002  1.00  0.00     0.031 A 
HETATM    4  C   LIG     1      17.282  35.641  24.204  1.00  0.00    -0.025 A 
HETATM    5  C   LIG     1      17.607  34.811  25.288  1.00  0.00     0.012 A 
HETATM    6  C   LIG     1      18.080  35.367  26.480  1.00  0.00     0.001 A 
HETATM    7  C   LIG     1      18.230  36.752  26.600  1.00  0.00     0.001 A 
HETATM    8  C   LIG     1      17.909  37.589  25.528  1.00  0.00     0.012 A 
HETATM    9  C   LIG     1      17.434  37.044  24.325  1.00  0.00    -0.026 A 
HETATM   10  C   LIG     1      17.108  37.874  23.242  1.00  0.00     0.013 A 
HETATM   11  C   LIG     1      16.635  37.318  22.050  1.00  0.00     0.020 A 
ENDROOT
TORSDOF 0
ENDMDL
MODEL 2
REMARK VINA RESULT:      -7.3      2.928      4.345
REMARK  0 active torsions:
REMARK  status: ('A' for Active; 'I' for Inactive)
ROOT
HETATM    1 BR   LIG     1      15.010  34.229  21.336  1.00  0.00    -0.051 Br
HETATM    2  C   LIG     1      16.163  35.752  21.336  1.00  0.00     0.011 A 
HETATM    3  C   LIG     1      17.204  35.838  20.406  1.00  0.00     0.031 A 
HETATM    4  C   LIG     1      18.054  36.955  20.402  1.00  0.00    -0.025 A 
HETATM    5  C   LIG     1      19.103  37.054  19.474  1.00  0.00     0.012 A 
HETATM    6  C   LIG     1      19.942  38.171  19.481  1.00  0.00     0.001 A 
HETATM    7  C   LIG     1      19.742  39.197  20.410  1.00  0.00     0.001 A 
HETATM    8  C   LIG     1      18.701  39.110  21.339  1.00  0.00     0.012 A 
HETATM    9  C   LIG     1      17.851  37.994  21.343  1.00  0.00    -0.026 A 
HETATM   10  C   LIG     1      16.803  37.895  22.272  1.00  0.00     0.013 A 
HETATM   11  C   LIG     1      15.964  36.777  22.265  1.00  0.00     0.020 A 
ENDROOT
TORSDOF 0
ENDMDL
MODEL 3
REMARK VINA RESULT:      -7.2      1.697      2.567
REMARK  0 active torsions:
REMARK  status: ('A' for Active; 'I' for Inactive)
ROOT
HETATM    1 BR   LIG     1      18.102  39.582  21.287  1.00  0.00    -0.051 Br
HETATM    2  C   LIG     1      17.796  38.103  22.458  1.00  0.00     0.011 A 
HETATM    3  C   LIG     1      18.214  38.171  23.791  1.00  0.00     0.031 A 
HETATM    4  C   LIG     1      17.992  37.087  24.655  1.00  0.00    -0.025 A 
HETATM    5  C   LIG     1      18.406  37.142  25.995  1.00  0.00     0.012 A 
HETATM    6  C   LIG     1      18.178  36.056  26.844  1.00  0.00     0.001 A 
HETATM    7  C   LIG     1      17.539  34.908  26.365  1.00  0.00     0.001 A 
HETATM    8  C   LIG     1      17.121  34.841  25.033  1.00  0.00     0.012 A 
HETATM    9  C   LIG     1      17.342  35.924  24.169  1.00  0.00    -0.026 A 
HETATM   10  C   LIG     1      16.929  35.869  22.829  1.00  0.00     0.013 A 
HETATM   11  C   LIG     1      17.157  36.955  21.979  1.00  0.00     0.020 A 
ENDROOT
TORSDOF 0
ENDMDL
MODEL 4
REMARK VINA RESULT:      -6.6      2.659      3.740
REMARK  0 active torsions:
REMARK  status: ('A' for Active; 'I' for Inactive)
ROOT
HETATM    1 BR   LIG     1      19.463  39.220  17.954  1.00  0.00    -0.051 Br
HETATM    2  C   LIG     1      18.793  38.680  19.659  1.00  0.00     0.011 A 
HETATM    3  C   LIG     1      18.314  37.378  19.841  1.00  0.00     0.031 A 
HETATM    4  C   LIG     1      17.821  36.977  21.092  1.00  0.00    -0.025 A 
HETATM    5  C   LIG     1      17.337  35.674  21.288  1.00  0.00     0.012 A 
HETATM    6  C   LIG     1      16.848  35.288  22.539  1.00  0.00     0.001 A 
HETATM    7  C   LIG     1      16.838  36.196  23.602  1.00  0.00     0.001 A 
HETATM    8  C   LIG     1      17.317  37.497  23.421  1.00  0.00     0.012 A 
HETATM    9  C   LIG     1      17.811  37.898  22.170  1.00  0.00    -0.026 A 
HETATM   10  C   LIG     1      18.294  39.201  21.974  1.00  0.00     0.013 A 
HETATM   11  C   LIG     1      18.782  39.587  20.723  1.00  0.00     0.020 A 
ENDROOT
TORSDOF 0
ENDMDL
MODEL 5
REMARK VINA RESULT:      -6.3      2.609      3.909
REMARK  0 active torsions:
REMARK  status: ('A' for Active; 'I' for Inactive)
ROOT
HETATM    1 BR   LIG     1      19.470  39.279  18.145  1.00  0.00    -0.051 Br
HETATM    2  C   LIG     1      18.696  38.330  19.611  1.00  0.00     0.011 A 
HETATM    3  C   LIG     1      18.443  38.995  20.816  1.00  0.00     0.031 A 
HETATM    4  C   LIG     1      17.874  38.302  21.896  1.00  0.00    -0.025 A 
HETATM    5  C   LIG     1      17.615  38.956  23.110  1.00  0.00     0.012 A 
HETATM    6  C   LIG     1      17.048  38.254  24.178  1.00  0.00     0.001 A 
HETATM    7  C   LIG     1      16.736  36.898  24.043  1.00  0.00     0.001 A 
HETATM    8  C   LIG     1      16.988  36.235  22.839  1.00  0.00     0.012 A 
HETATM    9  C   LIG     1      17.557  36.927  21.759  1.00  0.00    -0.026 A 
HETATM   10  C   LIG     1      17.816  36.273  20.544  1.00  0.00     0.013 A 
HETATM   11  C   LIG     1      18.383  36.974  19.477  1.00  0.00     0.020 A 
ENDROOT
TORSDOF 0
ENDMDL
MODEL 6
REMARK VINA RESULT:      -6.1      8.574     10.274
REMARK  0 active torsions:
REMARK  status: ('A' for Active; 'I' for Inactive)
ROOT
HETATM    1 BR   LIG     1      18.466  33.799  13.307  1.00  0.00    -0.051 Br
HETATM    2  C   LIG     1      17.005  32.787  14.008  1.00  0.00     0.011 A 
HETATM    3  C   LIG     1      16.542  33.038  15.304  1.00  0.00     0.031 A 
HETATM    4  C   LIG     1      15.468  32.298  15.824  1.00  0.00    -0.025 A 
HETATM    5  C   LIG     1      14.994  32.540  17.123  1.00  0.00     0.012 A 
HETATM    6  C   LIG     1      13.924  31.795  17.628  1.00  0.00     0.001 A 
HETATM    7  C   LIG     1      13.322  30.806  16.845  1.00  0.00     0.001 A 
HETATM    8  C   LIG     1      13.785  30.555  15.550  1.00  0.00     0.012 A 
HETATM    9  C   LIG     1      14.858  31.296  15.030  1.00  0.00    -0.026 A 
HETATM   10  C   LIG     1      15.333  31.053  13.732  1.00  0.00     0.013 A 
HETATM   11  C   LIG     1      16.402  31.798  13.226  1.00  0.00     0.020 A 
ENDROOT
TORSDOF 0
ENDMDL
MODEL 7
REMARK VINA RESULT:      -6.1      8.934     10.587
REMARK  0 active torsions:
REMARK  status: ('A' for Active; 'I' for Inactive)
ROOT
HETATM    1 BR   LIG     1      18.567  33.684  13.328  1.00  0.00    -0.051 Br
HETATM    2  C   LIG     1      17.085  32.988  14.312  1.00  0.00     0.011 A 
HETATM    3  C   LIG     1      16.377  31.885  13.820  1.00  0.00     0.031 A 
HETATM    4  C   LIG     1      15.288  31.370  14.540  1.00  0.00    -0.025 A 
HETATM    5  C   LIG     1      14.570  30.264  14.058  1.00  0.00     0.012 A 
HETATM    6  C   LIG     1      13.487  29.761  14.784  1.00  0.00     0.001 A 
HETATM    7  C   LIG     1      13.112  30.355  15.993  1.00  0.00     0.001 A 
HETATM    8  C   LIG     1      13.819  31.457  16.484  1.00  0.00     0.012 A 
HETATM    9  C   LIG     1      14.909  31.972  15.765  1.00  0.00    -0.026 A 
HETATM   10  C   LIG     1      15.626  33.078  16.247  1.00  0.00     0.013 A 
HETATM   11  C   LIG     1      16.709  33.581  15.521  1.00  0.00     0.020 A 
ENDROOT
TORSDOF 0
ENDMDL
MODEL 8
REMARK VINA RESULT:      -5.2      1.692      2.134
REMARK  0 active torsions:
REMARK  status: ('A' for Active; 'I' for Inactive)
ROOT
HETATM    1 BR   LIG     1      18.106  38.729  19.940  1.00  0.00    -0.051 Br
HETATM    2  C   LIG     1      18.034  38.175  21.767  1.00  0.00     0.011 A 
HETATM    3  C   LIG     1      17.576  36.893  22.090  1.00  0.00     0.031 A 
HETATM    4  C   LIG     1      17.521  36.482  23.431  1.00  0.00    -0.025 A 
HETATM    5  C   LIG     1      17.065  35.198  23.769  1.00  0.00     0.012 A 
HETATM    6  C   LIG     1      17.015  34.802  25.108  1.00  0.00     0.001 A 
HETATM    7  C   LIG     1      17.418  35.680  26.118  1.00  0.00     0.001 A 
HETATM    8  C   LIG     1      17.876  36.961  25.795  1.00  0.00     0.012 A 
HETATM    9  C   LIG     1      17.931  37.372  24.455  1.00  0.00    -0.026 A 
HETATM   10  C   LIG     1      18.387  38.656  24.117  1.00  0.00     0.013 A 
HETATM   11  C   LIG     1      18.437  39.053  22.778  1.00  0.00     0.020 A 
ENDROOT
TORSDOF 0
ENDMDL
MODEL 9
REMARK VINA RESULT:      -5.0     12.175     13.301
REMARK  0 active torsions:
REMARK  status: ('A' for Active; 'I' for Inactive)
ROOT
HETATM    1 BR   LIG     1      19.580  33.184  10.011  1.00  0.00    -0.051 Br
HETATM    2  C   LIG     1      20.857  34.045  11.140  1.00  0.00     0.011 A 
HETATM    3  C   LIG     1      21.591  35.135  10.659  1.00  0.00     0.031 A 
HETATM    4  C   LIG     1      22.530  35.772  11.485  1.00  0.00    -0.025 A 
HETATM    5  C   LIG     1      23.273  36.866  11.015  1.00  0.00     0.012 A 
HETATM    6  C   LIG     1      24.205  37.491  11.848  1.00  0.00     0.001 A 
HETATM    7  C   LIG     1      24.405  37.030  13.153  1.00  0.00     0.001 A 
HETATM    8  C   LIG     1      23.671  35.941  13.633  1.00  0.00     0.012 A 
HETATM    9  C   LIG     1      22.731  35.305  12.808  1.00  0.00    -0.026 A 
HETATM   10  C   LIG     1      21.989  34.210  13.278  1.00  0.00     0.013 A 
HETATM   11  C   LIG     1      21.057  33.585  12.445  1.00  0.00     0.020 A 
ENDROOT
TORSDOF 0
ENDMDL
