MODEL 1
REMARK VINA RESULT:      -7.4      0.000      0.000
REMARK  1 active torsions:
REMARK  status: ('A' for Active; 'I' for Inactive)
REMARK    1  A    between atoms: O_1  and  C_2 
ROOT
HETATM    1  C   LIG     1      19.764  38.807  19.679  1.00  0.00     0.066 A 
HETATM    2  C   LIG     1      19.568  37.476  19.293  1.00  0.00     0.039 A 
HETATM    3  C   LIG     1      18.604  36.690  19.932  1.00  0.00     0.035 A 
HETATM    4  C   LIG     1      18.991  39.358  20.712  1.00  0.00     0.050 A 
HETATM    5  C   LIG     1      18.023  38.576  21.357  1.00  0.00    -0.005 A 
HETATM    6  C   LIG     1      17.829  37.232  20.962  1.00  0.00     0.067 A 
HETATM    7  N   LIG     1      16.890  36.471  21.586  1.00  0.00    -0.260 NA
HETATM    8  C   LIG     1      16.120  36.967  22.592  1.00  0.00     0.117 A 
HETATM    9  C   LIG     1      16.280  38.289  23.012  1.00  0.00     0.020 A 
HETATM   10  C   LIG     1      17.235  39.098  22.392  1.00  0.00     0.015 A 
ENDROOT
BRANCH   1  11
HETATM   11  O   LIG     1      20.730  39.574  19.031  1.00  0.00    -0.361 OA
HETATM   12  H   LIG     1      21.544  39.927  19.521  1.00  0.00     0.217 HD
ENDBRANCH   1  11
TORSDOF 1
ENDMDL
MODEL 2
REMARK VINA RESULT:      -7.3      2.451      3.950
REMARK  1 active torsions:
REMARK  status: ('A' for Active; 'I' for Inactive)
REMARK    1  A    between atoms: O_1  and  C_2 
ROOT
HETATM    1  C   LIG     1      16.082  37.713  22.702  1.00  0.00     0.066 A 
HETATM    2  C   LIG     1      16.080  36.438  22.124  1.00  0.00     0.039 A 
HETATM    3  C   LIG     1      17.019  36.107  21.141  1.00  0.00     0.035 A 
HETATM    4  C   LIG     1      17.029  38.665  22.296  1.00  0.00     0.050 A 
HETATM    5  C   LIG     1      17.973  38.340  21.312  1.00  0.00    -0.005 A 
HETATM    6  C   LIG     1      17.966  37.050  20.732  1.00  0.00     0.067 A 
HETATM    7  N   LIG     1      18.882  36.732  19.776  1.00  0.00    -0.260 NA
HETATM    8  C   LIG     1      19.816  37.625  19.355  1.00  0.00     0.117 A 
HETATM    9  C   LIG     1      19.856  38.910  19.902  1.00  0.00     0.020 A 
HETATM   10  C   LIG     1      18.932  39.269  20.885  1.00  0.00     0.015 A 
ENDROOT
BRANCH   1  11
HETATM   11  O   LIG     1      15.139  38.024  23.679  1.00  0.00    -0.361 OA
HETATM   12  H   LIG     1      15.388  38.550  24.509  1.00  0.00     0.217 HD
ENDBRANCH   1  11
TORSDOF 1
ENDMDL
MODEL 3
REMARK VINA RESULT:      -6.9      3.396      4.621
REMARK  1 active torsions:
REMARK  status: ('A' for Active; 'I' for Inactive)
REMARK    1  A    between atoms: O_1  and  C_2 
ROOT
HETATM    1  C   LIG     1      16.560  36.088  21.854  1.00  0.00     0.066 A 
HETATM    2  C   LIG     1      16.706  37.466  22.054  1.00  0.00     0.039 A 
HETATM    3  C   LIG     1      17.132  37.958  23.292  1.00  0.00     0.035 A 
HETATM    4  C   LIG     1      16.841  35.195  22.898  1.00  0.00     0.050 A 
HETATM    5  C   LIG     1      17.268  35.682  24.142  1.00  0.00    -0.005 A 
HETATM    6  C   LIG     1      17.414  37.074  24.338  1.00  0.00     0.067 A 
HETATM    7  N   LIG     1      17.829  37.549  25.544  1.00  0.00    -0.260 NA
HETATM    8  C   LIG     1      18.112  36.717  26.582  1.00  0.00     0.117 A 
HETATM    9  C   LIG     1      17.980  35.335  26.429  1.00  0.00     0.020 A 
HETATM   10  C   LIG     1      17.557  34.814  25.204  1.00  0.00     0.015 A 
ENDROOT
BRANCH   1  11
HETATM   11  O   LIG     1      16.135  35.617  20.614  1.00  0.00    -0.361 OA
HETATM   12  H   LIG     1      16.617  34.862  20.140  1.00  0.00     0.217 HD
ENDBRANCH   1  11
TORSDOF 1
ENDMDL
MODEL 4
REMARK VINA RESULT:      -6.8      1.003      2.217
REMARK  1 active torsions:
REMARK  status: ('A' for Active; 'I' for Inactive)
REMARK    1  A    between atoms: O_1  and  C_2 
ROOT
HETATM    1  C   LIG     1      19.628  38.882  19.901  1.00  0.00     0.066 A 
HETATM    2  C   LIG     1      19.175  39.683  20.956  1.00  0.00     0.039 A 
HETATM    3  C   LIG     1      18.170  39.223  21.812  1.00  0.00     0.035 A 
HETATM    4  C   LIG     1      19.072  37.610  19.700  1.00  0.00     0.050 A 
HETATM    5  C   LIG     1      18.064  37.142  20.554  1.00  0.00    -0.005 A 
HETATM    6  C   LIG     1      17.611  37.955  21.618  1.00  0.00     0.067 A 
HETATM    7  N   LIG     1      16.633  37.503  22.449  1.00  0.00    -0.260 NA
HETATM    8  C   LIG     1      16.068  36.277  22.289  1.00  0.00     0.117 A 
HETATM    9  C   LIG     1      16.487  35.442  21.249  1.00  0.00     0.020 A 
HETATM   10  C   LIG     1      17.489  35.875  20.379  1.00  0.00     0.015 A 
ENDROOT
BRANCH   1  11
HETATM   11  O   LIG     1      20.629  39.359  19.059  1.00  0.00    -0.361 OA
HETATM   12  H   LIG     1      21.343  39.998  19.392  1.00  0.00     0.217 HD
ENDBRANCH   1  11
TORSDOF 1
ENDMDL
MODEL 5
REMARK VINA RESULT:      -6.8      3.127      3.955
REMARK  1 active torsions:
REMARK  status: ('A' for Active; 'I' for Inactive)
REMARK    1  A    between atoms: O_1  and  C_2 
ROOT
HETATM    1  C   LIG     1      17.358  38.077  22.456  1.00  0.00     0.066 A 
HETATM    2  C   LIG     1      16.895  36.843  21.985  1.00  0.00     0.039 A 
HETATM    3  C   LIG     1      16.859  35.731  22.833  1.00  0.00     0.035 A 
HETATM    4  C   LIG     1      17.788  38.203  23.785  1.00  0.00     0.050 A 
HETATM    5  C   LIG     1      17.755  37.093  24.641  1.00  0.00    -0.005 A 
HETATM    6  C   LIG     1      17.286  35.849  24.160  1.00  0.00     0.067 A 
HETATM    7  N   LIG     1      17.252  34.770  24.988  1.00  0.00    -0.260 NA
HETATM    8  C   LIG     1      17.660  34.850  26.283  1.00  0.00     0.117 A 
HETATM    9  C   LIG     1      18.131  36.060  26.797  1.00  0.00     0.020 A 
HETATM   10  C   LIG     1      18.178  37.187  25.974  1.00  0.00     0.015 A 
ENDROOT
BRANCH   1  11
HETATM   11  O   LIG     1      17.386  39.172  21.595  1.00  0.00    -0.361 OA
HETATM   12  H   LIG     1      17.411  40.123  21.947  1.00  0.00     0.217 HD
ENDBRANCH   1  11
TORSDOF 1
ENDMDL
MODEL 6
REMARK VINA RESULT:      -6.7      2.660      4.424
REMARK  1 active torsions:
REMARK  status: ('A' for Active; 'I' for Inactive)
REMARK    1  A    between atoms: O_1  and  C_2 
ROOT
HETATM    1  C   LIG     1      16.199  35.903  21.784  1.00  0.00     0.066 A 
HETATM    2  C   LIG     1      16.063  37.052  22.572  1.00  0.00     0.039 A 
HETATM    3  C   LIG     1      16.908  38.149  22.374  1.00  0.00     0.035 A 
HETATM    4  C   LIG     1      17.188  35.849  20.790  1.00  0.00     0.050 A 
HETATM    5  C   LIG     1      18.038  36.944  20.586  1.00  0.00    -0.005 A 
HETATM    6  C   LIG     1      17.895  38.102  21.384  1.00  0.00     0.067 A 
HETATM    7  N   LIG     1      18.719  39.167  21.188  1.00  0.00    -0.260 NA
HETATM    8  C   LIG     1      19.690  39.155  20.236  1.00  0.00     0.117 A 
HETATM    9  C   LIG     1      19.864  38.030  19.426  1.00  0.00     0.020 A 
HETATM   10  C   LIG     1      19.035  36.920  19.601  1.00  0.00     0.015 A 
ENDROOT
BRANCH   1  11
HETATM   11  O   LIG     1      15.348  34.821  21.997  1.00  0.00    -0.361 OA
HETATM   12  H   LIG     1      15.421  34.245  22.828  1.00  0.00     0.217 HD
ENDBRANCH   1  11
TORSDOF 1
ENDMDL
MODEL 7
REMARK VINA RESULT:      -6.4      4.145      5.449
REMARK  1 active torsions:
REMARK  status: ('A' for Active; 'I' for Inactive)
REMARK    1  A    between atoms: O_1  and  C_2 
ROOT
HETATM    1  C   LIG     1      18.197  35.369  26.039  1.00  0.00     0.066 A 
HETATM    2  C   LIG     1      18.130  36.689  26.502  1.00  0.00     0.039 A 
HETATM    3  C   LIG     1      17.512  37.678  25.730  1.00  0.00     0.035 A 
HETATM    4  C   LIG     1      17.641  35.034  24.795  1.00  0.00     0.050 A 
HETATM    5  C   LIG     1      17.020  36.020  24.016  1.00  0.00    -0.005 A 
HETATM    6  C   LIG     1      16.956  37.351  24.489  1.00  0.00     0.067 A 
HETATM    7  N   LIG     1      16.354  38.310  23.735  1.00  0.00    -0.260 NA
HETATM    8  C   LIG     1      15.803  38.027  22.524  1.00  0.00     0.117 A 
HETATM    9  C   LIG     1      15.846  36.725  22.020  1.00  0.00     0.020 A 
HETATM   10  C   LIG     1      16.456  35.717  22.769  1.00  0.00     0.015 A 
ENDROOT
BRANCH   1  11
HETATM   11  O   LIG     1      18.817  34.398  26.823  1.00  0.00    -0.361 OA
HETATM   12  H   LIG     1      18.345  33.974  27.613  1.00  0.00     0.217 HD
ENDBRANCH   1  11
TORSDOF 1
ENDMDL
MODEL 8
REMARK VINA RESULT:      -6.3      3.592      5.058
REMARK  1 active torsions:
REMARK  status: ('A' for Active; 'I' for Inactive)
REMARK    1  A    between atoms: O_1  and  C_2 
ROOT
HETATM    1  C   LIG     1      17.567  36.521  25.752  1.00  0.00     0.066 A 
HETATM    2  C   LIG     1      17.668  37.847  25.316  1.00  0.00     0.039 A 
HETATM    3  C   LIG     1      17.531  38.157  23.959  1.00  0.00     0.035 A 
HETATM    4  C   LIG     1      17.326  35.495  24.825  1.00  0.00     0.050 A 
HETATM    5  C   LIG     1      17.187  35.799  23.464  1.00  0.00    -0.005 A 
HETATM    6  C   LIG     1      17.290  37.141  23.030  1.00  0.00     0.067 A 
HETATM    7  N   LIG     1      17.155  37.439  21.709  1.00  0.00    -0.260 NA
HETATM    8  C   LIG     1      16.921  36.475  20.778  1.00  0.00     0.117 A 
HETATM    9  C   LIG     1      16.812  35.137  21.166  1.00  0.00     0.020 A 
HETATM   10  C   LIG     1      16.945  34.797  22.514  1.00  0.00     0.015 A 
ENDROOT
BRANCH   1  11
HETATM   11  O   LIG     1      17.707  36.232  27.107  1.00  0.00    -0.361 OA
HETATM   12  H   LIG     1      18.017  35.321  27.426  1.00  0.00     0.217 HD
ENDBRANCH   1  11
TORSDOF 1
ENDMDL
MODEL 9
REMARK VINA RESULT:      -6.1      8.008      9.605
REMARK  1 active torsions:
REMARK  status: ('A' for Active; 'I' for Inactive)
REMARK    1  A    between atoms: O_1  and  C_2 
ROOT
HETATM    1  C   LIG     1      13.578  30.941  16.508  1.00  0.00     0.066 A 
HETATM    2  C   LIG     1      13.940  31.905  17.456  1.00  0.00     0.039 A 
HETATM    3  C   LIG     1      14.965  32.816  17.182  1.00  0.00     0.035 A 
HETATM    4  C   LIG     1      14.244  30.887  15.274  1.00  0.00     0.050 A 
HETATM    5  C   LIG     1      15.272  31.798  14.992  1.00  0.00    -0.005 A 
HETATM    6  C   LIG     1      15.633  32.769  15.954  1.00  0.00     0.067 A 
HETATM    7  N   LIG     1      16.631  33.654  15.683  1.00  0.00    -0.260 NA
HETATM    8  C   LIG     1      17.301  33.635  14.500  1.00  0.00     0.117 A 
HETATM    9  C   LIG     1      16.975  32.691  13.523  1.00  0.00     0.020 A 
HETATM   10  C   LIG     1      15.956  31.769  13.769  1.00  0.00     0.015 A 
ENDROOT
BRANCH   1  11
HETATM   11  O   LIG     1      12.555  30.042  16.801  1.00  0.00    -0.361 OA
HETATM   12  H   LIG     1      12.406  29.208  16.243  1.00  0.00     0.217 HD
ENDBRANCH   1  11
TORSDOF 1
ENDMDL
MODEL 10
REMARK VINA RESULT:      -6.1      2.668      3.393
REMARK  1 active torsions:
REMARK  status: ('A' for Active; 'I' for Inactive)
REMARK    1  A    between atoms: O_1  and  C_2 
ROOT
HETATM    1  C   LIG     1      17.130  35.978  20.824  1.00  0.00     0.066 A 
HETATM    2  C   LIG     1      16.936  34.864  21.650  1.00  0.00     0.039 A 
HETATM    3  C   LIG     1      16.945  35.005  23.041  1.00  0.00     0.035 A 
HETATM    4  C   LIG     1      17.334  37.244  21.393  1.00  0.00     0.050 A 
HETATM    5  C   LIG     1      17.343  37.393  22.787  1.00  0.00    -0.005 A 
HETATM    6  C   LIG     1      17.147  36.264  23.616  1.00  0.00     0.067 A 
HETATM    7  N   LIG     1      17.156  36.406  24.969  1.00  0.00    -0.260 NA
HETATM    8  C   LIG     1      17.350  37.616  25.560  1.00  0.00     0.117 A 
HETATM    9  C   LIG     1      17.548  38.756  24.777  1.00  0.00     0.020 A 
HETATM   10  C   LIG     1      17.545  38.645  23.385  1.00  0.00     0.015 A 
ENDROOT
BRANCH   1  11
HETATM   11  O   LIG     1      17.118  35.816  19.441  1.00  0.00    -0.361 OA
HETATM   12  H   LIG     1      16.254  35.671  18.931  1.00  0.00     0.217 HD
ENDBRANCH   1  11
TORSDOF 1
ENDMDL
MODEL 11
REMARK VINA RESULT:      -6.1      3.761      5.335
REMARK  1 active torsions:
REMARK  status: ('A' for Active; 'I' for Inactive)
REMARK    1  A    between atoms: O_1  and  C_2 
ROOT
HETATM    1  C   LIG     1      17.303  35.334  25.671  1.00  0.00     0.066 A 
HETATM    2  C   LIG     1      17.648  36.647  26.013  1.00  0.00     0.039 A 
HETATM    3  C   LIG     1      17.805  37.618  25.019  1.00  0.00     0.035 A 
HETATM    4  C   LIG     1      17.112  34.988  24.325  1.00  0.00     0.050 A 
HETATM    5  C   LIG     1      17.268  35.957  23.323  1.00  0.00    -0.005 A 
HETATM    6  C   LIG     1      17.616  37.281  23.675  1.00  0.00     0.067 A 
HETATM    7  N   LIG     1      17.767  38.223  22.705  1.00  0.00    -0.260 NA
HETATM    8  C   LIG     1      17.592  37.929  21.389  1.00  0.00     0.117 A 
HETATM    9  C   LIG     1      17.247  36.632  20.999  1.00  0.00     0.020 A 
HETATM   10  C   LIG     1      17.084  35.642  21.970  1.00  0.00     0.015 A 
ENDROOT
BRANCH   1  11
HETATM   11  O   LIG     1      17.152  34.381  26.676  1.00  0.00    -0.361 OA
HETATM   12  H   LIG     1      17.274  33.392  26.491  1.00  0.00     0.217 HD
ENDBRANCH   1  11
TORSDOF 1
ENDMDL
MODEL 12
REMARK VINA RESULT:      -6.1      1.158      1.585
REMARK  1 active torsions:
REMARK  status: ('A' for Active; 'I' for Inactive)
REMARK    1  A    between atoms: O_1  and  C_2 
ROOT
HETATM    1  C   LIG     1      19.102  38.805  20.365  1.00  0.00     0.066 A 
HETATM    2  C   LIG     1      19.264  37.861  19.344  1.00  0.00     0.039 A 
HETATM    3  C   LIG     1      18.535  36.668  19.363  1.00  0.00     0.035 A 
HETATM    4  C   LIG     1      18.202  38.556  21.413  1.00  0.00     0.050 A 
HETATM    5  C   LIG     1      17.468  37.363  21.437  1.00  0.00    -0.005 A 
HETATM    6  C   LIG     1      17.636  36.413  20.404  1.00  0.00     0.067 A 
HETATM    7  N   LIG     1      16.924  35.253  20.425  1.00  0.00    -0.260 NA
HETATM    8  C   LIG     1      16.042  34.974  21.422  1.00  0.00     0.117 A 
HETATM    9  C   LIG     1      15.847  35.886  22.462  1.00  0.00     0.020 A 
HETATM   10  C   LIG     1      16.562  37.085  22.470  1.00  0.00     0.015 A 
ENDROOT
BRANCH   1  11
HETATM   11  O   LIG     1      19.838  39.987  20.329  1.00  0.00    -0.361 OA
HETATM   12  H   LIG     1      19.595  40.744  19.700  1.00  0.00     0.217 HD
ENDBRANCH   1  11
TORSDOF 1
ENDMDL
MODEL 13
REMARK VINA RESULT:      -6.0      1.887      2.625
REMARK  1 active torsions:
REMARK  status: ('A' for Active; 'I' for Inactive)
REMARK    1  A    between atoms: O_1  and  C_2 
ROOT
HETATM    1  C   LIG     1      18.215  37.139  19.709  1.00  0.00     0.066 A 
HETATM    2  C   LIG     1      18.675  38.442  19.938  1.00  0.00     0.039 A 
HETATM    3  C   LIG     1      18.564  39.017  21.208  1.00  0.00     0.035 A 
HETATM    4  C   LIG     1      17.640  36.406  20.758  1.00  0.00     0.050 A 
HETATM    5  C   LIG     1      17.526  36.977  22.033  1.00  0.00    -0.005 A 
HETATM    6  C   LIG     1      17.993  38.292  22.258  1.00  0.00     0.067 A 
HETATM    7  N   LIG     1      17.884  38.848  23.495  1.00  0.00    -0.260 NA
HETATM    8  C   LIG     1      17.333  38.171  24.538  1.00  0.00     0.117 A 
HETATM    9  C   LIG     1      16.860  36.869  24.357  1.00  0.00     0.020 A 
HETATM   10  C   LIG     1      16.957  36.269  23.101  1.00  0.00     0.015 A 
ENDROOT
BRANCH   1  11
HETATM   11  O   LIG     1      18.333  36.584  18.438  1.00  0.00    -0.361 OA
HETATM   12  H   LIG     1      18.968  36.969  17.747  1.00  0.00     0.217 HD
ENDBRANCH   1  11
TORSDOF 1
ENDMDL
MODEL 14
REMARK VINA RESULT:      -5.9      2.955      3.997
REMARK  1 active torsions:
REMARK  status: ('A' for Active; 'I' for Inactive)
REMARK    1  A    between atoms: O_1  and  C_2 
ROOT
HETATM    1  C   LIG     1      15.314  35.529  21.384  1.00  0.00     0.066 A 
HETATM    2  C   LIG     1      16.183  35.201  20.337  1.00  0.00     0.039 A 
HETATM    3  C   LIG     1      17.310  35.989  20.081  1.00  0.00     0.035 A 
HETATM    4  C   LIG     1      15.572  36.654  22.183  1.00  0.00     0.050 A 
HETATM    5  C   LIG     1      16.700  37.447  21.932  1.00  0.00    -0.005 A 
HETATM    6  C   LIG     1      17.574  37.111  20.873  1.00  0.00     0.067 A 
HETATM    7  N   LIG     1      18.670  37.879  20.627  1.00  0.00    -0.260 NA
HETATM    8  C   LIG     1      18.956  38.977  21.377  1.00  0.00     0.117 A 
HETATM    9  C   LIG     1      18.117  39.344  22.433  1.00  0.00     0.020 A 
HETATM   10  C   LIG     1      16.985  38.577  22.712  1.00  0.00     0.015 A 
ENDROOT
BRANCH   1  11
HETATM   11  O   LIG     1      14.196  34.732  21.623  1.00  0.00    -0.361 OA
HETATM   12  H   LIG     1      13.347  34.834  21.080  1.00  0.00     0.217 HD
ENDBRANCH   1  11
TORSDOF 1
ENDMDL
MODEL 15
REMARK VINA RESULT:      -5.9      3.276      4.569
REMARK  1 active torsions:
REMARK  status: ('A' for Active; 'I' for Inactive)
REMARK    1  A    between atoms: O_1  and  C_2 
ROOT
HETATM    1  C   LIG     1      17.292  38.102  25.264  1.00  0.00     0.066 A 
HETATM    2  C   LIG     1      17.441  36.820  25.809  1.00  0.00     0.039 A 
HETATM    3  C   LIG     1      17.386  35.692  24.985  1.00  0.00     0.035 A 
HETATM    4  C   LIG     1      17.088  38.256  23.885  1.00  0.00     0.050 A 
HETATM    5  C   LIG     1      17.032  37.129  23.053  1.00  0.00    -0.005 A 
HETATM    6  C   LIG     1      17.183  35.838  23.610  1.00  0.00     0.067 A 
HETATM    7  N   LIG     1      17.129  34.742  22.805  1.00  0.00    -0.260 NA
HETATM    8  C   LIG     1      16.932  34.849  21.463  1.00  0.00     0.117 A 
HETATM    9  C   LIG     1      16.778  36.107  20.875  1.00  0.00     0.020 A 
HETATM   10  C   LIG     1      16.828  37.251  21.672  1.00  0.00     0.015 A 
ENDROOT
BRANCH   1  11
HETATM   11  O   LIG     1      17.350  39.213  26.101  1.00  0.00    -0.361 OA
HETATM   12  H   LIG     1      16.664  39.363  26.833  1.00  0.00     0.217 HD
ENDBRANCH   1  11
TORSDOF 1
ENDMDL
MODEL 16
REMARK VINA RESULT:      -5.9      3.741      4.952
REMARK  1 active torsions:
REMARK  status: ('A' for Active; 'I' for Inactive)
REMARK    1  A    between atoms: O_1  and  C_2 
ROOT
HETATM    1  C   LIG     1      18.189  36.221  26.274  1.00  0.00     0.066 A 
HETATM    2  C   LIG     1      17.710  34.996  25.795  1.00  0.00     0.039 A 
HETATM    3  C   LIG     1      17.188  34.898  24.501  1.00  0.00     0.035 A 
HETATM    4  C   LIG     1      18.146  37.359  25.454  1.00  0.00     0.050 A 
HETATM    5  C   LIG     1      17.624  37.268  24.156  1.00  0.00    -0.005 A 
HETATM    6  C   LIG     1      17.142  36.028  23.678  1.00  0.00     0.067 A 
HETATM    7  N   LIG     1      16.635  35.937  22.418  1.00  0.00    -0.260 NA
HETATM    8  C   LIG     1      16.576  37.015  21.592  1.00  0.00     0.117 A 
HETATM    9  C   LIG     1      17.041  38.259  22.026  1.00  0.00     0.020 A 
HETATM   10  C   LIG     1      17.568  38.386  23.313  1.00  0.00     0.015 A 
ENDROOT
BRANCH   1  11
HETATM   11  O   LIG     1      18.705  36.298  27.565  1.00  0.00    -0.361 OA
HETATM   12  H   LIG     1      18.127  36.120  28.379  1.00  0.00     0.217 HD
ENDBRANCH   1  11
TORSDOF 1
ENDMDL
MODEL 17
REMARK VINA RESULT:      -5.8      8.001      9.326
REMARK  1 active torsions:
REMARK  status: ('A' for Active; 'I' for Inactive)
REMARK    1  A    between atoms: O_1  and  C_2 
ROOT
HETATM    1  C   LIG     1      15.335  33.646  16.753  1.00  0.00     0.066 A 
HETATM    2  C   LIG     1      16.429  33.749  15.885  1.00  0.00     0.039 A 
HETATM    3  C   LIG     1      16.635  32.788  14.891  1.00  0.00     0.035 A 
HETATM    4  C   LIG     1      14.439  32.574  16.626  1.00  0.00     0.050 A 
HETATM    5  C   LIG     1      14.639  31.607  15.631  1.00  0.00    -0.005 A 
HETATM    6  C   LIG     1      15.746  31.717  14.758  1.00  0.00     0.067 A 
HETATM    7  N   LIG     1      15.942  30.779  13.791  1.00  0.00    -0.260 NA
HETATM    8  C   LIG     1      15.097  29.725  13.634  1.00  0.00     0.117 A 
HETATM    9  C   LIG     1      13.992  29.581  14.477  1.00  0.00     0.020 A 
HETATM   10  C   LIG     1      13.762  30.525  15.479  1.00  0.00     0.015 A 
ENDROOT
BRANCH   1  11
HETATM   11  O   LIG     1      15.148  34.614  17.737  1.00  0.00    -0.361 OA
HETATM   12  H   LIG     1      15.656  35.491  17.723  1.00  0.00     0.217 HD
ENDBRANCH   1  11
TORSDOF 1
ENDMDL
MODEL 18
REMARK VINA RESULT:      -5.7      2.737      4.027
REMARK  1 active torsions:
REMARK  status: ('A' for Active; 'I' for Inactive)
REMARK    1  A    between atoms: O_1  and  C_2 
ROOT
HETATM    1  C   LIG     1      15.982  35.060  20.503  1.00  0.00     0.066 A 
HETATM    2  C   LIG     1      14.921  35.346  21.369  1.00  0.00     0.039 A 
HETATM    3  C   LIG     1      14.971  36.469  22.202  1.00  0.00     0.035 A 
HETATM    4  C   LIG     1      17.104  35.902  20.467  1.00  0.00     0.050 A 
HETATM    5  C   LIG     1      17.160  37.030  21.298  1.00  0.00    -0.005 A 
HETATM    6  C   LIG     1      16.085  37.313  22.171  1.00  0.00     0.067 A 
HETATM    7  N   LIG     1      16.137  38.407  22.979  1.00  0.00    -0.260 NA
HETATM    8  C   LIG     1      17.205  39.249  22.975  1.00  0.00     0.117 A 
HETATM    9  C   LIG     1      18.288  39.004  22.127  1.00  0.00     0.020 A 
HETATM   10  C   LIG     1      18.266  37.891  21.285  1.00  0.00     0.015 A 
ENDROOT
BRANCH   1  11
HETATM   11  O   LIG     1      15.914  33.936  19.682  1.00  0.00    -0.361 OA
HETATM   12  H   LIG     1      16.167  33.980  18.701  1.00  0.00     0.217 HD
ENDBRANCH   1  11
TORSDOF 1
ENDMDL
MODEL 19
REMARK VINA RESULT:      -5.7      8.045      9.580
REMARK  1 active torsions:
REMARK  status: ('A' for Active; 'I' for Inactive)
REMARK    1  A    between atoms: O_1  and  C_2 
ROOT
HETATM    1  C   LIG     1      14.415  31.995  17.940  1.00  0.00     0.066 A 
HETATM    2  C   LIG     1      15.147  33.155  17.657  1.00  0.00     0.039 A 
HETATM    3  C   LIG     1      15.698  33.350  16.386  1.00  0.00     0.035 A 
HETATM    4  C   LIG     1      14.233  31.022  16.946  1.00  0.00     0.050 A 
HETATM    5  C   LIG     1      14.783  31.211  15.670  1.00  0.00    -0.005 A 
HETATM    6  C   LIG     1      15.520  32.384  15.390  1.00  0.00     0.067 A 
HETATM    7  N   LIG     1      16.055  32.570  14.153  1.00  0.00    -0.260 NA
HETATM    8  C   LIG     1      15.901  31.652  13.162  1.00  0.00     0.117 A 
HETATM    9  C   LIG     1      15.180  30.479  13.398  1.00  0.00     0.020 A 
HETATM   10  C   LIG     1      14.618  30.257  14.657  1.00  0.00     0.015 A 
ENDROOT
BRANCH   1  11
HETATM   11  O   LIG     1      13.875  31.819  19.212  1.00  0.00    -0.361 OA
HETATM   12  H   LIG     1      14.454  31.844  20.043  1.00  0.00     0.217 HD
ENDBRANCH   1  11
TORSDOF 1
ENDMDL
MODEL 20
REMARK VINA RESULT:      -5.6      1.831      3.244
REMARK  1 active torsions:
REMARK  status: ('A' for Active; 'I' for Inactive)
REMARK    1  A    between atoms: O_1  and  C_2 
ROOT
HETATM    1  C   LIG     1      18.190  38.760  21.955  1.00  0.00     0.066 A 
HETATM    2  C   LIG     1      17.115  39.031  22.811  1.00  0.00     0.039 A 
HETATM    3  C   LIG     1      16.015  38.169  22.859  1.00  0.00     0.035 A 
HETATM    4  C   LIG     1      18.165  37.618  21.140  1.00  0.00     0.050 A 
HETATM    5  C   LIG     1      17.066  36.749  21.184  1.00  0.00    -0.005 A 
HETATM    6  C   LIG     1      15.984  37.028  22.051  1.00  0.00     0.067 A 
HETATM    7  N   LIG     1      14.916  36.186  22.095  1.00  0.00    -0.260 NA
HETATM    8  C   LIG     1      14.854  35.069  21.322  1.00  0.00     0.117 A 
HETATM    9  C   LIG     1      15.902  34.758  20.452  1.00  0.00     0.020 A 
HETATM   10  C   LIG     1      17.012  35.601  20.383  1.00  0.00     0.015 A 
ENDROOT
BRANCH   1  11
HETATM   11  O   LIG     1      19.276  39.632  21.921  1.00  0.00    -0.361 OA
HETATM   12  H   LIG     1      19.176  40.613  22.155  1.00  0.00     0.217 HD
ENDBRANCH   1  11
TORSDOF 1
ENDMDL
