REMARK  1 active torsions:
REMARK  status: ('A' for Active; 'I' for Inactive)
REMARK    1  A    between atoms: O_1  and  C_2 
ROOT
HETATM    1  C   LIG     1      -2.170  -0.198   0.007  1.00  0.00     0.066 A 
HETATM    2  C   LIG     1      -2.003   1.085  -0.528  1.00  0.00     0.039 A 
HETATM    3  C   LIG     1      -0.721   1.615  -0.706  1.00  0.00     0.035 A 
HETATM    4  C   LIG     1      -1.047  -0.958   0.367  1.00  0.00     0.050 A 
HETATM    5  C   LIG     1       0.241  -0.433   0.191  1.00  0.00    -0.005 A 
HETATM    6  C   LIG     1       0.403   0.863  -0.350  1.00  0.00     0.067 A 
HETATM    7  N   LIG     1       1.652   1.375  -0.522  1.00  0.00    -0.260 NA
HETATM    8  C   LIG     1       2.766   0.671  -0.186  1.00  0.00     0.117 A 
HETATM    9  C   LIG     1       2.649  -0.613   0.352  1.00  0.00     0.020 A 
HETATM   10  C   LIG     1       1.382  -1.168   0.541  1.00  0.00     0.015 A 
ENDROOT
BRANCH   1  11
HETATM   11  O   LIG     1      -3.455  -0.708   0.177  1.00  0.00    -0.361 OA
HETATM   12  H   LIG     1      -3.612  -1.633   0.561  1.00  0.00     0.217 HD
ENDBRANCH   1  11
TORSDOF 1
