REMARK  0 active torsions:
REMARK  status: ('A' for Active; 'I' for Inactive)
ROOT
HETATM    1  C   LIG     1      -3.983   0.191  -0.380  1.00  0.00     0.048 C 
HETATM    2  C   LIG     1      -2.534  -0.048  -0.075  1.00  0.00    -0.061 A 
HETATM    3  C   LIG     1      -1.552   0.700  -0.742  1.00  0.00     0.019 A 
HETATM    4  C   LIG     1      -0.192   0.489  -0.469  1.00  0.00    -0.025 A 
HETATM    5  C   LIG     1       0.794   1.230  -1.136  1.00  0.00     0.013 A 
HETATM    6  C   LIG     1       2.146   1.013  -0.858  1.00  0.00     0.007 A 
HETATM    7  C   LIG     1       2.531   0.063   0.100  1.00  0.00    -0.061 A 
HETATM    8  C   LIG     1       3.985  -0.193   0.366  1.00  0.00     0.048 C 
HETATM    9  C   LIG     1       1.550  -0.695   0.758  1.00  0.00     0.019 A 
HETATM   10  C   LIG     1       0.190  -0.483   0.485  1.00  0.00    -0.025 A 
HETATM   11  C   LIG     1      -0.796  -1.229   1.148  1.00  0.00     0.013 A 
HETATM   12  C   LIG     1      -2.149  -1.012   0.870  1.00  0.00     0.007 A 
ENDROOT
TORSDOF 0
