MODEL 1
REMARK VINA RESULT:      -8.0      0.000      0.000
REMARK  0 active torsions:
REMARK  status: ('A' for Active; 'I' for Inactive)
ROOT
HETATM    1  C   LIG     1      16.747  36.136  20.530  1.00  0.00     0.049 C 
HETATM    2  C   LIG     1      17.123  36.452  21.955  1.00  0.00    -0.055 A 
HETATM    3  C   LIG     1      17.053  35.438  22.925  1.00  0.00     0.019 A 
HETATM    4  C   LIG     1      17.396  35.699  24.258  1.00  0.00    -0.025 A 
HETATM    5  C   LIG     1      17.326  34.684  25.227  1.00  0.00     0.012 A 
HETATM    6  C   LIG     1      17.670  34.956  26.554  1.00  0.00     0.001 A 
HETATM    7  C   LIG     1      18.087  36.238  26.924  1.00  0.00     0.001 A 
HETATM    8  C   LIG     1      18.160  37.256  25.969  1.00  0.00     0.012 A 
HETATM    9  C   LIG     1      17.817  36.995  24.633  1.00  0.00    -0.025 A 
HETATM   10  C   LIG     1      17.888  38.009  23.668  1.00  0.00     0.019 A 
HETATM   11  C   LIG     1      17.545  37.751  22.329  1.00  0.00    -0.055 A 
HETATM   12  C   LIG     1      17.632  38.864  21.317  1.00  0.00     0.049 C 
ENDROOT
TORSDOF 0
ENDMDL
MODEL 2
REMARK VINA RESULT:      -8.0      0.020      2.255
REMARK  0 active torsions:
REMARK  status: ('A' for Active; 'I' for Inactive)
ROOT
HETATM    1  C   LIG     1      17.592  38.869  21.315  1.00  0.00     0.049 C 
HETATM    2  C   LIG     1      17.518  37.754  22.327  1.00  0.00    -0.055 A 
HETATM    3  C   LIG     1      17.859  38.017  23.664  1.00  0.00     0.019 A 
HETATM    4  C   LIG     1      17.801  37.003  24.629  1.00  0.00    -0.025 A 
HETATM    5  C   LIG     1      18.142  37.266  25.966  1.00  0.00     0.012 A 
HETATM    6  C   LIG     1      18.080  36.247  26.920  1.00  0.00     0.001 A 
HETATM    7  C   LIG     1      17.678  34.961  26.550  1.00  0.00     0.001 A 
HETATM    8  C   LIG     1      17.336  34.686  25.223  1.00  0.00     0.012 A 
HETATM    9  C   LIG     1      17.394  35.702  24.255  1.00  0.00    -0.025 A 
HETATM   10  C   LIG     1      17.053  35.436  22.922  1.00  0.00     0.019 A 
HETATM   11  C   LIG     1      17.110  36.451  21.951  1.00  0.00    -0.055 A 
HETATM   12  C   LIG     1      16.737  36.132  20.527  1.00  0.00     0.049 C 
ENDROOT
TORSDOF 0
ENDMDL
MODEL 3
REMARK VINA RESULT:      -7.6      1.581      5.248
REMARK  0 active torsions:
REMARK  status: ('A' for Active; 'I' for Inactive)
ROOT
HETATM    1  C   LIG     1      17.049  37.864  25.016  1.00  0.00     0.049 C 
HETATM    2  C   LIG     1      17.411  37.591  23.579  1.00  0.00    -0.055 A 
HETATM    3  C   LIG     1      17.888  38.643  22.779  1.00  0.00     0.019 A 
HETATM    4  C   LIG     1      18.234  38.423  21.439  1.00  0.00    -0.025 A 
HETATM    5  C   LIG     1      18.711  39.476  20.641  1.00  0.00     0.012 A 
HETATM    6  C   LIG     1      19.053  39.245  19.306  1.00  0.00     0.001 A 
HETATM    7  C   LIG     1      18.922  37.966  18.757  1.00  0.00     0.001 A 
HETATM    8  C   LIG     1      18.449  36.910  19.542  1.00  0.00     0.012 A 
HETATM    9  C   LIG     1      18.102  37.130  20.885  1.00  0.00    -0.025 A 
HETATM   10  C   LIG     1      17.627  36.078  21.679  1.00  0.00     0.019 A 
HETATM   11  C   LIG     1      17.279  36.295  23.024  1.00  0.00    -0.055 A 
HETATM   12  C   LIG     1      16.771  35.142  23.850  1.00  0.00     0.049 C 
ENDROOT
TORSDOF 0
ENDMDL
MODEL 4
REMARK VINA RESULT:      -7.6      1.608      4.778
REMARK  0 active torsions:
REMARK  status: ('A' for Active; 'I' for Inactive)
ROOT
HETATM    1  C   LIG     1      16.784  35.161  23.810  1.00  0.00     0.049 C 
HETATM    2  C   LIG     1      17.288  36.314  22.980  1.00  0.00    -0.055 A 
HETATM    3  C   LIG     1      17.649  36.090  21.641  1.00  0.00     0.019 A 
HETATM    4  C   LIG     1      18.121  37.140  20.842  1.00  0.00    -0.025 A 
HETATM    5  C   LIG     1      18.481  36.915  19.503  1.00  0.00     0.012 A 
HETATM    6  C   LIG     1      18.951  37.970  18.716  1.00  0.00     0.001 A 
HETATM    7  C   LIG     1      19.065  39.254  19.256  1.00  0.00     0.001 A 
HETATM    8  C   LIG     1      18.710  39.490  20.588  1.00  0.00     0.012 A 
HETATM    9  C   LIG     1      18.237  38.438  21.389  1.00  0.00    -0.025 A 
HETATM   10  C   LIG     1      17.879  38.665  22.724  1.00  0.00     0.019 A 
HETATM   11  C   LIG     1      17.404  37.614  23.528  1.00  0.00    -0.055 A 
HETATM   12  C   LIG     1      17.028  37.893  24.960  1.00  0.00     0.049 C 
ENDROOT
TORSDOF 0
ENDMDL
MODEL 5
REMARK VINA RESULT:      -7.3      2.898      4.716
REMARK  0 active torsions:
REMARK  status: ('A' for Active; 'I' for Inactive)
ROOT
HETATM    1  C   LIG     1      15.596  34.864  21.839  1.00  0.00     0.049 C 
HETATM    2  C   LIG     1      16.482  36.057  21.588  1.00  0.00    -0.055 A 
HETATM    3  C   LIG     1      17.523  35.954  20.650  1.00  0.00     0.019 A 
HETATM    4  C   LIG     1      18.365  37.044  20.393  1.00  0.00    -0.025 A 
HETATM    5  C   LIG     1      19.404  36.940  19.454  1.00  0.00     0.012 A 
HETATM    6  C   LIG     1      20.238  38.034  19.206  1.00  0.00     0.001 A 
HETATM    7  C   LIG     1      20.042  39.237  19.889  1.00  0.00     0.001 A 
HETATM    8  C   LIG     1      19.010  39.353  20.826  1.00  0.00     0.012 A 
HETATM    9  C   LIG     1      18.166  38.261  21.084  1.00  0.00    -0.025 A 
HETATM   10  C   LIG     1      17.129  38.367  22.020  1.00  0.00     0.019 A 
HETATM   11  C   LIG     1      16.282  37.275  22.280  1.00  0.00    -0.055 A 
HETATM   12  C   LIG     1      15.178  37.424  23.294  1.00  0.00     0.049 C 
ENDROOT
TORSDOF 0
ENDMDL
MODEL 6
REMARK VINA RESULT:      -7.3      2.770      5.191
REMARK  0 active torsions:
REMARK  status: ('A' for Active; 'I' for Inactive)
ROOT
HETATM    1  C   LIG     1      15.340  37.429  23.452  1.00  0.00     0.049 C 
HETATM    2  C   LIG     1      16.393  37.296  22.383  1.00  0.00    -0.055 A 
HETATM    3  C   LIG     1      17.225  38.392  22.097  1.00  0.00     0.019 A 
HETATM    4  C   LIG     1      18.214  38.301  21.109  1.00  0.00    -0.025 A 
HETATM    5  C   LIG     1      19.045  39.397  20.825  1.00  0.00     0.012 A 
HETATM    6  C   LIG     1      20.028  39.296  19.838  1.00  0.00     0.001 A 
HETATM    7  C   LIG     1      20.192  38.103  19.128  1.00  0.00     0.001 A 
HETATM    8  C   LIG     1      19.371  37.004  19.402  1.00  0.00     0.012 A 
HETATM    9  C   LIG     1      18.379  37.094  20.392  1.00  0.00    -0.025 A 
HETATM   10  C   LIG     1      17.552  35.999  20.674  1.00  0.00     0.019 A 
HETATM   11  C   LIG     1      16.558  36.087  21.665  1.00  0.00    -0.055 A 
HETATM   12  C   LIG     1      15.686  34.890  21.942  1.00  0.00     0.049 C 
ENDROOT
TORSDOF 0
ENDMDL
MODEL 7
REMARK VINA RESULT:      -6.7      1.056      4.934
REMARK  0 active torsions:
REMARK  status: ('A' for Active; 'I' for Inactive)
ROOT
HETATM    1  C   LIG     1      17.409  37.623  26.024  1.00  0.00     0.049 C 
HETATM    2  C   LIG     1      17.571  37.334  24.554  1.00  0.00    -0.055 A 
HETATM    3  C   LIG     1      17.932  38.377  23.685  1.00  0.00     0.019 A 
HETATM    4  C   LIG     1      18.090  38.142  22.312  1.00  0.00    -0.025 A 
HETATM    5  C   LIG     1      18.451  39.186  21.445  1.00  0.00     0.012 A 
HETATM    6  C   LIG     1      18.606  38.940  20.078  1.00  0.00     0.001 A 
HETATM    7  C   LIG     1      18.404  37.655  19.567  1.00  0.00     0.001 A 
HETATM    8  C   LIG     1      18.044  36.608  20.420  1.00  0.00     0.012 A 
HETATM    9  C   LIG     1      17.885  36.842  21.796  1.00  0.00    -0.025 A 
HETATM   10  C   LIG     1      17.525  35.800  22.660  1.00  0.00     0.019 A 
HETATM   11  C   LIG     1      17.366  36.032  24.037  1.00  0.00    -0.055 A 
HETATM   12  C   LIG     1      16.978  34.888  24.938  1.00  0.00     0.049 C 
ENDROOT
TORSDOF 0
ENDMDL
MODEL 8
REMARK VINA RESULT:      -6.6      0.802      4.297
REMARK  0 active torsions:
REMARK  status: ('A' for Active; 'I' for Inactive)
ROOT
HETATM    1  C   LIG     1      16.887  34.819  25.461  1.00  0.00     0.049 C 
HETATM    2  C   LIG     1      17.239  35.851  24.421  1.00  0.00    -0.055 A 
HETATM    3  C   LIG     1      17.269  35.479  23.067  1.00  0.00     0.019 A 
HETATM    4  C   LIG     1      17.593  36.414  22.075  1.00  0.00    -0.025 A 
HETATM    5  C   LIG     1      17.622  36.041  20.721  1.00  0.00     0.012 A 
HETATM    6  C   LIG     1      17.947  36.982  19.741  1.00  0.00     0.001 A 
HETATM    7  C   LIG     1      18.243  38.299  20.100  1.00  0.00     0.001 A 
HETATM    8  C   LIG     1      18.217  38.683  21.445  1.00  0.00     0.012 A 
HETATM    9  C   LIG     1      17.893  37.747  22.439  1.00  0.00    -0.025 A 
HETATM   10  C   LIG     1      17.864  38.121  23.789  1.00  0.00     0.019 A 
HETATM   11  C   LIG     1      17.539  37.186  24.787  1.00  0.00    -0.055 A 
HETATM   12  C   LIG     1      17.518  37.622  26.229  1.00  0.00     0.049 C 
ENDROOT
TORSDOF 0
ENDMDL
MODEL 9
REMARK VINA RESULT:      -6.4      0.820      4.754
REMARK  0 active torsions:
REMARK  status: ('A' for Active; 'I' for Inactive)
ROOT
HETATM    1  C   LIG     1      18.121  37.460  26.618  1.00  0.00     0.049 C 
HETATM    2  C   LIG     1      17.783  36.802  25.305  1.00  0.00    -0.055 A 
HETATM    3  C   LIG     1      17.866  37.552  24.120  1.00  0.00     0.019 A 
HETATM    4  C   LIG     1      17.558  36.970  22.883  1.00  0.00    -0.025 A 
HETATM    5  C   LIG     1      17.642  37.721  21.698  1.00  0.00     0.012 A 
HETATM    6  C   LIG     1      17.333  37.131  20.470  1.00  0.00     0.001 A 
HETATM    7  C   LIG     1      16.940  35.791  20.412  1.00  0.00     0.001 A 
HETATM    8  C   LIG     1      16.853  35.034  21.584  1.00  0.00     0.012 A 
HETATM    9  C   LIG     1      17.161  35.615  22.824  1.00  0.00    -0.025 A 
HETATM   10  C   LIG     1      17.077  34.865  24.004  1.00  0.00     0.019 A 
HETATM   11  C   LIG     1      17.385  35.444  25.248  1.00  0.00    -0.055 A 
HETATM   12  C   LIG     1      17.284  34.608  26.497  1.00  0.00     0.049 C 
ENDROOT
TORSDOF 0
ENDMDL
MODEL 10
REMARK VINA RESULT:      -6.0      3.017      4.182
REMARK  0 active torsions:
REMARK  status: ('A' for Active; 'I' for Inactive)
ROOT
HETATM    1  C   LIG     1      20.010  38.489  19.553  1.00  0.00     0.049 C 
HETATM    2  C   LIG     1      18.818  37.884  20.248  1.00  0.00    -0.055 A 
HETATM    3  C   LIG     1      18.222  36.730  19.711  1.00  0.00     0.019 A 
HETATM    4  C   LIG     1      17.112  36.143  20.332  1.00  0.00    -0.025 A 
HETATM    5  C   LIG     1      16.517  34.990  19.794  1.00  0.00     0.012 A 
HETATM    6  C   LIG     1      15.411  34.412  20.422  1.00  0.00     0.001 A 
HETATM    7  C   LIG     1      14.890  34.978  21.589  1.00  0.00     0.001 A 
HETATM    8  C   LIG     1      15.473  36.125  22.135  1.00  0.00     0.012 A 
HETATM    9  C   LIG     1      16.586  36.715  21.513  1.00  0.00    -0.025 A 
HETATM   10  C   LIG     1      17.177  37.865  22.051  1.00  0.00     0.019 A 
HETATM   11  C   LIG     1      18.291  38.457  21.431  1.00  0.00    -0.055 A 
HETATM   12  C   LIG     1      18.903  39.693  22.036  1.00  0.00     0.049 C 
ENDROOT
TORSDOF 0
ENDMDL
MODEL 11
REMARK VINA RESULT:      -5.8      9.017     10.794
REMARK  0 active torsions:
REMARK  status: ('A' for Active; 'I' for Inactive)
ROOT
HETATM    1  C   LIG     1      17.556  34.696  15.282  1.00  0.00     0.049 C 
HETATM    2  C   LIG     1      16.724  33.484  14.949  1.00  0.00    -0.055 A 
HETATM    3  C   LIG     1      15.757  33.042  15.867  1.00  0.00     0.019 A 
HETATM    4  C   LIG     1      14.967  31.918  15.589  1.00  0.00    -0.025 A 
HETATM    5  C   LIG     1      14.000  31.478  16.507  1.00  0.00     0.012 A 
HETATM    6  C   LIG     1      13.218  30.356  16.219  1.00  0.00     0.001 A 
HETATM    7  C   LIG     1      13.394  29.666  15.015  1.00  0.00     0.001 A 
HETATM    8  C   LIG     1      14.353  30.095  14.093  1.00  0.00     0.012 A 
HETATM    9  C   LIG     1      15.145  31.221  14.372  1.00  0.00    -0.025 A 
HETATM   10  C   LIG     1      16.109  31.659  13.454  1.00  0.00     0.019 A 
HETATM   11  C   LIG     1      16.903  32.786  13.730  1.00  0.00    -0.055 A 
HETATM   12  C   LIG     1      17.930  33.230  12.722  1.00  0.00     0.049 C 
ENDROOT
TORSDOF 0
ENDMDL
MODEL 12
REMARK VINA RESULT:      -5.8      1.783      4.215
REMARK  0 active torsions:
REMARK  status: ('A' for Active; 'I' for Inactive)
ROOT
HETATM    1  C   LIG     1      17.799  38.176  24.787  1.00  0.00     0.049 C 
HETATM    2  C   LIG     1      17.512  37.550  23.446  1.00  0.00    -0.055 A 
HETATM    3  C   LIG     1      16.728  36.386  23.385  1.00  0.00     0.019 A 
HETATM    4  C   LIG     1      16.443  35.779  22.155  1.00  0.00    -0.025 A 
HETATM    5  C   LIG     1      15.660  34.615  22.095  1.00  0.00     0.012 A 
HETATM    6  C   LIG     1      15.382  34.019  20.862  1.00  0.00     0.001 A 
HETATM    7  C   LIG     1      15.881  34.576  19.682  1.00  0.00     0.001 A 
HETATM    8  C   LIG     1      16.663  35.735  19.729  1.00  0.00     0.012 A 
HETATM    9  C   LIG     1      16.949  36.344  20.961  1.00  0.00    -0.025 A 
HETATM   10  C   LIG     1      17.731  37.505  21.019  1.00  0.00     0.019 A 
HETATM   11  C   LIG     1      18.019  38.116  22.251  1.00  0.00    -0.055 A 
HETATM   12  C   LIG     1      18.863  39.364  22.277  1.00  0.00     0.049 C 
ENDROOT
TORSDOF 0
ENDMDL
MODEL 13
REMARK VINA RESULT:      -5.7      1.687      4.395
REMARK  0 active torsions:
REMARK  status: ('A' for Active; 'I' for Inactive)
ROOT
HETATM    1  C   LIG     1      18.787  39.353  22.537  1.00  0.00     0.049 C 
HETATM    2  C   LIG     1      17.968  38.092  22.432  1.00  0.00    -0.055 A 
HETATM    3  C   LIG     1      17.705  37.548  21.164  1.00  0.00     0.019 A 
HETATM    4  C   LIG     1      16.947  36.377  21.031  1.00  0.00    -0.025 A 
HETATM    5  C   LIG     1      16.685  35.833  19.763  1.00  0.00     0.012 A 
HETATM    6  C   LIG     1      15.928  34.665  19.643  1.00  0.00     0.001 A 
HETATM    7  C   LIG     1      15.428  34.030  20.783  1.00  0.00     0.001 A 
HETATM    8  C   LIG     1      15.682  34.561  22.051  1.00  0.00     0.012 A 
HETATM    9  C   LIG     1      16.442  35.734  22.185  1.00  0.00    -0.025 A 
HETATM   10  C   LIG     1      16.702  36.275  23.451  1.00  0.00     0.019 A 
HETATM   11  C   LIG     1      17.462  37.449  23.588  1.00  0.00    -0.055 A 
HETATM   12  C   LIG     1      17.724  38.003  24.964  1.00  0.00     0.049 C 
ENDROOT
TORSDOF 0
ENDMDL
MODEL 14
REMARK VINA RESULT:      -5.7      2.019      3.860
REMARK  0 active torsions:
REMARK  status: ('A' for Active; 'I' for Inactive)
ROOT
HETATM    1  C   LIG     1      15.807  34.606  18.804  1.00  0.00     0.049 C 
HETATM    2  C   LIG     1      16.142  35.278  20.111  1.00  0.00    -0.055 A 
HETATM    3  C   LIG     1      17.000  36.391  20.110  1.00  0.00     0.019 A 
HETATM    4  C   LIG     1      17.333  37.038  21.308  1.00  0.00    -0.025 A 
HETATM    5  C   LIG     1      18.190  38.150  21.306  1.00  0.00     0.012 A 
HETATM    6  C   LIG     1      18.515  38.788  22.506  1.00  0.00     0.001 A 
HETATM    7  C   LIG     1      17.988  38.324  23.715  1.00  0.00     0.001 A 
HETATM    8  C   LIG     1      17.133  37.218  23.729  1.00  0.00     0.012 A 
HETATM    9  C   LIG     1      16.799  36.569  22.530  1.00  0.00    -0.025 A 
HETATM   10  C   LIG     1      15.943  35.459  22.534  1.00  0.00     0.019 A 
HETATM   11  C   LIG     1      15.608  34.807  21.334  1.00  0.00    -0.055 A 
HETATM   12  C   LIG     1      14.684  33.617  21.375  1.00  0.00     0.049 C 
ENDROOT
TORSDOF 0
ENDMDL
MODEL 15
REMARK VINA RESULT:      -5.5      2.638      4.325
REMARK  0 active torsions:
REMARK  status: ('A' for Active; 'I' for Inactive)
ROOT
HETATM    1  C   LIG     1      14.582  34.304  21.626  1.00  0.00     0.049 C 
HETATM    2  C   LIG     1      15.666  35.287  21.265  1.00  0.00    -0.055 A 
HETATM    3  C   LIG     1      16.097  36.217  22.225  1.00  0.00     0.019 A 
HETATM    4  C   LIG     1      17.102  37.145  21.922  1.00  0.00    -0.025 A 
HETATM    5  C   LIG     1      17.533  38.074  22.883  1.00  0.00     0.012 A 
HETATM    6  C   LIG     1      18.536  38.995  22.569  1.00  0.00     0.001 A 
HETATM    7  C   LIG     1      19.117  38.996  21.298  1.00  0.00     0.001 A 
HETATM    8  C   LIG     1      18.697  38.076  20.332  1.00  0.00     0.012 A 
HETATM    9  C   LIG     1      17.690  37.146  20.636  1.00  0.00    -0.025 A 
HETATM   10  C   LIG     1      17.261  36.220  19.676  1.00  0.00     0.019 A 
HETATM   11  C   LIG     1      16.253  35.287  19.977  1.00  0.00    -0.055 A 
HETATM   12  C   LIG     1      15.817  34.306  18.921  1.00  0.00     0.049 C 
ENDROOT
TORSDOF 0
ENDMDL
MODEL 16
REMARK VINA RESULT:      -5.3      1.635      3.094
REMARK  0 active torsions:
REMARK  status: ('A' for Active; 'I' for Inactive)
ROOT
HETATM    1  C   LIG     1      18.266  37.001  18.807  1.00  0.00     0.049 C 
HETATM    2  C   LIG     1      17.790  36.930  20.235  1.00  0.00    -0.055 A 
HETATM    3  C   LIG     1      18.343  37.802  21.187  1.00  0.00     0.019 A 
HETATM    4  C   LIG     1      17.922  37.763  22.523  1.00  0.00    -0.025 A 
HETATM    5  C   LIG     1      18.476  38.635  23.474  1.00  0.00     0.012 A 
HETATM    6  C   LIG     1      18.049  38.587  24.804  1.00  0.00     0.001 A 
HETATM    7  C   LIG     1      17.069  37.670  25.195  1.00  0.00     0.001 A 
HETATM    8  C   LIG     1      16.510  36.796  24.258  1.00  0.00     0.012 A 
HETATM    9  C   LIG     1      16.931  36.836  22.919  1.00  0.00    -0.025 A 
HETATM   10  C   LIG     1      16.378  35.964  21.972  1.00  0.00     0.019 A 
HETATM   11  C   LIG     1      16.797  36.001  20.630  1.00  0.00    -0.055 A 
HETATM   12  C   LIG     1      16.181  35.050  19.638  1.00  0.00     0.049 C 
ENDROOT
TORSDOF 0
ENDMDL
