MODEL 1
REMARK VINA RESULT:      -7.3      0.000      0.000
REMARK  0 active torsions:
REMARK  status: ('A' for Active; 'I' for Inactive)
ROOT
HETATM    1  C   LIG     1      18.564  39.511  20.039  1.00  0.00     0.048 C 
HETATM    2  C   LIG     1      18.205  38.456  21.043  1.00  0.00    -0.061 A 
HETATM    3  C   LIG     1      18.347  38.725  22.413  1.00  0.00     0.019 A 
HETATM    4  C   LIG     1      18.016  37.750  23.366  1.00  0.00    -0.025 A 
HETATM    5  C   LIG     1      18.160  38.011  24.736  1.00  0.00     0.013 A 
HETATM    6  C   LIG     1      17.829  37.034  25.677  1.00  0.00     0.007 A 
HETATM    7  C   LIG     1      17.336  35.787  25.264  1.00  0.00    -0.061 A 
HETATM    8  C   LIG     1      17.019  34.727  26.278  1.00  0.00     0.048 C 
HETATM    9  C   LIG     1      17.207  35.512  23.894  1.00  0.00     0.019 A 
HETATM   10  C   LIG     1      17.537  36.488  22.942  1.00  0.00    -0.025 A 
HETATM   11  C   LIG     1      17.399  36.224  21.571  1.00  0.00     0.013 A 
HETATM   12  C   LIG     1      17.730  37.203  20.628  1.00  0.00     0.007 A 
ENDROOT
TORSDOF 0
ENDMDL
MODEL 2
REMARK VINA RESULT:      -7.3      0.089      4.916
REMARK  0 active torsions:
REMARK  status: ('A' for Active; 'I' for Inactive)
ROOT
HETATM    1  C   LIG     1      16.978  34.634  26.211  1.00  0.00     0.048 C 
HETATM    2  C   LIG     1      17.311  35.718  25.229  1.00  0.00    -0.061 A 
HETATM    3  C   LIG     1      17.203  35.465  23.853  1.00  0.00     0.019 A 
HETATM    4  C   LIG     1      17.510  36.467  22.921  1.00  0.00    -0.025 A 
HETATM    5  C   LIG     1      17.409  36.219  21.545  1.00  0.00     0.013 A 
HETATM    6  C   LIG     1      17.718  37.223  20.624  1.00  0.00     0.007 A 
HETATM    7  C   LIG     1      18.118  38.493  21.065  1.00  0.00    -0.061 A 
HETATM    8  C   LIG     1      18.486  39.555  20.071  1.00  0.00     0.048 C 
HETATM    9  C   LIG     1      18.239  38.743  22.441  1.00  0.00     0.019 A 
HETATM   10  C   LIG     1      17.931  37.740  23.372  1.00  0.00    -0.025 A 
HETATM   11  C   LIG     1      18.038  37.987  24.749  1.00  0.00     0.013 A 
HETATM   12  C   LIG     1      17.729  36.983  25.671  1.00  0.00     0.007 A 
ENDROOT
TORSDOF 0
ENDMDL
MODEL 3
REMARK VINA RESULT:      -6.9      1.098      4.811
REMARK  0 active torsions:
REMARK  status: ('A' for Active; 'I' for Inactive)
ROOT
HETATM    1  C   LIG     1      16.786  35.638  24.796  1.00  0.00     0.048 C 
HETATM    2  C   LIG     1      17.181  36.076  23.417  1.00  0.00    -0.061 A 
HETATM    3  C   LIG     1      17.628  37.390  23.208  1.00  0.00     0.019 A 
HETATM    4  C   LIG     1      18.001  37.816  21.924  1.00  0.00    -0.025 A 
HETATM    5  C   LIG     1      18.443  39.129  21.708  1.00  0.00     0.013 A 
HETATM    6  C   LIG     1      18.813  39.545  20.426  1.00  0.00     0.007 A 
HETATM    7  C   LIG     1      18.759  38.652  19.346  1.00  0.00    -0.061 A 
HETATM    8  C   LIG     1      19.120  39.115  17.966  1.00  0.00     0.048 C 
HETATM    9  C   LIG     1      18.299  37.341  19.552  1.00  0.00     0.019 A 
HETATM   10  C   LIG     1      17.927  36.915  20.836  1.00  0.00    -0.025 A 
HETATM   11  C   LIG     1      17.478  35.604  21.051  1.00  0.00     0.013 A 
HETATM   12  C   LIG     1      17.109  35.187  22.333  1.00  0.00     0.007 A 
ENDROOT
TORSDOF 0
ENDMDL
MODEL 4
REMARK VINA RESULT:      -6.9      1.236      2.335
REMARK  0 active torsions:
REMARK  status: ('A' for Active; 'I' for Inactive)
ROOT
HETATM    1  C   LIG     1      19.414  39.395  17.642  1.00  0.00     0.048 C 
HETATM    2  C   LIG     1      18.922  38.657  18.852  1.00  0.00    -0.061 A 
HETATM    3  C   LIG     1      18.726  39.350  20.056  1.00  0.00     0.019 A 
HETATM    4  C   LIG     1      18.267  38.674  21.197  1.00  0.00    -0.025 A 
HETATM    5  C   LIG     1      18.073  39.361  22.404  1.00  0.00     0.013 A 
HETATM    6  C   LIG     1      17.616  38.680  23.535  1.00  0.00     0.007 A 
HETATM    7  C   LIG     1      17.333  37.307  23.472  1.00  0.00    -0.061 A 
HETATM    8  C   LIG     1      16.880  36.574  24.700  1.00  0.00     0.048 C 
HETATM    9  C   LIG     1      17.542  36.611  22.272  1.00  0.00     0.019 A 
HETATM   10  C   LIG     1      18.000  37.287  21.131  1.00  0.00    -0.025 A 
HETATM   11  C   LIG     1      18.200  36.599  19.925  1.00  0.00     0.013 A 
HETATM   12  C   LIG     1      18.657  37.280  18.793  1.00  0.00     0.007 A 
ENDROOT
TORSDOF 0
ENDMDL
MODEL 5
REMARK VINA RESULT:      -6.8      1.086      2.712
REMARK  0 active torsions:
REMARK  status: ('A' for Active; 'I' for Inactive)
ROOT
HETATM    1  C   LIG     1      19.097  39.174  18.033  1.00  0.00     0.048 C 
HETATM    2  C   LIG     1      18.725  38.709  19.410  1.00  0.00    -0.061 A 
HETATM    3  C   LIG     1      18.259  37.399  19.597  1.00  0.00     0.019 A 
HETATM    4  C   LIG     1      17.906  36.948  20.878  1.00  0.00    -0.025 A 
HETATM    5  C   LIG     1      17.435  35.642  21.071  1.00  0.00     0.013 A 
HETATM    6  C   LIG     1      17.086  35.201  22.350  1.00  0.00     0.007 A 
HETATM    7  C   LIG     1      17.216  36.054  23.456  1.00  0.00    -0.061 A 
HETATM    8  C   LIG     1      16.804  35.588  24.821  1.00  0.00     0.048 C 
HETATM    9  C   LIG     1      17.670  37.369  23.268  1.00  0.00     0.019 A 
HETATM   10  C   LIG     1      18.023  37.819  21.986  1.00  0.00    -0.025 A 
HETATM   11  C   LIG     1      18.489  39.128  21.793  1.00  0.00     0.013 A 
HETATM   12  C   LIG     1      18.838  39.570  20.513  1.00  0.00     0.007 A 
ENDROOT
TORSDOF 0
ENDMDL
MODEL 6
REMARK VINA RESULT:      -6.8      1.229      5.325
REMARK  0 active torsions:
REMARK  status: ('A' for Active; 'I' for Inactive)
ROOT
HETATM    1  C   LIG     1      16.849  36.499  24.674  1.00  0.00     0.048 C 
HETATM    2  C   LIG     1      17.343  37.246  23.470  1.00  0.00    -0.061 A 
HETATM    3  C   LIG     1      17.515  36.567  22.254  1.00  0.00     0.019 A 
HETATM    4  C   LIG     1      17.976  37.250  21.119  1.00  0.00    -0.025 A 
HETATM    5  C   LIG     1      18.154  36.575  19.903  1.00  0.00     0.013 A 
HETATM    6  C   LIG     1      18.614  37.264  18.777  1.00  0.00     0.007 A 
HETATM    7  C   LIG     1      18.889  38.638  18.847  1.00  0.00    -0.061 A 
HETATM    8  C   LIG     1      19.420  39.363  17.646  1.00  0.00     0.048 C 
HETATM    9  C   LIG     1      18.731  39.315  20.066  1.00  0.00     0.019 A 
HETATM   10  C   LIG     1      18.268  38.631  21.201  1.00  0.00    -0.025 A 
HETATM   11  C   LIG     1      18.096  39.305  22.420  1.00  0.00     0.013 A 
HETATM   12  C   LIG     1      17.636  38.617  23.546  1.00  0.00     0.007 A 
ENDROOT
TORSDOF 0
ENDMDL
MODEL 7
REMARK VINA RESULT:      -6.4      1.372      4.353
REMARK  0 active torsions:
REMARK  status: ('A' for Active; 'I' for Inactive)
ROOT
HETATM    1  C   LIG     1      18.699  37.045  27.157  1.00  0.00     0.048 C 
HETATM    2  C   LIG     1      18.129  36.493  25.884  1.00  0.00    -0.061 A 
HETATM    3  C   LIG     1      18.009  37.324  24.760  1.00  0.00     0.019 A 
HETATM    4  C   LIG     1      17.477  36.823  23.561  1.00  0.00    -0.025 A 
HETATM    5  C   LIG     1      17.351  37.650  22.436  1.00  0.00     0.013 A 
HETATM    6  C   LIG     1      16.820  37.144  21.247  1.00  0.00     0.007 A 
HETATM    7  C   LIG     1      16.421  35.801  21.162  1.00  0.00    -0.061 A 
HETATM    8  C   LIG     1      15.816  35.273  19.895  1.00  0.00     0.048 C 
HETATM    9  C   LIG     1      16.528  34.973  22.290  1.00  0.00     0.019 A 
HETATM   10  C   LIG     1      17.061  35.474  23.488  1.00  0.00    -0.025 A 
HETATM   11  C   LIG     1      17.181  34.648  24.616  1.00  0.00     0.013 A 
HETATM   12  C   LIG     1      17.713  35.155  25.805  1.00  0.00     0.007 A 
ENDROOT
TORSDOF 0
ENDMDL
MODEL 8
REMARK VINA RESULT:      -6.4      1.378      2.820
REMARK  0 active torsions:
REMARK  status: ('A' for Active; 'I' for Inactive)
ROOT
HETATM    1  C   LIG     1      15.785  35.244  19.909  1.00  0.00     0.048 C 
HETATM    2  C   LIG     1      16.370  35.804  21.172  1.00  0.00    -0.061 A 
HETATM    3  C   LIG     1      16.505  34.980  22.299  1.00  0.00     0.019 A 
HETATM    4  C   LIG     1      17.050  35.488  23.488  1.00  0.00    -0.025 A 
HETATM    5  C   LIG     1      17.183  34.670  24.619  1.00  0.00     0.013 A 
HETATM    6  C   LIG     1      17.726  35.185  25.799  1.00  0.00     0.007 A 
HETATM    7  C   LIG     1      18.156  36.519  25.861  1.00  0.00    -0.061 A 
HETATM    8  C   LIG     1      18.702  37.077  27.143  1.00  0.00     0.048 C 
HETATM    9  C   LIG     1      18.008  37.348  24.738  1.00  0.00     0.019 A 
HETATM   10  C   LIG     1      17.464  36.839  23.549  1.00  0.00    -0.025 A 
HETATM   11  C   LIG     1      17.325  37.659  22.419  1.00  0.00     0.013 A 
HETATM   12  C   LIG     1      16.782  37.144  21.238  1.00  0.00     0.007 A 
ENDROOT
TORSDOF 0
ENDMDL
MODEL 9
REMARK VINA RESULT:      -6.4      9.131     11.164
REMARK  0 active torsions:
REMARK  status: ('A' for Active; 'I' for Inactive)
ROOT
HETATM    1  C   LIG     1      15.287  34.226  17.227  1.00  0.00     0.048 C 
HETATM    2  C   LIG     1      14.734  32.959  16.645  1.00  0.00    -0.061 A 
HETATM    3  C   LIG     1      15.474  32.259  15.679  1.00  0.00     0.019 A 
HETATM    4  C   LIG     1      14.972  31.073  15.124  1.00  0.00    -0.025 A 
HETATM    5  C   LIG     1      15.704  30.371  14.155  1.00  0.00     0.013 A 
HETATM    6  C   LIG     1      15.196  29.191  13.607  1.00  0.00     0.007 A 
HETATM    7  C   LIG     1      13.957  28.687  14.029  1.00  0.00    -0.061 A 
HETATM    8  C   LIG     1      13.399  27.440  13.409  1.00  0.00     0.048 C 
HETATM    9  C   LIG     1      13.210  29.393  14.985  1.00  0.00     0.019 A 
HETATM   10  C   LIG     1      13.713  30.580  15.541  1.00  0.00    -0.025 A 
HETATM   11  C   LIG     1      12.977  31.284  16.505  1.00  0.00     0.013 A 
HETATM   12  C   LIG     1      13.485  32.466  17.054  1.00  0.00     0.007 A 
ENDROOT
TORSDOF 0
ENDMDL
MODEL 10
REMARK VINA RESULT:      -6.2      8.783     10.354
REMARK  0 active torsions:
REMARK  status: ('A' for Active; 'I' for Inactive)
ROOT
HETATM    1  C   LIG     1      18.829  34.042  12.448  1.00  0.00     0.048 C 
HETATM    2  C   LIG     1      17.797  33.532  13.409  1.00  0.00    -0.061 A 
HETATM    3  C   LIG     1      17.029  32.407  13.071  1.00  0.00     0.019 A 
HETATM    4  C   LIG     1      16.059  31.917  13.958  1.00  0.00    -0.025 A 
HETATM    5  C   LIG     1      15.286  30.796  13.623  1.00  0.00     0.013 A 
HETATM    6  C   LIG     1      14.322  30.315  14.513  1.00  0.00     0.007 A 
HETATM    7  C   LIG     1      14.127  30.938  15.755  1.00  0.00    -0.061 A 
HETATM    8  C   LIG     1      13.064  30.440  16.689  1.00  0.00     0.048 C 
HETATM    9  C   LIG     1      14.885  32.071  16.089  1.00  0.00     0.019 A 
HETATM   10  C   LIG     1      15.856  32.560  15.201  1.00  0.00    -0.025 A 
HETATM   11  C   LIG     1      16.625  33.685  15.534  1.00  0.00     0.013 A 
HETATM   12  C   LIG     1      17.590  34.167  14.644  1.00  0.00     0.007 A 
ENDROOT
TORSDOF 0
ENDMDL
MODEL 11
REMARK VINA RESULT:      -6.2      8.800     10.891
REMARK  0 active torsions:
REMARK  status: ('A' for Active; 'I' for Inactive)
ROOT
HETATM    1  C   LIG     1      13.054  30.451  16.709  1.00  0.00     0.048 C 
HETATM    2  C   LIG     1      14.095  30.944  15.748  1.00  0.00    -0.061 A 
HETATM    3  C   LIG     1      14.879  32.057  16.086  1.00  0.00     0.019 A 
HETATM    4  C   LIG     1      15.857  32.531  15.199  1.00  0.00    -0.025 A 
HETATM    5  C   LIG     1      16.641  33.647  15.529  1.00  0.00     0.013 A 
HETATM    6  C   LIG     1      17.612  34.112  14.640  1.00  0.00     0.007 A 
HETATM    7  C   LIG     1      17.825  33.462  13.415  1.00  0.00    -0.061 A 
HETATM    8  C   LIG     1      18.842  33.990  12.447  1.00  0.00     0.048 C 
HETATM    9  C   LIG     1      17.032  32.356  13.070  1.00  0.00     0.019 A 
HETATM   10  C   LIG     1      16.054  31.882  13.958  1.00  0.00    -0.025 A 
HETATM   11  C   LIG     1      15.266  30.770  13.625  1.00  0.00     0.013 A 
HETATM   12  C   LIG     1      14.294  30.304  14.515  1.00  0.00     0.007 A 
ENDROOT
TORSDOF 0
ENDMDL
MODEL 12
REMARK VINA RESULT:      -6.0      8.923     10.990
REMARK  0 active torsions:
REMARK  status: ('A' for Active; 'I' for Inactive)
ROOT
HETATM    1  C   LIG     1      14.881  34.416  17.355  1.00  0.00     0.048 C 
HETATM    2  C   LIG     1      15.081  33.208  16.490  1.00  0.00    -0.061 A 
HETATM    3  C   LIG     1      14.053  32.261  16.371  1.00  0.00     0.019 A 
HETATM    4  C   LIG     1      14.224  31.125  15.566  1.00  0.00    -0.025 A 
HETATM    5  C   LIG     1      13.202  30.172  15.447  1.00  0.00     0.013 A 
HETATM    6  C   LIG     1      13.381  29.044  14.643  1.00  0.00     0.007 A 
HETATM    7  C   LIG     1      14.578  28.858  13.936  1.00  0.00    -0.061 A 
HETATM    8  C   LIG     1      14.779  27.625  13.105  1.00  0.00     0.048 C 
HETATM    9  C   LIG     1      15.612  29.798  14.064  1.00  0.00     0.019 A 
HETATM   10  C   LIG     1      15.440  30.934  14.869  1.00  0.00    -0.025 A 
HETATM   11  C   LIG     1      16.466  31.884  14.993  1.00  0.00     0.013 A 
HETATM   12  C   LIG     1      16.287  33.013  15.797  1.00  0.00     0.007 A 
ENDROOT
TORSDOF 0
ENDMDL
MODEL 13
REMARK VINA RESULT:      -5.7      1.481      4.486
REMARK  0 active torsions:
REMARK  status: ('A' for Active; 'I' for Inactive)
ROOT
HETATM    1  C   LIG     1      18.318  36.994  26.833  1.00  0.00     0.048 C 
HETATM    2  C   LIG     1      17.904  36.950  25.392  1.00  0.00    -0.061 A 
HETATM    3  C   LIG     1      17.462  35.741  24.834  1.00  0.00     0.019 A 
HETATM    4  C   LIG     1      17.071  35.682  23.488  1.00  0.00    -0.025 A 
HETATM    5  C   LIG     1      16.634  34.475  22.923  1.00  0.00     0.013 A 
HETATM    6  C   LIG     1      16.246  34.425  21.581  1.00  0.00     0.007 A 
HETATM    7  C   LIG     1      16.277  35.583  20.790  1.00  0.00    -0.061 A 
HETATM    8  C   LIG     1      15.897  35.515  19.340  1.00  0.00     0.048 C 
HETATM    9  C   LIG     1      16.731  36.790  21.343  1.00  0.00     0.019 A 
HETATM   10  C   LIG     1      17.121  36.849  22.690  1.00  0.00    -0.025 A 
HETATM   11  C   LIG     1      17.565  38.055  23.253  1.00  0.00     0.013 A 
HETATM   12  C   LIG     1      17.952  38.105  24.595  1.00  0.00     0.007 A 
ENDROOT
TORSDOF 0
ENDMDL
MODEL 14
REMARK VINA RESULT:      -5.7      2.453      4.764
REMARK  0 active torsions:
REMARK  status: ('A' for Active; 'I' for Inactive)
ROOT
HETATM    1  C   LIG     1      15.135  32.894  19.969  1.00  0.00     0.048 C 
HETATM    2  C   LIG     1      15.645  34.189  20.529  1.00  0.00    -0.061 A 
HETATM    3  C   LIG     1      16.710  34.848  19.896  1.00  0.00     0.019 A 
HETATM    4  C   LIG     1      17.199  36.059  20.408  1.00  0.00    -0.025 A 
HETATM    5  C   LIG     1      18.266  36.720  19.783  1.00  0.00     0.013 A 
HETATM    6  C   LIG     1      18.747  37.926  20.299  1.00  0.00     0.007 A 
HETATM    7  C   LIG     1      18.159  38.496  21.438  1.00  0.00    -0.061 A 
HETATM    8  C   LIG     1      18.704  39.771  22.010  1.00  0.00     0.048 C 
HETATM    9  C   LIG     1      17.102  37.831  22.079  1.00  0.00     0.019 A 
HETATM   10  C   LIG     1      16.613  36.620  21.567  1.00  0.00    -0.025 A 
HETATM   11  C   LIG     1      15.549  35.956  22.196  1.00  0.00     0.013 A 
HETATM   12  C   LIG     1      15.068  34.749  21.680  1.00  0.00     0.007 A 
ENDROOT
TORSDOF 0
ENDMDL
MODEL 15
REMARK VINA RESULT:      -5.6      2.475      3.663
REMARK  0 active torsions:
REMARK  status: ('A' for Active; 'I' for Inactive)
ROOT
HETATM    1  C   LIG     1      18.666  39.809  22.002  1.00  0.00     0.048 C 
HETATM    2  C   LIG     1      18.160  38.506  21.458  1.00  0.00    -0.061 A 
HETATM    3  C   LIG     1      17.069  37.874  22.073  1.00  0.00     0.019 A 
HETATM    4  C   LIG     1      16.583  36.654  21.578  1.00  0.00    -0.025 A 
HETATM    5  C   LIG     1      15.496  36.016  22.191  1.00  0.00     0.013 A 
HETATM    6  C   LIG     1      15.019  34.802  21.691  1.00  0.00     0.007 A 
HETATM    7  C   LIG     1      15.613  34.216  20.562  1.00  0.00    -0.061 A 
HETATM    8  C   LIG     1      15.122  32.893  20.053  1.00  0.00     0.048 C 
HETATM    9  C   LIG     1      16.713  34.840  19.955  1.00  0.00     0.019 A 
HETATM   10  C   LIG     1      17.198  36.060  20.451  1.00  0.00    -0.025 A 
HETATM   11  C   LIG     1      18.290  36.696  19.840  1.00  0.00     0.013 A 
HETATM   12  C   LIG     1      18.767  37.911  20.341  1.00  0.00     0.007 A 
ENDROOT
TORSDOF 0
ENDMDL
MODEL 16
REMARK VINA RESULT:      -5.6      1.451      2.498
REMARK  0 active torsions:
REMARK  status: ('A' for Active; 'I' for Inactive)
ROOT
HETATM    1  C   LIG     1      16.017  35.543  19.281  1.00  0.00     0.048 C 
HETATM    2  C   LIG     1      16.384  35.560  20.736  1.00  0.00    -0.061 A 
HETATM    3  C   LIG     1      16.836  36.751  21.324  1.00  0.00     0.019 A 
HETATM    4  C   LIG     1      17.184  36.784  22.683  1.00  0.00    -0.025 A 
HETATM    5  C   LIG     1      17.641  37.970  23.275  1.00  0.00     0.013 A 
HETATM    6  C   LIG     1      17.985  37.993  24.629  1.00  0.00     0.007 A 
HETATM    7  C   LIG     1      17.864  36.836  25.413  1.00  0.00    -0.061 A 
HETATM    8  C   LIG     1      18.272  36.858  26.856  1.00  0.00     0.048 C 
HETATM    9  C   LIG     1      17.425  35.641  24.822  1.00  0.00     0.019 A 
HETATM   10  C   LIG     1      17.077  35.609  23.463  1.00  0.00    -0.025 A 
HETATM   11  C   LIG     1      16.625  34.421  22.870  1.00  0.00     0.013 A 
HETATM   12  C   LIG     1      16.281  34.397  21.515  1.00  0.00     0.007 A 
ENDROOT
TORSDOF 0
ENDMDL
MODEL 17
REMARK VINA RESULT:      -5.5      8.359      9.791
REMARK  0 active torsions:
REMARK  status: ('A' for Active; 'I' for Inactive)
ROOT
HETATM    1  C   LIG     1      18.711  34.064  13.427  1.00  0.00     0.048 C 
HETATM    2  C   LIG     1      17.536  33.239  13.862  1.00  0.00    -0.061 A 
HETATM    3  C   LIG     1      17.005  33.412  15.149  1.00  0.00     0.019 A 
HETATM    4  C   LIG     1      15.906  32.648  15.572  1.00  0.00    -0.025 A 
HETATM    5  C   LIG     1      15.374  32.813  16.859  1.00  0.00     0.013 A 
HETATM    6  C   LIG     1      14.280  32.049  17.271  1.00  0.00     0.007 A 
HETATM    7  C   LIG     1      13.693  31.119  16.399  1.00  0.00    -0.061 A 
HETATM    8  C   LIG     1      12.544  30.273  16.861  1.00  0.00     0.048 C 
HETATM    9  C   LIG     1      14.232  30.936  15.116  1.00  0.00     0.019 A 
HETATM   10  C   LIG     1      15.331  31.700  14.694  1.00  0.00    -0.025 A 
HETATM   11  C   LIG     1      15.866  31.530  13.408  1.00  0.00     0.013 A 
HETATM   12  C   LIG     1      16.961  32.296  12.995  1.00  0.00     0.007 A 
ENDROOT
TORSDOF 0
ENDMDL
MODEL 18
REMARK VINA RESULT:      -5.5      6.091      7.905
REMARK  0 active torsions:
REMARK  status: ('A' for Active; 'I' for Inactive)
ROOT
HETATM    1  C   LIG     1      13.775  30.241  15.101  1.00  0.00     0.048 C 
HETATM    2  C   LIG     1      14.270  31.277  16.065  1.00  0.00    -0.061 A 
HETATM    3  C   LIG     1      14.167  31.047  17.445  1.00  0.00     0.019 A 
HETATM    4  C   LIG     1      14.625  32.007  18.361  1.00  0.00    -0.025 A 
HETATM    5  C   LIG     1      14.519  31.784  19.741  1.00  0.00     0.013 A 
HETATM    6  C   LIG     1      14.978  32.745  20.646  1.00  0.00     0.007 A 
HETATM    7  C   LIG     1      15.561  33.935  20.184  1.00  0.00    -0.061 A 
HETATM    8  C   LIG     1      16.016  34.980  21.160  1.00  0.00     0.048 C 
HETATM    9  C   LIG     1      15.653  34.172  18.804  1.00  0.00     0.019 A 
HETATM   10  C   LIG     1      15.195  33.212  17.889  1.00  0.00    -0.025 A 
HETATM   11  C   LIG     1      15.295  33.437  16.507  1.00  0.00     0.013 A 
HETATM   12  C   LIG     1      14.836  32.476  15.602  1.00  0.00     0.007 A 
ENDROOT
TORSDOF 0
ENDMDL
MODEL 19
REMARK VINA RESULT:      -5.4      5.415      7.653
REMARK  0 active torsions:
REMARK  status: ('A' for Active; 'I' for Inactive)
ROOT
HETATM    1  C   LIG     1      16.109  35.903  21.356  1.00  0.00     0.048 C 
HETATM    2  C   LIG     1      15.676  34.767  20.478  1.00  0.00    -0.061 A 
HETATM    3  C   LIG     1      15.705  34.917  19.083  1.00  0.00     0.019 A 
HETATM    4  C   LIG     1      15.303  33.864  18.248  1.00  0.00    -0.025 A 
HETATM    5  C   LIG     1      15.325  34.010  16.853  1.00  0.00     0.013 A 
HETATM    6  C   LIG     1      14.923  32.956  16.029  1.00  0.00     0.007 A 
HETATM    7  C   LIG     1      14.507  31.737  16.585  1.00  0.00    -0.061 A 
HETATM    8  C   LIG     1      14.039  30.623  15.696  1.00  0.00     0.048 C 
HETATM    9  C   LIG     1      14.465  31.591  17.980  1.00  0.00     0.019 A 
HETATM   10  C   LIG     1      14.867  32.644  18.816  1.00  0.00    -0.025 A 
HETATM   11  C   LIG     1      14.839  32.500  20.211  1.00  0.00     0.013 A 
HETATM   12  C   LIG     1      15.241  33.554  21.036  1.00  0.00     0.007 A 
ENDROOT
TORSDOF 0
ENDMDL
MODEL 20
REMARK VINA RESULT:      -5.3      2.000      4.343
REMARK  0 active torsions:
REMARK  status: ('A' for Active; 'I' for Inactive)
ROOT
HETATM    1  C   LIG     1      14.503  33.080  21.273  1.00  0.00     0.048 C 
HETATM    2  C   LIG     1      15.395  34.277  21.129  1.00  0.00    -0.061 A 
HETATM    3  C   LIG     1      15.671  35.075  22.249  1.00  0.00     0.019 A 
HETATM    4  C   LIG     1      16.503  36.199  22.132  1.00  0.00    -0.025 A 
HETATM    5  C   LIG     1      16.779  37.003  23.248  1.00  0.00     0.013 A 
HETATM    6  C   LIG     1      17.608  38.121  23.122  1.00  0.00     0.007 A 
HETATM    7  C   LIG     1      18.184  38.442  21.883  1.00  0.00    -0.061 A 
HETATM    8  C   LIG     1      19.042  39.665  21.746  1.00  0.00     0.048 C 
HETATM    9  C   LIG     1      17.898  37.652  20.759  1.00  0.00     0.019 A 
HETATM   10  C   LIG     1      17.066  36.528  20.877  1.00  0.00    -0.025 A 
HETATM   11  C   LIG     1      16.785  35.728  19.760  1.00  0.00     0.013 A 
HETATM   12  C   LIG     1      15.956  34.609  19.886  1.00  0.00     0.007 A 
ENDROOT
TORSDOF 0
ENDMDL
