REMARK  0 active torsions:
REMARK  status: ('A' for Active; 'I' for Inactive)
ROOT
HETATM    1  C   LIG     1      -2.480   1.733  -0.513  1.00  0.00     0.049 C 
HETATM    2  C   LIG     1      -1.296   0.842  -0.239  1.00  0.00    -0.055 A 
HETATM    3  C   LIG     1      -0.009   1.283  -0.590  1.00  0.00     0.019 A 
HETATM    4  C   LIG     1       1.113   0.479  -0.349  1.00  0.00    -0.025 A 
HETATM    5  C   LIG     1       2.399   0.921  -0.700  1.00  0.00     0.012 A 
HETATM    6  C   LIG     1       3.511   0.111  -0.455  1.00  0.00     0.001 A 
HETATM    7  C   LIG     1       3.350  -1.143   0.141  1.00  0.00     0.001 A 
HETATM    8  C   LIG     1       2.075  -1.594   0.495  1.00  0.00     0.012 A 
HETATM    9  C   LIG     1       0.950  -0.789   0.254  1.00  0.00    -0.025 A 
HETATM   10  C   LIG     1      -0.332  -1.232   0.605  1.00  0.00     0.019 A 
HETATM   11  C   LIG     1      -1.460  -0.428   0.365  1.00  0.00    -0.055 A 
HETATM   12  C   LIG     1      -2.824  -0.935   0.755  1.00  0.00     0.049 C 
ENDROOT
TORSDOF 0
