REMARK  4 active torsions:
REMARK  status: ('A' for Active; 'I' for Inactive)
REMARK    1  A    between atoms: C_2  and  C_5 
REMARK    2  A    between atoms: C_2  and  O_3 
REMARK    3  A    between atoms: C_6  and  C_7 
REMARK    4  A    between atoms: C_7  and  O_8 
ROOT
HETATM    1  C   LIG     1      -0.366  -0.214   0.709  1.00  0.00     0.107 C 
HETATM    2  C   LIG     1       0.584   0.417  -0.355  1.00  0.00     0.107 C 
HETATM    3  C   LIG     1      -1.351   0.951   0.996  1.00  0.00     0.023 C 
HETATM    4  C   LIG     1      -1.427   1.654  -0.351  1.00  0.00     0.018 C 
HETATM    5  C   LIG     1       0.070   1.882  -0.425  1.00  0.00     0.023 C 
HETATM    6  C   LIG     1       0.280   2.546   0.916  1.00  0.00    -0.025 C 
HETATM    7  C   LIG     1      -0.580   1.988   1.768  1.00  0.00    -0.025 C 
ENDROOT
BRANCH   1   8
HETATM    8  C   LIG     1      -1.045  -1.458   0.195  1.00  0.00     0.264 C 
HETATM    9  O   LIG     1      -0.413  -2.549   0.200  1.00  0.00    -0.265 OA
BRANCH   8  10
HETATM   10  O   LIG     1      -2.348  -1.399  -0.314  1.00  0.00    -0.326 OA
HETATM   11  C   LIG     1      -3.020  -2.540  -0.832  1.00  0.00     0.213 C 
ENDBRANCH   8  10
ENDBRANCH   1   8
BRANCH   2  12
HETATM   12  C   LIG     1       2.043   0.268   0.001  1.00  0.00     0.264 C 
HETATM   13  O   LIG     1       2.794   1.279   0.086  1.00  0.00    -0.265 OA
BRANCH  12  14
HETATM   14  O   LIG     1       2.560  -1.015   0.203  1.00  0.00    -0.326 OA
HETATM   15  C   LIG     1       3.922  -1.248   0.539  1.00  0.00     0.213 C 
ENDBRANCH  12  14
ENDBRANCH   2  12
TORSDOF 4
