MODEL 1
REMARK VINA RESULT:      -6.1      0.000      0.000
REMARK  0 active torsions:
REMARK  status: ('A' for Active; 'I' for Inactive)
ROOT
HETATM    1 BR   LIG     1      16.551  35.260  22.240  1.00  0.00    -0.050 Br
HETATM    2  C   LIG     1      17.177  35.823  23.961  1.00  0.00     0.028 A 
HETATM    3  C   LIG     1      17.441  34.849  24.930  1.00  0.00     0.020 A 
HETATM    4  C   LIG     1      17.899  35.220  26.198  1.00  0.00     0.001 A 
HETATM    5  C   LIG     1      18.097  36.569  26.501  1.00  0.00     0.001 A 
HETATM    6  C   LIG     1      17.837  37.548  25.539  1.00  0.00     0.020 A 
HETATM    7  C   LIG     1      17.377  37.183  24.266  1.00  0.00     0.028 A 
HETATM    8 BR   LIG     1      17.035  38.564  22.983  1.00  0.00    -0.050 Br
ENDROOT
TORSDOF 0
ENDMDL
MODEL 2
REMARK VINA RESULT:      -6.1      0.038      2.421
REMARK  0 active torsions:
REMARK  status: ('A' for Active; 'I' for Inactive)
ROOT
HETATM    1 BR   LIG     1      17.116  38.563  22.962  1.00  0.00    -0.050 Br
HETATM    2  C   LIG     1      17.418  37.184  24.258  1.00  0.00     0.028 A 
HETATM    3  C   LIG     1      17.875  37.548  25.530  1.00  0.00     0.020 A 
HETATM    4  C   LIG     1      18.107  36.571  26.502  1.00  0.00     0.001 A 
HETATM    5  C   LIG     1      17.882  35.224  26.207  1.00  0.00     0.001 A 
HETATM    6  C   LIG     1      17.424  34.853  24.939  1.00  0.00     0.020 A 
HETATM    7  C   LIG     1      17.190  35.827  23.959  1.00  0.00     0.028 A 
HETATM    8 BR   LIG     1      16.565  35.266  22.238  1.00  0.00    -0.050 Br
ENDROOT
TORSDOF 0
ENDMDL
MODEL 3
REMARK VINA RESULT:      -5.7      3.856      4.778
REMARK  0 active torsions:
REMARK  status: ('A' for Active; 'I' for Inactive)
ROOT
HETATM    1 BR   LIG     1      16.803  35.465  21.242  1.00  0.00    -0.050 Br
HETATM    2  C   LIG     1      17.925  36.956  20.810  1.00  0.00     0.028 A 
HETATM    3  C   LIG     1      18.863  36.814  19.780  1.00  0.00     0.020 A 
HETATM    4  C   LIG     1      19.699  37.880  19.436  1.00  0.00     0.001 A 
HETATM    5  C   LIG     1      19.600  39.094  20.119  1.00  0.00     0.001 A 
HETATM    6  C   LIG     1      18.665  39.245  21.147  1.00  0.00     0.020 A 
HETATM    7  C   LIG     1      17.824  38.180  21.498  1.00  0.00     0.028 A 
HETATM    8 BR   LIG     1      16.560  38.438  22.914  1.00  0.00    -0.050 Br
ENDROOT
TORSDOF 0
ENDMDL
MODEL 4
REMARK VINA RESULT:      -5.7      3.843      5.341
REMARK  0 active torsions:
REMARK  status: ('A' for Active; 'I' for Inactive)
ROOT
HETATM    1 BR   LIG     1      16.658  38.292  23.022  1.00  0.00    -0.050 Br
HETATM    2  C   LIG     1      17.839  38.131  21.523  1.00  0.00     0.028 A 
HETATM    3  C   LIG     1      18.672  39.210  21.205  1.00  0.00     0.020 A 
HETATM    4  C   LIG     1      19.548  39.130  20.119  1.00  0.00     0.001 A 
HETATM    5  C   LIG     1      19.596  37.968  19.344  1.00  0.00     0.001 A 
HETATM    6  C   LIG     1      18.769  36.886  19.655  1.00  0.00     0.020 A 
HETATM    7  C   LIG     1      17.888  36.959  20.743  1.00  0.00     0.028 A 
HETATM    8 BR   LIG     1      16.775  35.448  21.126  1.00  0.00    -0.050 Br
ENDROOT
TORSDOF 0
ENDMDL
MODEL 5
REMARK VINA RESULT:      -5.4      2.154      3.154
REMARK  0 active torsions:
REMARK  status: ('A' for Active; 'I' for Inactive)
ROOT
HETATM    1 BR   LIG     1      17.455  34.898  25.840  1.00  0.00    -0.050 Br
HETATM    2  C   LIG     1      17.219  35.743  24.136  1.00  0.00     0.028 A 
HETATM    3  C   LIG     1      17.067  34.936  23.003  1.00  0.00     0.020 A 
HETATM    4  C   LIG     1      16.892  35.515  21.743  1.00  0.00     0.001 A 
HETATM    5  C   LIG     1      16.868  36.906  21.610  1.00  0.00     0.001 A 
HETATM    6  C   LIG     1      17.019  37.719  22.737  1.00  0.00     0.020 A 
HETATM    7  C   LIG     1      17.194  37.145  24.004  1.00  0.00     0.028 A 
HETATM    8 BR   LIG     1      17.396  38.303  25.516  1.00  0.00    -0.050 Br
ENDROOT
TORSDOF 0
ENDMDL
MODEL 6
REMARK VINA RESULT:      -5.4      2.154      3.934
REMARK  0 active torsions:
REMARK  status: ('A' for Active; 'I' for Inactive)
ROOT
HETATM    1 BR   LIG     1      17.363  38.322  25.462  1.00  0.00    -0.050 Br
HETATM    2  C   LIG     1      17.184  37.146  23.960  1.00  0.00     0.028 A 
HETATM    3  C   LIG     1      16.997  37.703  22.690  1.00  0.00     0.020 A 
HETATM    4  C   LIG     1      16.863  36.878  21.570  1.00  0.00     0.001 A 
HETATM    5  C   LIG     1      16.915  35.489  21.716  1.00  0.00     0.001 A 
HETATM    6  C   LIG     1      17.102  34.925  22.980  1.00  0.00     0.020 A 
HETATM    7  C   LIG     1      17.237  35.747  24.108  1.00  0.00     0.028 A 
HETATM    8 BR   LIG     1      17.491  34.923  25.818  1.00  0.00    -0.050 Br
ENDROOT
TORSDOF 0
ENDMDL
MODEL 7
REMARK VINA RESULT:      -5.1      2.500      3.567
REMARK  0 active torsions:
REMARK  status: ('A' for Active; 'I' for Inactive)
ROOT
HETATM    1 BR   LIG     1      17.431  38.037  24.924  1.00  0.00    -0.050 Br
HETATM    2  C   LIG     1      17.269  37.015  23.312  1.00  0.00     0.028 A 
HETATM    3  C   LIG     1      16.784  35.705  23.394  1.00  0.00     0.020 A 
HETATM    4  C   LIG     1      16.652  34.928  22.240  1.00  0.00     0.001 A 
HETATM    5  C   LIG     1      17.004  35.458  20.996  1.00  0.00     0.001 A 
HETATM    6  C   LIG     1      17.488  36.766  20.905  1.00  0.00     0.020 A 
HETATM    7  C   LIG     1      17.623  37.551  22.059  1.00  0.00     0.028 A 
HETATM    8 BR   LIG     1      18.292  39.337  21.880  1.00  0.00    -0.050 Br
ENDROOT
TORSDOF 0
ENDMDL
MODEL 8
REMARK VINA RESULT:      -5.0      3.146      3.756
REMARK  0 active torsions:
REMARK  status: ('A' for Active; 'I' for Inactive)
ROOT
HETATM    1 BR   LIG     1      16.442  35.152  20.898  1.00  0.00    -0.050 Br
HETATM    2  C   LIG     1      17.041  36.837  21.585  1.00  0.00     0.028 A 
HETATM    3  C   LIG     1      16.442  37.339  22.746  1.00  0.00     0.020 A 
HETATM    4  C   LIG     1      16.852  38.565  23.278  1.00  0.00     0.001 A 
HETATM    5  C   LIG     1      17.865  39.295  22.651  1.00  0.00     0.001 A 
HETATM    6  C   LIG     1      18.469  38.800  21.491  1.00  0.00     0.020 A 
HETATM    7  C   LIG     1      18.062  37.571  20.952  1.00  0.00     0.028 A 
HETATM    8 BR   LIG     1      18.921  36.938  19.362  1.00  0.00    -0.050 Br
ENDROOT
TORSDOF 0
ENDMDL
MODEL 9
REMARK VINA RESULT:      -4.8      9.818     11.130
REMARK  0 active torsions:
REMARK  status: ('A' for Active; 'I' for Inactive)
ROOT
HETATM    1 BR   LIG     1      17.184  32.919  14.793  1.00  0.00    -0.050 Br
HETATM    2  C   LIG     1      15.660  31.774  14.984  1.00  0.00     0.028 A 
HETATM    3  C   LIG     1      15.459  30.761  14.040  1.00  0.00     0.020 A 
HETATM    4  C   LIG     1      14.358  29.906  14.145  1.00  0.00     0.001 A 
HETATM    5  C   LIG     1      13.453  30.060  15.198  1.00  0.00     0.001 A 
HETATM    6  C   LIG     1      13.647  31.069  16.146  1.00  0.00     0.020 A 
HETATM    7  C   LIG     1      14.748  31.930  16.046  1.00  0.00     0.028 A 
HETATM    8 BR   LIG     1      14.968  33.296  17.370  1.00  0.00    -0.050 Br
ENDROOT
TORSDOF 0
ENDMDL
MODEL 10
REMARK VINA RESULT:      -4.8      9.634     10.958
REMARK  0 active torsions:
REMARK  status: ('A' for Active; 'I' for Inactive)
ROOT
HETATM    1 BR   LIG     1      15.070  33.787  17.229  1.00  0.00    -0.050 Br
HETATM    2  C   LIG     1      14.805  32.262  16.100  1.00  0.00     0.028 A 
HETATM    3  C   LIG     1      13.684  31.452  16.319  1.00  0.00     0.020 A 
HETATM    4  C   LIG     1      13.456  30.331  15.516  1.00  0.00     0.001 A 
HETATM    5  C   LIG     1      14.349  30.014  14.489  1.00  0.00     0.001 A 
HETATM    6  C   LIG     1      15.470  30.818  14.264  1.00  0.00     0.020 A 
HETATM    7  C   LIG     1      15.705  31.944  15.065  1.00  0.00     0.028 A 
HETATM    8 BR   LIG     1      17.256  33.012  14.715  1.00  0.00    -0.050 Br
ENDROOT
TORSDOF 0
ENDMDL
MODEL 11
REMARK VINA RESULT:      -4.8      2.776      3.365
REMARK  0 active torsions:
REMARK  status: ('A' for Active; 'I' for Inactive)
ROOT
HETATM    1 BR   LIG     1      18.723  37.024  19.156  1.00  0.00    -0.050 Br
HETATM    2  C   LIG     1      17.878  36.803  20.861  1.00  0.00     0.028 A 
HETATM    3  C   LIG     1      17.285  35.571  21.161  1.00  0.00     0.020 A 
HETATM    4  C   LIG     1      16.658  35.371  22.394  1.00  0.00     0.001 A 
HETATM    5  C   LIG     1      16.624  36.403  23.336  1.00  0.00     0.001 A 
HETATM    6  C   LIG     1      17.215  37.635  23.045  1.00  0.00     0.020 A 
HETATM    7  C   LIG     1      17.845  37.843  21.810  1.00  0.00     0.028 A 
HETATM    8 BR   LIG     1      18.639  39.550  21.460  1.00  0.00    -0.050 Br
ENDROOT
TORSDOF 0
ENDMDL
MODEL 12
REMARK VINA RESULT:      -4.6      9.356     10.686
REMARK  0 active torsions:
REMARK  status: ('A' for Active; 'I' for Inactive)
ROOT
HETATM    1 BR   LIG     1      17.198  32.902  14.745  1.00  0.00    -0.050 Br
HETATM    2  C   LIG     1      15.625  32.226  15.606  1.00  0.00     0.028 A 
HETATM    3  C   LIG     1      15.198  32.831  16.793  1.00  0.00     0.020 A 
HETATM    4  C   LIG     1      14.055  32.366  17.450  1.00  0.00     0.001 A 
HETATM    5  C   LIG     1      13.333  31.293  16.922  1.00  0.00     0.001 A 
HETATM    6  C   LIG     1      13.753  30.684  15.736  1.00  0.00     0.020 A 
HETATM    7  C   LIG     1      14.898  31.145  15.072  1.00  0.00     0.028 A 
HETATM    8 BR   LIG     1      15.431  30.276  13.450  1.00  0.00    -0.050 Br
ENDROOT
TORSDOF 0
ENDMDL
MODEL 13
REMARK VINA RESULT:      -4.2      9.793     11.362
REMARK  0 active torsions:
REMARK  status: ('A' for Active; 'I' for Inactive)
ROOT
HETATM    1 BR   LIG     1      14.024  31.660  17.412  1.00  0.00    -0.050 Br
HETATM    2  C   LIG     1      15.055  31.877  15.812  1.00  0.00     0.028 A 
HETATM    3  C   LIG     1      16.044  32.867  15.781  1.00  0.00     0.020 A 
HETATM    4  C   LIG     1      16.817  33.056  14.632  1.00  0.00     0.001 A 
HETATM    5  C   LIG     1      16.605  32.254  13.507  1.00  0.00     0.001 A 
HETATM    6  C   LIG     1      15.620  31.263  13.531  1.00  0.00     0.020 A 
HETATM    7  C   LIG     1      14.841  31.068  14.680  1.00  0.00     0.028 A 
HETATM    8 BR   LIG     1      13.505  29.696  14.661  1.00  0.00    -0.050 Br
ENDROOT
TORSDOF 0
ENDMDL
MODEL 14
REMARK VINA RESULT:      -4.2      9.821     11.197
REMARK  0 active torsions:
REMARK  status: ('A' for Active; 'I' for Inactive)
ROOT
HETATM    1 BR   LIG     1      13.597  29.623  14.514  1.00  0.00    -0.050 Br
HETATM    2  C   LIG     1      14.881  31.042  14.616  1.00  0.00     0.028 A 
HETATM    3  C   LIG     1      15.685  31.299  13.500  1.00  0.00     0.020 A 
HETATM    4  C   LIG     1      16.633  32.326  13.536  1.00  0.00     0.001 A 
HETATM    5  C   LIG     1      16.780  33.101  14.689  1.00  0.00     0.001 A 
HETATM    6  C   LIG     1      15.980  32.851  15.807  1.00  0.00     0.020 A 
HETATM    7  C   LIG     1      15.027  31.823  15.778  1.00  0.00     0.028 A 
HETATM    8 BR   LIG     1      13.956  31.521  17.337  1.00  0.00    -0.050 Br
ENDROOT
TORSDOF 0
ENDMDL
MODEL 15
REMARK VINA RESULT:      -3.6     19.562     20.322
REMARK  0 active torsions:
REMARK  status: ('A' for Active; 'I' for Inactive)
ROOT
HETATM    1 BR   LIG     1      12.612  17.933  13.352  1.00  0.00    -0.050 Br
HETATM    2  C   LIG     1      14.104  18.574  14.367  1.00  0.00     0.028 A 
HETATM    3  C   LIG     1      14.123  18.348  15.748  1.00  0.00     0.020 A 
HETATM    4  C   LIG     1      15.194  18.801  16.523  1.00  0.00     0.001 A 
HETATM    5  C   LIG     1      16.254  19.482  15.919  1.00  0.00     0.001 A 
HETATM    6  C   LIG     1      16.244  19.711  14.540  1.00  0.00     0.020 A 
HETATM    7  C   LIG     1      15.172  19.260  13.757  1.00  0.00     0.028 A 
HETATM    8 BR   LIG     1      15.206  19.600  11.873  1.00  0.00    -0.050 Br
ENDROOT
TORSDOF 0
ENDMDL
MODEL 16
REMARK VINA RESULT:      -3.3     15.665     16.484
REMARK  0 active torsions:
REMARK  status: ('A' for Active; 'I' for Inactive)
ROOT
HETATM    1 BR   LIG     1      28.452  30.427  33.657  1.00  0.00    -0.050 Br
HETATM    2  C   LIG     1      27.762  31.019  35.343  1.00  0.00     0.028 A 
HETATM    3  C   LIG     1      26.376  31.029  35.534  1.00  0.00     0.020 A 
HETATM    4  C   LIG     1      25.834  31.454  36.750  1.00  0.00     0.001 A 
HETATM    5  C   LIG     1      26.677  31.869  37.783  1.00  0.00     0.001 A 
HETATM    6  C   LIG     1      28.063  31.860  37.601  1.00  0.00     0.020 A 
HETATM    7  C   LIG     1      28.613  31.436  36.384  1.00  0.00     0.028 A 
HETATM    8 BR   LIG     1      30.518  31.443  36.186  1.00  0.00    -0.050 Br
ENDROOT
TORSDOF 0
ENDMDL
MODEL 17
REMARK VINA RESULT:      -3.2     15.538     16.539
REMARK  0 active torsions:
REMARK  status: ('A' for Active; 'I' for Inactive)
ROOT
HETATM    1 BR   LIG     1      27.609  27.027  36.851  1.00  0.00    -0.050 Br
HETATM    2  C   LIG     1      26.875  28.783  36.638  1.00  0.00     0.028 A 
HETATM    3  C   LIG     1      26.551  29.518  37.785  1.00  0.00     0.020 A 
HETATM    4  C   LIG     1      26.013  30.803  37.671  1.00  0.00     0.001 A 
HETATM    5  C   LIG     1      25.797  31.361  36.408  1.00  0.00     0.001 A 
HETATM    6  C   LIG     1      26.118  30.634  35.259  1.00  0.00     0.020 A 
HETATM    7  C   LIG     1      26.658  29.345  35.365  1.00  0.00     0.028 A 
HETATM    8 BR   LIG     1      27.080  28.391  33.759  1.00  0.00    -0.050 Br
ENDROOT
TORSDOF 0
ENDMDL
