MODEL 1
REMARK VINA RESULT:      -5.7      0.000      0.000
REMARK  0 active torsions:
REMARK  status: ('A' for Active; 'I' for Inactive)
ROOT
HETATM    1  C   LIG     1      17.975  34.751  25.897  1.00  0.00     0.049 C 
HETATM    2  C   LIG     1      17.594  36.085  25.310  1.00  0.00    -0.053 A 
HETATM    3  C   LIG     1      17.703  37.243  26.097  1.00  0.00     0.026 A 
HETATM    4  C   LIG     1      17.351  38.481  25.559  1.00  0.00     0.116 A 
HETATM    5  N   LIG     1      16.906  38.566  24.279  1.00  0.00    -0.273 NA
HETATM    6  C   LIG     1      16.788  37.468  23.488  1.00  0.00     0.123 A 
HETATM    7  C   LIG     1      17.129  36.197  23.979  1.00  0.00    -0.038 A 
HETATM    8  C   LIG     1      16.992  34.991  23.089  1.00  0.00     0.050 C 
ENDROOT
TORSDOF 0
ENDMDL
MODEL 2
REMARK VINA RESULT:      -5.6      3.677      4.983
REMARK  0 active torsions:
REMARK  status: ('A' for Active; 'I' for Inactive)
ROOT
HETATM    1  C   LIG     1      17.243  35.972  21.200  1.00  0.00     0.049 C 
HETATM    2  C   LIG     1      18.059  37.166  20.781  1.00  0.00    -0.053 A 
HETATM    3  C   LIG     1      18.980  37.039  19.730  1.00  0.00     0.026 A 
HETATM    4  C   LIG     1      19.740  38.141  19.337  1.00  0.00     0.116 A 
HETATM    5  N   LIG     1      19.588  39.333  19.969  1.00  0.00    -0.273 NA
HETATM    6  C   LIG     1      18.706  39.494  20.989  1.00  0.00     0.123 A 
HETATM    7  C   LIG     1      17.916  38.417  21.424  1.00  0.00    -0.038 A 
HETATM    8  C   LIG     1      16.944  38.614  22.557  1.00  0.00     0.050 C 
ENDROOT
TORSDOF 0
ENDMDL
MODEL 3
REMARK VINA RESULT:      -5.5      0.582      2.282
REMARK  0 active torsions:
REMARK  status: ('A' for Active; 'I' for Inactive)
ROOT
HETATM    1  C   LIG     1      16.994  34.861  22.950  1.00  0.00     0.049 C 
HETATM    2  C   LIG     1      17.097  36.150  23.723  1.00  0.00    -0.053 A 
HETATM    3  C   LIG     1      16.829  37.366  23.076  1.00  0.00     0.026 A 
HETATM    4  C   LIG     1      16.923  38.564  23.786  1.00  0.00     0.116 A 
HETATM    5  N   LIG     1      17.273  38.552  25.098  1.00  0.00    -0.273 NA
HETATM    6  C   LIG     1      17.540  37.394  25.756  1.00  0.00     0.123 A 
HETATM    7  C   LIG     1      17.459  36.161  25.089  1.00  0.00    -0.038 A 
HETATM    8  C   LIG     1      17.758  34.888  25.836  1.00  0.00     0.050 C 
ENDROOT
TORSDOF 0
ENDMDL
MODEL 4
REMARK VINA RESULT:      -5.5      1.166      2.690
REMARK  0 active torsions:
REMARK  status: ('A' for Active; 'I' for Inactive)
ROOT
HETATM    1  C   LIG     1      17.504  34.887  25.643  1.00  0.00     0.049 C 
HETATM    2  C   LIG     1      17.245  35.727  24.420  1.00  0.00    -0.053 A 
HETATM    3  C   LIG     1      17.024  35.100  23.184  1.00  0.00     0.026 A 
HETATM    4  C   LIG     1      16.783  35.873  22.048  1.00  0.00     0.116 A 
HETATM    5  N   LIG     1      16.763  37.228  22.138  1.00  0.00    -0.273 NA
HETATM    6  C   LIG     1      16.972  37.869  23.316  1.00  0.00     0.123 A 
HETATM    7  C   LIG     1      17.218  37.139  24.491  1.00  0.00    -0.038 A 
HETATM    8  C   LIG     1      17.448  37.868  25.788  1.00  0.00     0.050 C 
ENDROOT
TORSDOF 0
ENDMDL
MODEL 5
REMARK VINA RESULT:      -5.4      1.264      2.593
REMARK  0 active torsions:
REMARK  status: ('A' for Active; 'I' for Inactive)
ROOT
HETATM    1  C   LIG     1      16.786  35.172  22.618  1.00  0.00     0.049 C 
HETATM    2  C   LIG     1      17.164  35.788  23.939  1.00  0.00    -0.053 A 
HETATM    3  C   LIG     1      17.513  34.956  25.014  1.00  0.00     0.026 A 
HETATM    4  C   LIG     1      17.864  35.521  26.241  1.00  0.00     0.116 A 
HETATM    5  N   LIG     1      17.868  36.870  26.394  1.00  0.00    -0.273 NA
HETATM    6  C   LIG     1      17.537  37.706  25.376  1.00  0.00     0.123 A 
HETATM    7  C   LIG     1      17.176  37.190  24.120  1.00  0.00    -0.038 A 
HETATM    8  C   LIG     1      16.812  38.132  23.003  1.00  0.00     0.050 C 
ENDROOT
TORSDOF 0
ENDMDL
MODEL 6
REMARK VINA RESULT:      -5.4      3.088      4.336
REMARK  0 active torsions:
REMARK  status: ('A' for Active; 'I' for Inactive)
ROOT
HETATM    1  C   LIG     1      18.950  39.517  20.827  1.00  0.00     0.049 C 
HETATM    2  C   LIG     1      18.057  38.379  21.249  1.00  0.00    -0.053 A 
HETATM    3  C   LIG     1      17.128  38.576  22.282  1.00  0.00     0.026 A 
HETATM    4  C   LIG     1      16.299  37.526  22.677  1.00  0.00     0.116 A 
HETATM    5  N   LIG     1      16.390  36.318  22.064  1.00  0.00    -0.273 NA
HETATM    6  C   LIG     1      17.277  36.091  21.061  1.00  0.00     0.123 A 
HETATM    7  C   LIG     1      18.135  37.113  20.624  1.00  0.00    -0.038 A 
HETATM    8  C   LIG     1      19.112  36.843  19.510  1.00  0.00     0.050 C 
ENDROOT
TORSDOF 0
ENDMDL
MODEL 7
REMARK VINA RESULT:      -5.4      2.985      4.500
REMARK  0 active torsions:
REMARK  status: ('A' for Active; 'I' for Inactive)
ROOT
HETATM    1  C   LIG     1      19.089  36.851  19.527  1.00  0.00     0.049 C 
HETATM    2  C   LIG     1      18.112  37.089  20.649  1.00  0.00    -0.053 A 
HETATM    3  C   LIG     1      17.277  36.044  21.071  1.00  0.00     0.026 A 
HETATM    4  C   LIG     1      16.369  36.259  22.109  1.00  0.00     0.116 A 
HETATM    5  N   LIG     1      16.295  37.475  22.708  1.00  0.00    -0.273 NA
HETATM    6  C   LIG     1      17.088  38.509  22.326  1.00  0.00     0.123 A 
HETATM    7  C   LIG     1      18.019  38.348  21.287  1.00  0.00    -0.038 A 
HETATM    8  C   LIG     1      18.889  39.506  20.877  1.00  0.00     0.050 C 
ENDROOT
TORSDOF 0
ENDMDL
MODEL 8
REMARK VINA RESULT:      -5.4      3.545      4.613
REMARK  0 active torsions:
REMARK  status: ('A' for Active; 'I' for Inactive)
ROOT
HETATM    1  C   LIG     1      16.837  38.388  22.728  1.00  0.00     0.049 C 
HETATM    2  C   LIG     1      17.790  38.212  21.575  1.00  0.00    -0.053 A 
HETATM    3  C   LIG     1      18.610  39.282  21.187  1.00  0.00     0.026 A 
HETATM    4  C   LIG     1      19.495  39.125  20.119  1.00  0.00     0.116 A 
HETATM    5  N   LIG     1      19.563  37.940  19.459  1.00  0.00    -0.273 NA
HETATM    6  C   LIG     1      18.785  36.883  19.807  1.00  0.00     0.123 A 
HETATM    7  C   LIG     1      17.877  36.987  20.874  1.00  0.00    -0.038 A 
HETATM    8  C   LIG     1      17.023  35.804  21.246  1.00  0.00     0.050 C 
ENDROOT
TORSDOF 0
ENDMDL
MODEL 9
REMARK VINA RESULT:      -5.3      1.444      2.718
REMARK  0 active torsions:
REMARK  status: ('A' for Active; 'I' for Inactive)
ROOT
HETATM    1  C   LIG     1      17.496  37.900  25.831  1.00  0.00     0.049 C 
HETATM    2  C   LIG     1      17.272  37.164  24.536  1.00  0.00    -0.053 A 
HETATM    3  C   LIG     1      17.084  37.891  23.351  1.00  0.00     0.026 A 
HETATM    4  C   LIG     1      16.876  37.214  22.148  1.00  0.00     0.116 A 
HETATM    5  N   LIG     1      16.856  35.856  22.126  1.00  0.00    -0.273 NA
HETATM    6  C   LIG     1      17.034  35.120  23.253  1.00  0.00     0.123 A 
HETATM    7  C   LIG     1      17.248  35.750  24.489  1.00  0.00    -0.038 A 
HETATM    8  C   LIG     1      17.444  34.918  25.728  1.00  0.00     0.050 C 
ENDROOT
TORSDOF 0
ENDMDL
MODEL 10
REMARK VINA RESULT:      -5.2      2.594      3.591
REMARK  0 active torsions:
REMARK  status: ('A' for Active; 'I' for Inactive)
ROOT
HETATM    1  C   LIG     1      18.595  36.873  19.897  1.00  0.00     0.049 C 
HETATM    2  C   LIG     1      17.839  37.400  21.088  1.00  0.00    -0.053 A 
HETATM    3  C   LIG     1      17.979  38.748  21.454  1.00  0.00     0.026 A 
HETATM    4  C   LIG     1      17.281  39.242  22.557  1.00  0.00     0.116 A 
HETATM    5  N   LIG     1      16.469  38.421  23.273  1.00  0.00    -0.273 NA
HETATM    6  C   LIG     1      16.309  37.113  22.947  1.00  0.00     0.123 A 
HETATM    7  C   LIG     1      16.987  36.564  21.847  1.00  0.00    -0.038 A 
HETATM    8  C   LIG     1      16.797  35.111  21.501  1.00  0.00     0.050 C 
ENDROOT
TORSDOF 0
ENDMDL
MODEL 11
REMARK VINA RESULT:      -5.2      3.057      3.884
REMARK  0 active torsions:
REMARK  status: ('A' for Active; 'I' for Inactive)
ROOT
HETATM    1  C   LIG     1      16.918  35.571  21.081  1.00  0.00     0.049 C 
HETATM    2  C   LIG     1      17.392  36.970  21.376  1.00  0.00    -0.053 A 
HETATM    3  C   LIG     1      16.807  37.690  22.429  1.00  0.00     0.026 A 
HETATM    4  C   LIG     1      17.242  38.987  22.707  1.00  0.00     0.116 A 
HETATM    5  N   LIG     1      18.228  39.549  21.962  1.00  0.00    -0.273 NA
HETATM    6  C   LIG     1      18.817  38.882  20.936  1.00  0.00     0.123 A 
HETATM    7  C   LIG     1      18.418  37.575  20.613  1.00  0.00    -0.038 A 
HETATM    8  C   LIG     1      19.083  36.851  19.472  1.00  0.00     0.050 C 
ENDROOT
TORSDOF 0
ENDMDL
MODEL 12
REMARK VINA RESULT:      -5.1      1.700      3.759
REMARK  0 active torsions:
REMARK  status: ('A' for Active; 'I' for Inactive)
ROOT
HETATM    1  C   LIG     1      17.105  39.038  22.509  1.00  0.00     0.049 C 
HETATM    2  C   LIG     1      17.102  37.590  22.923  1.00  0.00    -0.053 A 
HETATM    3  C   LIG     1      16.957  36.593  21.947  1.00  0.00     0.026 A 
HETATM    4  C   LIG     1      16.953  35.249  22.324  1.00  0.00     0.116 A 
HETATM    5  N   LIG     1      17.088  34.909  23.632  1.00  0.00    -0.273 NA
HETATM    6  C   LIG     1      17.230  35.847  24.604  1.00  0.00     0.123 A 
HETATM    7  C   LIG     1      17.242  37.213  24.279  1.00  0.00    -0.038 A 
HETATM    8  C   LIG     1      17.400  38.239  25.370  1.00  0.00     0.050 C 
ENDROOT
TORSDOF 0
ENDMDL
MODEL 13
REMARK VINA RESULT:      -5.0      3.387      4.694
REMARK  0 active torsions:
REMARK  status: ('A' for Active; 'I' for Inactive)
ROOT
HETATM    1  C   LIG     1      17.173  38.904  22.994  1.00  0.00     0.049 C 
HETATM    2  C   LIG     1      17.391  37.894  21.898  1.00  0.00    -0.053 A 
HETATM    3  C   LIG     1      16.661  36.695  21.908  1.00  0.00     0.026 A 
HETATM    4  C   LIG     1      16.859  35.755  20.896  1.00  0.00     0.116 A 
HETATM    5  N   LIG     1      17.755  36.000  19.905  1.00  0.00    -0.273 NA
HETATM    6  C   LIG     1      18.479  37.148  19.863  1.00  0.00     0.123 A 
HETATM    7  C   LIG     1      18.318  38.128  20.856  1.00  0.00    -0.038 A 
HETATM    8  C   LIG     1      19.129  39.395  20.793  1.00  0.00     0.050 C 
ENDROOT
TORSDOF 0
ENDMDL
MODEL 14
REMARK VINA RESULT:      -5.0      8.954     10.746
REMARK  0 active torsions:
REMARK  status: ('A' for Active; 'I' for Inactive)
ROOT
HETATM    1  C   LIG     1      13.270  29.935  14.960  1.00  0.00     0.049 C 
HETATM    2  C   LIG     1      14.133  30.951  15.660  1.00  0.00    -0.053 A 
HETATM    3  C   LIG     1      13.824  31.333  16.974  1.00  0.00     0.026 A 
HETATM    4  C   LIG     1      14.620  32.275  17.628  1.00  0.00     0.116 A 
HETATM    5  N   LIG     1      15.691  32.818  16.994  1.00  0.00    -0.273 NA
HETATM    6  C   LIG     1      16.021  32.473  15.723  1.00  0.00     0.123 A 
HETATM    7  C   LIG     1      15.253  31.530  15.019  1.00  0.00    -0.038 A 
HETATM    8  C   LIG     1      15.634  31.159  13.611  1.00  0.00     0.050 C 
ENDROOT
TORSDOF 0
ENDMDL
MODEL 15
REMARK VINA RESULT:      -5.0     10.668     11.738
REMARK  0 active torsions:
REMARK  status: ('A' for Active; 'I' for Inactive)
ROOT
HETATM    1  C   LIG     1      13.620  31.080  16.809  1.00  0.00     0.049 C 
HETATM    2  C   LIG     1      14.553  31.251  15.640  1.00  0.00    -0.053 A 
HETATM    3  C   LIG     1      15.535  32.253  15.680  1.00  0.00     0.026 A 
HETATM    4  C   LIG     1      16.403  32.417  14.599  1.00  0.00     0.116 A 
HETATM    5  N   LIG     1      16.298  31.608  13.513  1.00  0.00    -0.273 NA
HETATM    6  C   LIG     1      15.361  30.628  13.439  1.00  0.00     0.123 A 
HETATM    7  C   LIG     1      14.462  30.420  14.499  1.00  0.00    -0.038 A 
HETATM    8  C   LIG     1      13.430  29.329  14.400  1.00  0.00     0.050 C 
ENDROOT
TORSDOF 0
ENDMDL
MODEL 16
REMARK VINA RESULT:      -5.0      9.725     11.671
REMARK  0 active torsions:
REMARK  status: ('A' for Active; 'I' for Inactive)
ROOT
HETATM    1  C   LIG     1      13.123  30.741  16.531  1.00  0.00     0.049 C 
HETATM    2  C   LIG     1      14.223  30.939  15.522  1.00  0.00    -0.053 A 
HETATM    3  C   LIG     1      14.335  30.054  14.438  1.00  0.00     0.026 A 
HETATM    4  C   LIG     1      15.352  30.232  13.500  1.00  0.00     0.116 A 
HETATM    5  N   LIG     1      16.230  31.260  13.634  1.00  0.00    -0.273 NA
HETATM    6  C   LIG     1      16.152  32.136  14.669  1.00  0.00     0.123 A 
HETATM    7  C   LIG     1      15.148  32.002  15.642  1.00  0.00    -0.038 A 
HETATM    8  C   LIG     1      15.077  32.983  16.781  1.00  0.00     0.050 C 
ENDROOT
TORSDOF 0
ENDMDL
MODEL 17
REMARK VINA RESULT:      -4.9      9.508     10.961
REMARK  0 active torsions:
REMARK  status: ('A' for Active; 'I' for Inactive)
ROOT
HETATM    1  C   LIG     1      14.542  29.796  14.085  1.00  0.00     0.049 C 
HETATM    2  C   LIG     1      14.964  30.980  14.915  1.00  0.00    -0.053 A 
HETATM    3  C   LIG     1      16.138  31.674  14.583  1.00  0.00     0.026 A 
HETATM    4  C   LIG     1      16.534  32.772  15.348  1.00  0.00     0.116 A 
HETATM    5  N   LIG     1      15.785  33.167  16.410  1.00  0.00    -0.273 NA
HETATM    6  C   LIG     1      14.644  32.520  16.761  1.00  0.00     0.123 A 
HETATM    7  C   LIG     1      14.200  31.410  16.024  1.00  0.00    -0.038 A 
HETATM    8  C   LIG     1      12.932  30.705  16.428  1.00  0.00     0.050 C 
ENDROOT
TORSDOF 0
ENDMDL
MODEL 18
REMARK VINA RESULT:      -4.9      1.658      2.960
REMARK  0 active torsions:
REMARK  status: ('A' for Active; 'I' for Inactive)
ROOT
HETATM    1  C   LIG     1      17.405  38.280  25.555  1.00  0.00     0.049 C 
HETATM    2  C   LIG     1      17.241  37.236  24.481  1.00  0.00    -0.053 A 
HETATM    3  C   LIG     1      17.285  35.876  24.827  1.00  0.00     0.026 A 
HETATM    4  C   LIG     1      17.134  34.905  23.837  1.00  0.00     0.116 A 
HETATM    5  N   LIG     1      16.946  35.273  22.544  1.00  0.00    -0.273 NA
HETATM    6  C   LIG     1      16.897  36.579  22.172  1.00  0.00     0.123 A 
HETATM    7  C   LIG     1      17.043  37.597  23.128  1.00  0.00    -0.038 A 
HETATM    8  C   LIG     1      16.987  39.039  22.698  1.00  0.00     0.050 C 
ENDROOT
TORSDOF 0
ENDMDL
MODEL 19
REMARK VINA RESULT:      -4.8      9.747     11.036
REMARK  0 active torsions:
REMARK  status: ('A' for Active; 'I' for Inactive)
ROOT
HETATM    1  C   LIG     1      16.682  32.456  14.979  1.00  0.00     0.049 C 
HETATM    2  C   LIG     1      15.395  31.918  15.547  1.00  0.00    -0.053 A 
HETATM    3  C   LIG     1      14.878  32.468  16.730  1.00  0.00     0.026 A 
HETATM    4  C   LIG     1      13.686  31.973  17.261  1.00  0.00     0.116 A 
HETATM    5  N   LIG     1      13.029  30.964  16.634  1.00  0.00    -0.273 NA
HETATM    6  C   LIG     1      13.499  30.407  15.488  1.00  0.00     0.123 A 
HETATM    7  C   LIG     1      14.694  30.867  14.911  1.00  0.00    -0.038 A 
HETATM    8  C   LIG     1      15.200  30.238  13.640  1.00  0.00     0.050 C 
ENDROOT
TORSDOF 0
ENDMDL
MODEL 20
REMARK VINA RESULT:      -4.5      9.444     11.246
REMARK  0 active torsions:
REMARK  status: ('A' for Active; 'I' for Inactive)
ROOT
HETATM    1  C   LIG     1      15.033  33.115  17.236  1.00  0.00     0.049 C 
HETATM    2  C   LIG     1      14.846  32.078  16.159  1.00  0.00    -0.053 A 
HETATM    3  C   LIG     1      13.746  31.209  16.220  1.00  0.00     0.026 A 
HETATM    4  C   LIG     1      13.567  30.247  15.225  1.00  0.00     0.116 A 
HETATM    5  N   LIG     1      14.455  30.152  14.202  1.00  0.00    -0.273 NA
HETATM    6  C   LIG     1      15.530  30.976  14.110  1.00  0.00     0.123 A 
HETATM    7  C   LIG     1      15.758  31.962  15.084  1.00  0.00    -0.038 A 
HETATM    8  C   LIG     1      16.955  32.867  14.965  1.00  0.00     0.050 C 
ENDROOT
TORSDOF 0
ENDMDL
