MODEL 1
REMARK VINA RESULT:      -5.7      0.000      0.000
REMARK  0 active torsions:
REMARK  status: ('A' for Active; 'I' for Inactive)
ROOT
HETATM    1  C   LIG     1      16.720  35.256  22.679  1.00  0.00     0.050 C 
HETATM    2  C   LIG     1      17.183  35.780  24.013  1.00  0.00    -0.038 A 
HETATM    3  C   LIG     1      17.518  34.853  25.010  1.00  0.00     0.010 A 
HETATM    4  C   LIG     1      17.954  35.287  26.261  1.00  0.00     0.020 A 
HETATM    5  C   LIG     1      18.052  36.653  26.512  1.00  0.00     0.117 A 
HETATM    6  N   LIG     1      17.726  37.547  25.543  1.00  0.00    -0.265 NA
HETATM    7  C   LIG     1      17.298  37.161  24.309  1.00  0.00     0.036 A 
HETATM    8  C   LIG     1      16.963  38.227  23.308  1.00  0.00     0.071 C 
ENDROOT
TORSDOF 0
ENDMDL
MODEL 2
REMARK VINA RESULT:      -5.6      1.300      2.895
REMARK  0 active torsions:
REMARK  status: ('A' for Active; 'I' for Inactive)
ROOT
HETATM    1  C   LIG     1      17.447  34.944  25.622  1.00  0.00     0.050 C 
HETATM    2  C   LIG     1      17.225  35.736  24.361  1.00  0.00    -0.038 A 
HETATM    3  C   LIG     1      17.059  35.036  23.157  1.00  0.00     0.010 A 
HETATM    4  C   LIG     1      16.850  35.723  21.962  1.00  0.00     0.020 A 
HETATM    5  C   LIG     1      16.808  37.115  21.976  1.00  0.00     0.117 A 
HETATM    6  N   LIG     1      16.969  37.789  23.143  1.00  0.00    -0.265 NA
HETATM    7  C   LIG     1      17.174  37.152  24.330  1.00  0.00     0.036 A 
HETATM    8  C   LIG     1      17.341  37.988  25.565  1.00  0.00     0.071 C 
ENDROOT
TORSDOF 0
ENDMDL
MODEL 3
REMARK VINA RESULT:      -5.5      1.098      2.283
REMARK  0 active torsions:
REMARK  status: ('A' for Active; 'I' for Inactive)
ROOT
HETATM    1  C   LIG     1      17.005  38.272  23.252  1.00  0.00     0.050 C 
HETATM    2  C   LIG     1      17.308  37.166  24.230  1.00  0.00    -0.038 A 
HETATM    3  C   LIG     1      17.770  37.517  25.507  1.00  0.00     0.010 A 
HETATM    4  C   LIG     1      18.063  36.531  26.448  1.00  0.00     0.020 A 
HETATM    5  C   LIG     1      17.892  35.192  26.107  1.00  0.00     0.117 A 
HETATM    6  N   LIG     1      17.444  34.857  24.870  1.00  0.00    -0.265 NA
HETATM    7  C   LIG     1      17.147  35.792  23.924  1.00  0.00     0.036 A 
HETATM    8  C   LIG     1      16.659  35.319  22.587  1.00  0.00     0.071 C 
ENDROOT
TORSDOF 0
ENDMDL
MODEL 4
REMARK VINA RESULT:      -5.4      3.553      4.828
REMARK  0 active torsions:
REMARK  status: ('A' for Active; 'I' for Inactive)
ROOT
HETATM    1  C   LIG     1      16.909  36.030  21.383  1.00  0.00     0.050 C 
HETATM    2  C   LIG     1      17.842  37.125  20.938  1.00  0.00    -0.038 A 
HETATM    3  C   LIG     1      18.729  36.855  19.886  1.00  0.00     0.010 A 
HETATM    4  C   LIG     1      19.612  37.836  19.436  1.00  0.00     0.020 A 
HETATM    5  C   LIG     1      19.604  39.089  20.044  1.00  0.00     0.117 A 
HETATM    6  N   LIG     1      18.744  39.346  21.062  1.00  0.00    -0.265 NA
HETATM    7  C   LIG     1      17.866  38.413  21.528  1.00  0.00     0.036 A 
HETATM    8  C   LIG     1      16.956  38.796  22.658  1.00  0.00     0.071 C 
ENDROOT
TORSDOF 0
ENDMDL
MODEL 5
REMARK VINA RESULT:      -5.4      3.453      5.213
REMARK  0 active torsions:
REMARK  status: ('A' for Active; 'I' for Inactive)
ROOT
HETATM    1  C   LIG     1      17.097  38.981  22.760  1.00  0.00     0.050 C 
HETATM    2  C   LIG     1      17.777  38.326  21.587  1.00  0.00    -0.038 A 
HETATM    3  C   LIG     1      18.664  39.094  20.820  1.00  0.00     0.010 A 
HETATM    4  C   LIG     1      19.320  38.533  19.724  1.00  0.00     0.020 A 
HETATM    5  C   LIG     1      19.085  37.200  19.400  1.00  0.00     0.117 A 
HETATM    6  N   LIG     1      18.225  36.459  20.145  1.00  0.00    -0.265 NA
HETATM    7  C   LIG     1      17.567  36.973  21.223  1.00  0.00     0.036 A 
HETATM    8  C   LIG     1      16.638  36.072  21.982  1.00  0.00     0.071 C 
ENDROOT
TORSDOF 0
ENDMDL
MODEL 6
REMARK VINA RESULT:      -5.4      1.485      3.564
REMARK  0 active torsions:
REMARK  status: ('A' for Active; 'I' for Inactive)
ROOT
HETATM    1  C   LIG     1      17.493  38.017  25.768  1.00  0.00     0.050 C 
HETATM    2  C   LIG     1      17.275  37.066  24.620  1.00  0.00    -0.038 A 
HETATM    3  C   LIG     1      16.991  37.604  23.356  1.00  0.00     0.010 A 
HETATM    4  C   LIG     1      16.783  36.766  22.262  1.00  0.00     0.020 A 
HETATM    5  C   LIG     1      16.859  35.386  22.437  1.00  0.00     0.117 A 
HETATM    6  N   LIG     1      17.134  34.870  23.662  1.00  0.00    -0.265 NA
HETATM    7  C   LIG     1      17.344  35.657  24.754  1.00  0.00     0.036 A 
HETATM    8  C   LIG     1      17.641  34.989  26.064  1.00  0.00     0.071 C 
ENDROOT
TORSDOF 0
ENDMDL
MODEL 7
REMARK VINA RESULT:      -5.3      1.299      2.796
REMARK  0 active torsions:
REMARK  status: ('A' for Active; 'I' for Inactive)
ROOT
HETATM    1  C   LIG     1      17.453  34.818  25.635  1.00  0.00     0.050 C 
HETATM    2  C   LIG     1      17.362  36.119  24.881  1.00  0.00    -0.038 A 
HETATM    3  C   LIG     1      17.579  37.311  25.585  1.00  0.00     0.010 A 
HETATM    4  C   LIG     1      17.506  38.541  24.933  1.00  0.00     0.020 A 
HETATM    5  C   LIG     1      17.215  38.573  23.571  1.00  0.00     0.117 A 
HETATM    6  N   LIG     1      17.005  37.416  22.893  1.00  0.00    -0.265 NA
HETATM    7  C   LIG     1      17.069  36.196  23.497  1.00  0.00     0.036 A 
HETATM    8  C   LIG     1      16.822  34.976  22.659  1.00  0.00     0.071 C 
ENDROOT
TORSDOF 0
ENDMDL
MODEL 8
REMARK VINA RESULT:      -5.3      3.015      3.905
REMARK  0 active torsions:
REMARK  status: ('A' for Active; 'I' for Inactive)
ROOT
HETATM    1  C   LIG     1      19.121  36.840  19.510  1.00  0.00     0.050 C 
HETATM    2  C   LIG     1      18.138  37.069  20.628  1.00  0.00    -0.038 A 
HETATM    3  C   LIG     1      17.325  35.998  21.026  1.00  0.00     0.010 A 
HETATM    4  C   LIG     1      16.400  36.158  22.058  1.00  0.00     0.020 A 
HETATM    5  C   LIG     1      16.291  37.395  22.689  1.00  0.00     0.117 A 
HETATM    6  N   LIG     1      17.080  38.429  22.299  1.00  0.00    -0.265 NA
HETATM    7  C   LIG     1      17.996  38.310  21.297  1.00  0.00     0.036 A 
HETATM    8  C   LIG     1      18.820  39.512  20.942  1.00  0.00     0.071 C 
ENDROOT
TORSDOF 0
ENDMDL
MODEL 9
REMARK VINA RESULT:      -5.3      3.257      4.534
REMARK  0 active torsions:
REMARK  status: ('A' for Active; 'I' for Inactive)
ROOT
HETATM    1  C   LIG     1      18.880  39.558  20.863  1.00  0.00     0.050 C 
HETATM    2  C   LIG     1      18.045  38.362  21.241  1.00  0.00    -0.038 A 
HETATM    3  C   LIG     1      17.103  38.508  22.269  1.00  0.00     0.010 A 
HETATM    4  C   LIG     1      16.304  37.432  22.655  1.00  0.00     0.020 A 
HETATM    5  C   LIG     1      16.453  36.208  22.007  1.00  0.00     0.117 A 
HETATM    6  N   LIG     1      17.367  36.071  21.012  1.00  0.00    -0.265 NA
HETATM    7  C   LIG     1      18.163  37.100  20.608  1.00  0.00     0.036 A 
HETATM    8  C   LIG     1      19.141  36.847  19.498  1.00  0.00     0.071 C 
ENDROOT
TORSDOF 0
ENDMDL
MODEL 10
REMARK VINA RESULT:      -5.2      3.344      4.404
REMARK  0 active torsions:
REMARK  status: ('A' for Active; 'I' for Inactive)
ROOT
HETATM    1  C   LIG     1      19.051  36.843  19.429  1.00  0.00     0.050 C 
HETATM    2  C   LIG     1      18.359  37.495  20.597  1.00  0.00    -0.038 A 
HETATM    3  C   LIG     1      18.753  38.790  20.965  1.00  0.00     0.010 A 
HETATM    4  C   LIG     1      18.142  39.437  22.038  1.00  0.00     0.020 A 
HETATM    5  C   LIG     1      17.135  38.784  22.743  1.00  0.00     0.117 A 
HETATM    6  N   LIG     1      16.756  37.530  22.384  1.00  0.00    -0.265 NA
HETATM    7  C   LIG     1      17.329  36.867  21.341  1.00  0.00     0.036 A 
HETATM    8  C   LIG     1      16.840  35.484  21.024  1.00  0.00     0.071 C 
ENDROOT
TORSDOF 0
ENDMDL
MODEL 11
REMARK VINA RESULT:      -5.1      3.455      4.226
REMARK  0 active torsions:
REMARK  status: ('A' for Active; 'I' for Inactive)
ROOT
HETATM    1  C   LIG     1      16.837  35.539  21.010  1.00  0.00     0.050 C 
HETATM    2  C   LIG     1      17.369  36.916  21.312  1.00  0.00    -0.038 A 
HETATM    3  C   LIG     1      16.789  37.636  22.366  1.00  0.00     0.010 A 
HETATM    4  C   LIG     1      17.246  38.914  22.686  1.00  0.00     0.020 A 
HETATM    5  C   LIG     1      18.287  39.469  21.945  1.00  0.00     0.117 A 
HETATM    6  N   LIG     1      18.845  38.769  20.925  1.00  0.00    -0.265 NA
HETATM    7  C   LIG     1      18.426  37.518  20.585  1.00  0.00     0.036 A 
HETATM    8  C   LIG     1      19.108  36.826  19.441  1.00  0.00     0.071 C 
ENDROOT
TORSDOF 0
ENDMDL
MODEL 12
REMARK VINA RESULT:      -5.0      2.091      3.516
REMARK  0 active torsions:
REMARK  status: ('A' for Active; 'I' for Inactive)
ROOT
HETATM    1  C   LIG     1      18.064  39.205  21.827  1.00  0.00     0.050 C 
HETATM    2  C   LIG     1      17.632  37.796  22.137  1.00  0.00    -0.038 A 
HETATM    3  C   LIG     1      17.519  36.887  21.076  1.00  0.00     0.010 A 
HETATM    4  C   LIG     1      17.124  35.571  21.311  1.00  0.00     0.020 A 
HETATM    5  C   LIG     1      16.841  35.167  22.614  1.00  0.00     0.117 A 
HETATM    6  N   LIG     1      16.951  36.051  23.639  1.00  0.00    -0.265 NA
HETATM    7  C   LIG     1      17.335  37.344  23.447  1.00  0.00     0.036 A 
HETATM    8  C   LIG     1      17.426  38.243  24.646  1.00  0.00     0.071 C 
ENDROOT
TORSDOF 0
ENDMDL
MODEL 13
REMARK VINA RESULT:      -4.9      9.711     10.918
REMARK  0 active torsions:
REMARK  status: ('A' for Active; 'I' for Inactive)
ROOT
HETATM    1  C   LIG     1      15.328  30.126  13.603  1.00  0.00     0.050 C 
HETATM    2  C   LIG     1      14.757  30.829  14.807  1.00  0.00    -0.038 A 
HETATM    3  C   LIG     1      13.527  30.386  15.313  1.00  0.00     0.010 A 
HETATM    4  C   LIG     1      12.957  31.004  16.426  1.00  0.00     0.020 A 
HETATM    5  C   LIG     1      13.623  32.067  17.031  1.00  0.00     0.117 A 
HETATM    6  N   LIG     1      14.814  32.492  16.537  1.00  0.00    -0.265 NA
HETATM    7  C   LIG     1      15.402  31.913  15.452  1.00  0.00     0.036 A 
HETATM    8  C   LIG     1      16.720  32.457  14.984  1.00  0.00     0.071 C 
ENDROOT
TORSDOF 0
ENDMDL
MODEL 14
REMARK VINA RESULT:      -4.8      2.534      3.718
REMARK  0 active torsions:
REMARK  status: ('A' for Active; 'I' for Inactive)
ROOT
HETATM    1  C   LIG     1      17.341  38.279  24.399  1.00  0.00     0.050 C 
HETATM    2  C   LIG     1      17.354  37.488  23.117  1.00  0.00    -0.038 A 
HETATM    3  C   LIG     1      16.864  36.174  23.143  1.00  0.00     0.010 A 
HETATM    4  C   LIG     1      16.853  35.401  21.982  1.00  0.00     0.020 A 
HETATM    5  C   LIG     1      17.335  35.948  20.795  1.00  0.00     0.117 A 
HETATM    6  N   LIG     1      17.809  37.220  20.775  1.00  0.00    -0.265 NA
HETATM    7  C   LIG     1      17.834  38.005  21.888  1.00  0.00     0.036 A 
HETATM    8  C   LIG     1      18.377  39.399  21.762  1.00  0.00     0.071 C 
ENDROOT
TORSDOF 0
ENDMDL
MODEL 15
REMARK VINA RESULT:      -4.8      1.954      3.332
REMARK  0 active torsions:
REMARK  status: ('A' for Active; 'I' for Inactive)
ROOT
HETATM    1  C   LIG     1      18.176  38.913  20.849  1.00  0.00     0.050 C 
HETATM    2  C   LIG     1      17.753  38.139  22.071  1.00  0.00    -0.038 A 
HETATM    3  C   LIG     1      17.829  38.775  23.318  1.00  0.00     0.010 A 
HETATM    4  C   LIG     1      17.448  38.103  24.479  1.00  0.00     0.020 A 
HETATM    5  C   LIG     1      16.991  36.790  24.386  1.00  0.00     0.117 A 
HETATM    6  N   LIG     1      16.919  36.179  23.176  1.00  0.00    -0.265 NA
HETATM    7  C   LIG     1      17.281  36.804  22.021  1.00  0.00     0.036 A 
HETATM    8  C   LIG     1      17.164  36.041  20.734  1.00  0.00     0.071 C 
ENDROOT
TORSDOF 0
ENDMDL
MODEL 16
REMARK VINA RESULT:      -4.8      9.542     11.381
REMARK  0 active torsions:
REMARK  status: ('A' for Active; 'I' for Inactive)
ROOT
HETATM    1  C   LIG     1      15.066  32.906  16.928  1.00  0.00     0.050 C 
HETATM    2  C   LIG     1      15.157  31.977  15.746  1.00  0.00    -0.038 A 
HETATM    3  C   LIG     1      14.223  30.936  15.646  1.00  0.00     0.010 A 
HETATM    4  C   LIG     1      14.265  30.049  14.571  1.00  0.00     0.020 A 
HETATM    5  C   LIG     1      15.246  30.208  13.595  1.00  0.00     0.117 A 
HETATM    6  N   LIG     1      16.149  31.217  13.697  1.00  0.00    -0.265 NA
HETATM    7  C   LIG     1      16.139  32.103  14.732  1.00  0.00     0.036 A 
HETATM    8  C   LIG     1      17.180  33.183  14.752  1.00  0.00     0.071 C 
ENDROOT
TORSDOF 0
ENDMDL
MODEL 17
REMARK VINA RESULT:      -4.7      9.852     11.228
REMARK  0 active torsions:
REMARK  status: ('A' for Active; 'I' for Inactive)
ROOT
HETATM    1  C   LIG     1      13.064  30.413  15.841  1.00  0.00     0.050 C 
HETATM    2  C   LIG     1      14.376  31.107  15.585  1.00  0.00    -0.038 A 
HETATM    3  C   LIG     1      14.666  32.269  16.314  1.00  0.00     0.010 A 
HETATM    4  C   LIG     1      15.868  32.948  16.115  1.00  0.00     0.020 A 
HETATM    5  C   LIG     1      16.779  32.459  15.181  1.00  0.00     0.117 A 
HETATM    6  N   LIG     1      16.493  31.334  14.477  1.00  0.00    -0.265 NA
HETATM    7  C   LIG     1      15.330  30.644  14.645  1.00  0.00     0.036 A 
HETATM    8  C   LIG     1      15.110  29.412  13.818  1.00  0.00     0.071 C 
ENDROOT
TORSDOF 0
ENDMDL
MODEL 18
REMARK VINA RESULT:      -4.6      9.979     11.188
REMARK  0 active torsions:
REMARK  status: ('A' for Active; 'I' for Inactive)
ROOT
HETATM    1  C   LIG     1      16.653  32.506  15.121  1.00  0.00     0.050 C 
HETATM    2  C   LIG     1      15.339  31.874  15.497  1.00  0.00    -0.038 A 
HETATM    3  C   LIG     1      14.669  32.358  16.630  1.00  0.00     0.010 A 
HETATM    4  C   LIG     1      13.449  31.807  17.019  1.00  0.00     0.020 A 
HETATM    5  C   LIG     1      12.901  30.769  16.270  1.00  0.00     0.117 A 
HETATM    6  N   LIG     1      13.553  30.303  15.175  1.00  0.00    -0.265 NA
HETATM    7  C   LIG     1      14.746  30.817  14.763  1.00  0.00     0.036 A 
HETATM    8  C   LIG     1      15.387  30.232  13.539  1.00  0.00     0.071 C 
ENDROOT
TORSDOF 0
ENDMDL
MODEL 19
REMARK VINA RESULT:      -4.6      8.628     10.608
REMARK  0 active torsions:
REMARK  status: ('A' for Active; 'I' for Inactive)
ROOT
HETATM    1  C   LIG     1      16.579  32.403  15.114  1.00  0.00     0.050 C 
HETATM    2  C   LIG     1      15.265  31.808  15.547  1.00  0.00    -0.038 A 
HETATM    3  C   LIG     1      14.711  30.783  14.766  1.00  0.00     0.010 A 
HETATM    4  C   LIG     1      13.496  30.199  15.125  1.00  0.00     0.020 A 
HETATM    5  C   LIG     1      12.838  30.644  16.269  1.00  0.00     0.117 A 
HETATM    6  N   LIG     1      13.379  31.637  17.021  1.00  0.00    -0.265 NA
HETATM    7  C   LIG     1      14.563  32.230  16.703  1.00  0.00     0.036 A 
HETATM    8  C   LIG     1      15.076  33.318  17.600  1.00  0.00     0.071 C 
ENDROOT
TORSDOF 0
ENDMDL
MODEL 20
REMARK VINA RESULT:      -4.5      8.570     10.582
REMARK  0 active torsions:
REMARK  status: ('A' for Active; 'I' for Inactive)
ROOT
HETATM    1  C   LIG     1      13.297  30.662  16.382  1.00  0.00     0.050 C 
HETATM    2  C   LIG     1      14.500  31.358  15.801  1.00  0.00    -0.038 A 
HETATM    3  C   LIG     1      14.884  31.038  14.491  1.00  0.00     0.010 A 
HETATM    4  C   LIG     1      15.990  31.655  13.908  1.00  0.00     0.020 A 
HETATM    5  C   LIG     1      16.711  32.595  14.641  1.00  0.00     0.117 A 
HETATM    6  N   LIG     1      16.335  32.901  15.909  1.00  0.00    -0.265 NA
HETATM    7  C   LIG     1      15.260  32.320  16.512  1.00  0.00     0.036 A 
HETATM    8  C   LIG     1      14.928  32.727  17.917  1.00  0.00     0.071 C 
ENDROOT
TORSDOF 0
ENDMDL
