MODEL 1
REMARK VINA RESULT:      -5.9      0.000      0.000
REMARK  0 active torsions:
REMARK  status: ('A' for Active; 'I' for Inactive)
ROOT
HETATM    1  C   LIG     1      18.325  36.321  26.829  1.00  0.00     0.018 C 
HETATM    2  C   LIG     1      18.035  36.386  25.323  1.00  0.00     0.051 C 
HETATM    3  C   LIG     1      17.360  35.087  24.839  1.00  0.00     0.012 C 
HETATM    4  C   LIG     1      16.897  35.134  23.359  1.00  0.00     0.001 C 
HETATM    5  C   LIG     1      17.099  36.500  22.678  1.00  0.00     0.007 C 
HETATM    6  C   LIG     1      16.598  37.654  23.554  1.00  0.00     0.079 C 
HETATM    7  C   LIG     1      17.165  37.567  24.945  1.00  0.00     0.130 C 
HETATM    8  O   LIG     1      16.894  38.439  25.759  1.00  0.00    -0.298 OA
ENDROOT
TORSDOF 0
ENDMDL
MODEL 2
REMARK VINA RESULT:      -5.5      3.517      4.794
REMARK  0 active torsions:
REMARK  status: ('A' for Active; 'I' for Inactive)
ROOT
HETATM    1  C   LIG     1      17.066  38.937  22.821  1.00  0.00     0.018 C 
HETATM    2  C   LIG     1      17.685  38.674  21.442  1.00  0.00     0.051 C 
HETATM    3  C   LIG     1      19.095  39.291  21.347  1.00  0.00     0.012 C 
HETATM    4  C   LIG     1      19.848  38.939  20.038  1.00  0.00     0.001 C 
HETATM    5  C   LIG     1      19.098  37.954  19.123  1.00  0.00     0.007 C 
HETATM    6  C   LIG     1      18.552  36.753  19.905  1.00  0.00     0.079 C 
HETATM    7  C   LIG     1      17.769  37.198  21.110  1.00  0.00     0.130 C 
HETATM    8  O   LIG     1      17.230  36.359  21.819  1.00  0.00    -0.298 OA
ENDROOT
TORSDOF 0
ENDMDL
MODEL 3
REMARK VINA RESULT:      -5.4      1.673      2.412
REMARK  0 active torsions:
REMARK  status: ('A' for Active; 'I' for Inactive)
ROOT
HETATM    1  C   LIG     1      18.180  36.644  26.460  1.00  0.00     0.018 C 
HETATM    2  C   LIG     1      17.494  37.097  25.164  1.00  0.00     0.051 C 
HETATM    3  C   LIG     1      18.356  38.138  24.423  1.00  0.00     0.012 C 
HETATM    4  C   LIG     1      17.804  38.533  23.028  1.00  0.00     0.001 C 
HETATM    5  C   LIG     1      16.559  37.738  22.594  1.00  0.00     0.007 C 
HETATM    6  C   LIG     1      16.736  36.233  22.823  1.00  0.00     0.079 C 
HETATM    7  C   LIG     1      17.195  35.945  24.226  1.00  0.00     0.130 C 
HETATM    8  O   LIG     1      17.344  34.784  24.583  1.00  0.00    -0.298 OA
ENDROOT
TORSDOF 0
ENDMDL
MODEL 4
REMARK VINA RESULT:      -5.4      3.299      4.684
REMARK  0 active torsions:
REMARK  status: ('A' for Active; 'I' for Inactive)
ROOT
HETATM    1  C   LIG     1      19.056  39.190  20.318  1.00  0.00     0.018 C 
HETATM    2  C   LIG     1      18.403  38.168  21.259  1.00  0.00     0.051 C 
HETATM    3  C   LIG     1      17.149  38.765  21.929  1.00  0.00     0.012 C 
HETATM    4  C   LIG     1      16.346  37.745  22.779  1.00  0.00     0.001 C 
HETATM    5  C   LIG     1      16.885  36.304  22.712  1.00  0.00     0.007 C 
HETATM    6  C   LIG     1      17.171  35.869  21.269  1.00  0.00     0.079 C 
HETATM    7  C   LIG     1      18.023  36.882  20.554  1.00  0.00     0.130 C 
HETATM    8  O   LIG     1      18.376  36.664  19.403  1.00  0.00    -0.298 OA
ENDROOT
TORSDOF 0
ENDMDL
MODEL 5
REMARK VINA RESULT:      -5.2      3.004      4.178
REMARK  0 active torsions:
REMARK  status: ('A' for Active; 'I' for Inactive)
ROOT
HETATM    1  C   LIG     1      16.449  34.840  21.274  1.00  0.00     0.018 C 
HETATM    2  C   LIG     1      16.648  36.326  21.604  1.00  0.00     0.051 C 
HETATM    3  C   LIG     1      16.934  36.518  23.107  1.00  0.00     0.012 C 
HETATM    4  C   LIG     1      17.296  37.976  23.495  1.00  0.00     0.001 C 
HETATM    5  C   LIG     1      17.409  38.939  22.298  1.00  0.00     0.007 C 
HETATM    6  C   LIG     1      18.246  38.339  21.162  1.00  0.00     0.079 C 
HETATM    7  C   LIG     1      17.767  36.959  20.803  1.00  0.00     0.130 C 
HETATM    8  O   LIG     1      18.305  36.357  19.883  1.00  0.00    -0.298 OA
ENDROOT
TORSDOF 0
ENDMDL
MODEL 6
REMARK VINA RESULT:      -5.2      3.142      4.224
REMARK  0 active torsions:
REMARK  status: ('A' for Active; 'I' for Inactive)
ROOT
HETATM    1  C   LIG     1      19.098  36.920  19.517  1.00  0.00     0.018 C 
HETATM    2  C   LIG     1      17.968  37.300  20.485  1.00  0.00     0.051 C 
HETATM    3  C   LIG     1      17.574  36.097  21.365  1.00  0.00     0.012 C 
HETATM    4  C   LIG     1      16.543  36.441  22.472  1.00  0.00     0.001 C 
HETATM    5  C   LIG     1      16.184  37.936  22.559  1.00  0.00     0.007 C 
HETATM    6  C   LIG     1      17.434  38.824  22.533  1.00  0.00     0.079 C 
HETATM    7  C   LIG     1      18.330  38.469  21.378  1.00  0.00     0.130 C 
HETATM    8  O   LIG     1      19.352  39.114  21.191  1.00  0.00    -0.298 OA
ENDROOT
TORSDOF 0
ENDMDL
MODEL 7
REMARK VINA RESULT:      -5.2      2.203      3.350
REMARK  0 active torsions:
REMARK  status: ('A' for Active; 'I' for Inactive)
ROOT
HETATM    1  C   LIG     1      17.172  39.205  23.034  1.00  0.00     0.018 C 
HETATM    2  C   LIG     1      16.920  37.913  22.246  1.00  0.00     0.051 C 
HETATM    3  C   LIG     1      17.957  37.749  21.116  1.00  0.00     0.012 C 
HETATM    4  C   LIG     1      17.863  36.392  20.369  1.00  0.00     0.001 C 
HETATM    5  C   LIG     1      16.827  35.418  20.959  1.00  0.00     0.007 C 
HETATM    6  C   LIG     1      16.944  35.315  22.484  1.00  0.00     0.079 C 
HETATM    7  C   LIG     1      16.945  36.678  23.123  1.00  0.00     0.130 C 
HETATM    8  O   LIG     1      16.991  36.769  24.342  1.00  0.00    -0.298 OA
ENDROOT
TORSDOF 0
ENDMDL
MODEL 8
REMARK VINA RESULT:      -5.1     10.074     11.478
REMARK  0 active torsions:
REMARK  status: ('A' for Active; 'I' for Inactive)
ROOT
HETATM    1  C   LIG     1      13.931  32.205  17.224  1.00  0.00     0.018 C 
HETATM    2  C   LIG     1      14.335  31.138  16.197  1.00  0.00     0.051 C 
HETATM    3  C   LIG     1      13.088  30.477  15.576  1.00  0.00     0.012 C 
HETATM    4  C   LIG     1      13.409  29.495  14.419  1.00  0.00     0.001 C 
HETATM    5  C   LIG     1      14.898  29.440  14.032  1.00  0.00     0.007 C 
HETATM    6  C   LIG     1      15.500  30.842  13.883  1.00  0.00     0.079 C 
HETATM    7  C   LIG     1      15.205  31.693  15.088  1.00  0.00     0.130 C 
HETATM    8  O   LIG     1      15.652  32.830  15.144  1.00  0.00    -0.298 OA
ENDROOT
TORSDOF 0
ENDMDL
MODEL 9
REMARK VINA RESULT:      -5.0      9.616     10.775
REMARK  0 active torsions:
REMARK  status: ('A' for Active; 'I' for Inactive)
ROOT
HETATM    1  C   LIG     1      16.872  32.806  14.892  1.00  0.00     0.018 C 
HETATM    2  C   LIG     1      15.493  32.155  15.057  1.00  0.00     0.051 C 
HETATM    3  C   LIG     1      15.484  30.733  14.460  1.00  0.00     0.012 C 
HETATM    4  C   LIG     1      14.170  29.951  14.722  1.00  0.00     0.001 C 
HETATM    5  C   LIG     1      13.161  30.692  15.618  1.00  0.00     0.007 C 
HETATM    6  C   LIG     1      13.831  31.278  16.867  1.00  0.00     0.079 C 
HETATM    7  C   LIG     1      15.047  32.086  16.504  1.00  0.00     0.130 C 
HETATM    8  O   LIG     1      15.673  32.657  17.386  1.00  0.00    -0.298 OA
ENDROOT
TORSDOF 0
ENDMDL
MODEL 10
REMARK VINA RESULT:      -4.8      9.707     11.141
REMARK  0 active torsions:
REMARK  status: ('A' for Active; 'I' for Inactive)
ROOT
HETATM    1  C   LIG     1      13.702  29.587  14.459  1.00  0.00     0.018 C 
HETATM    2  C   LIG     1      14.010  30.916  15.163  1.00  0.00     0.051 C 
HETATM    3  C   LIG     1      13.718  30.816  16.674  1.00  0.00     0.012 C 
HETATM    4  C   LIG     1      14.147  32.070  17.480  1.00  0.00     0.001 C 
HETATM    5  C   LIG     1      14.878  33.138  16.646  1.00  0.00     0.007 C 
HETATM    6  C   LIG     1      15.974  32.522  15.767  1.00  0.00     0.079 C 
HETATM    7  C   LIG     1      15.442  31.366  14.964  1.00  0.00     0.130 C 
HETATM    8  O   LIG     1      16.183  30.791  14.179  1.00  0.00    -0.298 OA
ENDROOT
TORSDOF 0
ENDMDL
MODEL 11
REMARK VINA RESULT:      -4.7     10.007     11.012
REMARK  0 active torsions:
REMARK  status: ('A' for Active; 'I' for Inactive)
ROOT
HETATM    1  C   LIG     1      17.475  32.961  14.902  1.00  0.00     0.018 C 
HETATM    2  C   LIG     1      16.335  32.172  15.561  1.00  0.00     0.051 C 
HETATM    3  C   LIG     1      15.360  33.121  16.286  1.00  0.00     0.012 C 
HETATM    4  C   LIG     1      14.098  32.415  16.849  1.00  0.00     0.001 C 
HETATM    5  C   LIG     1      13.998  30.921  16.490  1.00  0.00     0.007 C 
HETATM    6  C   LIG     1      14.275  30.673  15.002  1.00  0.00     0.079 C 
HETATM    7  C   LIG     1      15.559  31.327  14.571  1.00  0.00     0.130 C 
HETATM    8  O   LIG     1      15.945  31.189  13.419  1.00  0.00    -0.298 OA
ENDROOT
TORSDOF 0
ENDMDL
MODEL 12
REMARK VINA RESULT:      -4.4      8.899     10.350
REMARK  0 active torsions:
REMARK  status: ('A' for Active; 'I' for Inactive)
ROOT
HETATM    1  C   LIG     1      15.193  33.911  17.184  1.00  0.00     0.018 C 
HETATM    2  C   LIG     1      14.762  32.806  16.211  1.00  0.00     0.051 C 
HETATM    3  C   LIG     1      15.974  32.263  15.427  1.00  0.00     0.012 C 
HETATM    4  C   LIG     1      15.645  31.039  14.532  1.00  0.00     0.001 C 
HETATM    5  C   LIG     1      14.201  30.524  14.671  1.00  0.00     0.007 C 
HETATM    6  C   LIG     1      13.783  30.389  16.140  1.00  0.00     0.079 C 
HETATM    7  C   LIG     1      14.066  31.653  16.905  1.00  0.00     0.130 C 
HETATM    8  O   LIG     1      13.751  31.723  18.086  1.00  0.00    -0.298 OA
ENDROOT
TORSDOF 0
ENDMDL
MODEL 13
REMARK VINA RESULT:      -4.1      9.409     10.262
REMARK  0 active torsions:
REMARK  status: ('A' for Active; 'I' for Inactive)
ROOT
HETATM    1  C   LIG     1      13.039  31.872  17.008  1.00  0.00     0.018 C 
HETATM    2  C   LIG     1      14.463  31.777  16.444  1.00  0.00     0.051 C 
HETATM    3  C   LIG     1      14.466  31.047  15.085  1.00  0.00     0.012 C 
HETATM    4  C   LIG     1      15.847  31.044  14.378  1.00  0.00     0.001 C 
HETATM    5  C   LIG     1      16.932  31.858  15.106  1.00  0.00     0.007 C 
HETATM    6  C   LIG     1      16.419  33.240  15.529  1.00  0.00     0.079 C 
HETATM    7  C   LIG     1      15.119  33.133  16.278  1.00  0.00     0.130 C 
HETATM    8  O   LIG     1      14.597  34.146  16.722  1.00  0.00    -0.298 OA
ENDROOT
TORSDOF 0
ENDMDL
MODEL 14
REMARK VINA RESULT:      -3.8     19.577     20.416
REMARK  0 active torsions:
REMARK  status: ('A' for Active; 'I' for Inactive)
ROOT
HETATM    1  C   LIG     1      14.905  18.650  17.209  1.00  0.00     0.018 C 
HETATM    2  C   LIG     1      15.075  18.418  15.702  1.00  0.00     0.051 C 
HETATM    3  C   LIG     1      13.712  18.473  14.983  1.00  0.00     0.012 C 
HETATM    4  C   LIG     1      13.814  18.399  13.437  1.00  0.00     0.001 C 
HETATM    5  C   LIG     1      15.257  18.392  12.899  1.00  0.00     0.007 C 
HETATM    6  C   LIG     1      16.116  19.478  13.558  1.00  0.00     0.079 C 
HETATM    7  C   LIG     1      16.014  19.417  15.058  1.00  0.00     0.130 C 
HETATM    8  O   LIG     1      16.674  20.193  15.736  1.00  0.00    -0.298 OA
ENDROOT
TORSDOF 0
ENDMDL
MODEL 15
REMARK VINA RESULT:      -3.5     19.965     21.021
REMARK  0 active torsions:
REMARK  status: ('A' for Active; 'I' for Inactive)
ROOT
HETATM    1  C   LIG     1      12.435  18.211  14.081  1.00  0.00     0.018 C 
HETATM    2  C   LIG     1      13.761  18.822  14.553  1.00  0.00     0.051 C 
HETATM    3  C   LIG     1      14.108  18.343  15.977  1.00  0.00     0.012 C 
HETATM    4  C   LIG     1      15.509  18.795  16.467  1.00  0.00     0.001 C 
HETATM    5  C   LIG     1      16.337  19.546  15.408  1.00  0.00     0.007 C 
HETATM    6  C   LIG     1      16.322  18.823  14.056  1.00  0.00     0.079 C 
HETATM    7  C   LIG     1      14.916  18.499  13.627  1.00  0.00     0.130 C 
HETATM    8  O   LIG     1      14.729  17.958  12.547  1.00  0.00    -0.298 OA
ENDROOT
TORSDOF 0
ENDMDL
MODEL 16
REMARK VINA RESULT:      -3.5     19.846     20.952
REMARK  0 active torsions:
REMARK  status: ('A' for Active; 'I' for Inactive)
ROOT
HETATM    1  C   LIG     1      14.359  18.636  12.267  1.00  0.00     0.018 C 
HETATM    2  C   LIG     1      14.926  18.414  13.676  1.00  0.00     0.051 C 
HETATM    3  C   LIG     1      15.952  19.509  14.032  1.00  0.00     0.012 C 
HETATM    4  C   LIG     1      16.458  19.442  15.497  1.00  0.00     0.001 C 
HETATM    5  C   LIG     1      15.767  18.367  16.355  1.00  0.00     0.007 C 
HETATM    6  C   LIG     1      14.243  18.401  16.193  1.00  0.00     0.079 C 
HETATM    7  C   LIG     1      13.849  18.380  14.741  1.00  0.00     0.130 C 
HETATM    8  O   LIG     1      12.663  18.361  14.441  1.00  0.00    -0.298 OA
ENDROOT
TORSDOF 0
ENDMDL
MODEL 17
REMARK VINA RESULT:      -3.3     17.374     18.000
REMARK  0 active torsions:
REMARK  status: ('A' for Active; 'I' for Inactive)
ROOT
HETATM    1  C   LIG     1      19.992  21.731  32.711  1.00  0.00     0.018 C 
HETATM    2  C   LIG     1      20.638  22.622  33.781  1.00  0.00     0.051 C 
HETATM    3  C   LIG     1      19.685  22.820  34.977  1.00  0.00     0.012 C 
HETATM    4  C   LIG     1      20.322  23.583  36.168  1.00  0.00     0.001 C 
HETATM    5  C   LIG     1      21.816  23.909  35.982  1.00  0.00     0.007 C 
HETATM    6  C   LIG     1      22.607  22.691  35.490  1.00  0.00     0.079 C 
HETATM    7  C   LIG     1      21.956  22.069  34.285  1.00  0.00     0.130 C 
HETATM    8  O   LIG     1      22.487  21.109  33.744  1.00  0.00    -0.298 OA
ENDROOT
TORSDOF 0
ENDMDL
MODEL 18
REMARK VINA RESULT:      -3.1     19.916     20.892
REMARK  0 active torsions:
REMARK  status: ('A' for Active; 'I' for Inactive)
ROOT
HETATM    1  C   LIG     1      14.911  18.662  17.151  1.00  0.00     0.018 C 
HETATM    2  C   LIG     1      15.446  18.825  15.721  1.00  0.00     0.051 C 
HETATM    3  C   LIG     1      16.688  17.940  15.497  1.00  0.00     0.012 C 
HETATM    4  C   LIG     1      17.198  17.933  14.032  1.00  0.00     0.001 C 
HETATM    5  C   LIG     1      16.312  18.722  13.051  1.00  0.00     0.007 C 
HETATM    6  C   LIG     1      14.826  18.384  13.226  1.00  0.00     0.079 C 
HETATM    7  C   LIG     1      14.408  18.498  14.667  1.00  0.00     0.130 C 
HETATM    8  O   LIG     1      13.240  18.300  14.970  1.00  0.00    -0.298 OA
ENDROOT
TORSDOF 0
ENDMDL
