REMARK  0 active torsions:
REMARK  status: ('A' for Active; 'I' for Inactive)
ROOT
HETATM    1  C   LIG     1      -1.226   1.588  -0.063  1.00  0.00     0.050 C 
HETATM    2  C   LIG     1      -0.101   0.588  -0.003  1.00  0.00    -0.038 A 
HETATM    3  C   LIG     1       1.213   1.071   0.077  1.00  0.00     0.010 A 
HETATM    4  C   LIG     1       2.289   0.186   0.136  1.00  0.00     0.020 A 
HETATM    5  C   LIG     1       2.045  -1.185   0.114  1.00  0.00     0.117 A 
HETATM    6  N   LIG     1       0.771  -1.648   0.036  1.00  0.00    -0.265 NA
HETATM    7  C   LIG     1      -0.305  -0.814  -0.022  1.00  0.00     0.036 A 
HETATM    8  C   LIG     1      -1.673  -1.425  -0.106  1.00  0.00     0.071 C 
ENDROOT
TORSDOF 0
