REMARK  0 active torsions:
REMARK  status: ('A' for Active; 'I' for Inactive)
ROOT
HETATM    1  C   LIG     1      -0.199   1.941  -0.082  1.00  0.00     0.049 C 
HETATM    2  C   LIG     1      -0.448   0.457  -0.018  1.00  0.00    -0.053 A 
HETATM    3  C   LIG     1      -1.767  -0.022   0.006  1.00  0.00     0.026 A 
HETATM    4  C   LIG     1      -2.004  -1.396   0.066  1.00  0.00     0.116 A 
HETATM    5  N   LIG     1      -0.962  -2.266   0.100  1.00  0.00    -0.273 NA
HETATM    6  C   LIG     1       0.327  -1.839   0.078  1.00  0.00     0.123 A 
HETATM    7  C   LIG     1       0.622  -0.467   0.018  1.00  0.00    -0.038 A 
HETATM    8  C   LIG     1       2.057  -0.012  -0.006  1.00  0.00     0.050 C 
ENDROOT
TORSDOF 0
