REMARK  0 active torsions:
REMARK  status: ('A' for Active; 'I' for Inactive)
ROOT
HETATM    1  C   LIG     1       2.447  -0.230  -0.171  1.00  0.00     0.018 C 
HETATM    2  C   LIG     1       0.944   0.007  -0.372  1.00  0.00     0.051 C 
HETATM    3  C   LIG     1       0.136  -1.250   0.009  1.00  0.00     0.012 C 
HETATM    4  C   LIG     1      -1.401  -1.041  -0.022  1.00  0.00     0.001 C 
HETATM    5  C   LIG     1      -1.836   0.405  -0.322  1.00  0.00     0.007 C 
HETATM    6  C   LIG     1      -1.057   1.421   0.522  1.00  0.00     0.079 C 
HETATM    7  C   LIG     1       0.426   1.188   0.423  1.00  0.00     0.130 C 
HETATM    8  O   LIG     1       1.192   1.942   1.007  1.00  0.00    -0.298 OA
ENDROOT
TORSDOF 0
