REMARK  0 active torsions:
REMARK  status: ('A' for Active; 'I' for Inactive)
ROOT
HETATM    1 BR   LIG     1       2.108   2.434  -0.108  1.00  0.00    -0.050 Br
HETATM    2  C   LIG     1       0.845   0.995  -0.043  1.00  0.00     0.028 A 
HETATM    3  C   LIG     1      -0.520   1.302  -0.001  1.00  0.00     0.020 A 
HETATM    4  C   LIG     1      -1.472   0.280   0.047  1.00  0.00     0.001 A 
HETATM    5  C   LIG     1      -1.063  -1.056   0.052  1.00  0.00     0.001 A 
HETATM    6  C   LIG     1       0.298  -1.371   0.009  1.00  0.00     0.020 A 
HETATM    7  C   LIG     1       1.258  -0.351  -0.039  1.00  0.00     0.028 A 
HETATM    8 BR   LIG     1       3.110  -0.836  -0.096  1.00  0.00    -0.050 Br
ENDROOT
TORSDOF 0
