MODEL 1
REMARK VINA RESULT:      -8.6      0.000      0.000
REMARK  6 active torsions:
REMARK  status: ('A' for Active; 'I' for Inactive)
REMARK    1  A    between atoms: C_2  and  C_7 
REMARK    2  A    between atoms: C_2  and  O_3 
REMARK    3  A    between atoms: O_3  and  C_4 
REMARK    4  A    between atoms: C_7  and  C_8 
REMARK    5  A    between atoms: C_7  and  C_16 
REMARK    6  A    between atoms: C_7  and  O_15 
ROOT
HETATM    1  C   LIG     1      16.371  37.258  22.442  1.00  0.00     0.201 C 
ENDROOT
BRANCH   1   2
HETATM    2  C   LIG     1      15.568  36.121  21.849  1.00  0.00     0.303 C 
HETATM    3  O   LIG     1      14.335  36.271  21.624  1.00  0.00    -0.261 OA
BRANCH   2   4
HETATM    4  O   LIG     1      16.199  34.892  21.600  1.00  0.00    -0.314 OA
BRANCH   4   5
HETATM    5  C   LIG     1      15.936  34.026  20.491  1.00  0.00     0.123 C 
HETATM    6  C   LIG     1      15.633  34.824  19.218  1.00  0.00     0.040 C 
HETATM    7  C   LIG     1      14.829  33.018  20.815  1.00  0.00     0.040 C 
ENDBRANCH   4   5
ENDBRANCH   2   4
ENDBRANCH   1   2
BRANCH   1   8
HETATM    8  C   LIG     1      17.442  37.756  21.457  1.00  0.00    -0.009 A 
HETATM    9  C   LIG     1      17.901  39.093  21.491  1.00  0.00     0.013 A 
HETATM   10  C   LIG     1      18.918  39.523  20.636  1.00  0.00     0.024 A 
HETATM   11  C   LIG     1      19.524  38.623  19.756  1.00  0.00     0.034 A 
HETATM   12  C   LIG     1      19.122  37.286  19.745  1.00  0.00     0.024 A 
HETATM   13 CL   LIG     1      20.803  39.166  18.687  1.00  0.00    -0.084 Cl
HETATM   14  C   LIG     1      18.105  36.851  20.598  1.00  0.00     0.013 A 
ENDBRANCH   1   8
BRANCH   1  15
HETATM   15  C   LIG     1      16.975  36.717  23.744  1.00  0.00    -0.009 A 
HETATM   16  C   LIG     1      16.999  35.335  24.025  1.00  0.00     0.013 A 
HETATM   17  C   LIG     1      17.590  34.856  25.198  1.00  0.00     0.024 A 
HETATM   18  C   LIG     1      18.179  35.743  26.101  1.00  0.00     0.034 A 
HETATM   19  C   LIG     1      18.186  37.112  25.827  1.00  0.00     0.024 A 
HETATM   20 CL   LIG     1      18.921  35.138  27.571  1.00  0.00    -0.084 Cl
HETATM   21  C   LIG     1      17.597  37.597  24.657  1.00  0.00     0.013 A 
ENDBRANCH   1  15
BRANCH   1  22
HETATM   22  O   LIG     1      15.491  38.330  22.701  1.00  0.00    -0.371 OA
HETATM   23  H   LIG     1      14.892  38.061  23.448  1.00  0.00     0.212 HD
ENDBRANCH   1  22
TORSDOF 6
ENDMDL
MODEL 2
REMARK VINA RESULT:      -8.0      2.372      5.690
REMARK  6 active torsions:
REMARK  status: ('A' for Active; 'I' for Inactive)
REMARK    1  A    between atoms: C_2  and  C_7 
REMARK    2  A    between atoms: C_2  and  O_3 
REMARK    3  A    between atoms: O_3  and  C_4 
REMARK    4  A    between atoms: C_7  and  C_8 
REMARK    5  A    between atoms: C_7  and  C_16 
REMARK    6  A    between atoms: C_7  and  O_15 
ROOT
HETATM    1  C   LIG     1      16.343  36.170  21.722  1.00  0.00     0.201 C 
ENDROOT
BRANCH   1   2
HETATM    2  C   LIG     1      16.921  35.580  22.991  1.00  0.00     0.303 C 
HETATM    3  O   LIG     1      17.562  34.495  22.945  1.00  0.00    -0.261 OA
BRANCH   2   4
HETATM    4  O   LIG     1      16.692  36.229  24.215  1.00  0.00    -0.314 OA
BRANCH   4   5
HETATM    5  C   LIG     1      17.697  36.806  25.056  1.00  0.00     0.123 C 
HETATM    6  C   LIG     1      17.973  35.928  26.281  1.00  0.00     0.040 C 
HETATM    7  C   LIG     1      17.345  38.244  25.446  1.00  0.00     0.040 C 
ENDBRANCH   4   5
ENDBRANCH   2   4
ENDBRANCH   1   2
BRANCH   1   8
HETATM    8  C   LIG     1      15.787  35.070  20.800  1.00  0.00    -0.009 A 
HETATM    9  C   LIG     1      15.831  35.206  19.394  1.00  0.00     0.013 A 
HETATM   10  C   LIG     1      15.382  34.177  18.561  1.00  0.00     0.024 A 
HETATM   11  C   LIG     1      14.916  32.981  19.111  1.00  0.00     0.034 A 
HETATM   12  C   LIG     1      14.916  32.807  20.497  1.00  0.00     0.024 A 
HETATM   13 CL   LIG     1      14.357  31.691  18.063  1.00  0.00    -0.084 Cl
HETATM   14  C   LIG     1      15.364  33.833  21.333  1.00  0.00     0.013 A 
ENDBRANCH   1   8
BRANCH   1  15
HETATM   15  C   LIG     1      17.478  36.967  21.068  1.00  0.00    -0.009 A 
HETATM   16  C   LIG     1      18.296  36.398  20.068  1.00  0.00     0.013 A 
HETATM   17  C   LIG     1      19.300  37.152  19.455  1.00  0.00     0.024 A 
HETATM   18  C   LIG     1      19.496  38.487  19.815  1.00  0.00     0.034 A 
HETATM   19  C   LIG     1      18.680  39.073  20.784  1.00  0.00     0.024 A 
HETATM   20 CL   LIG     1      20.757  39.430  19.040  1.00  0.00    -0.084 Cl
HETATM   21  C   LIG     1      17.675  38.325  21.401  1.00  0.00     0.013 A 
ENDBRANCH   1  15
BRANCH   1  22
HETATM   22  O   LIG     1      15.272  37.016  22.078  1.00  0.00    -0.371 OA
HETATM   23  H   LIG     1      14.807  37.289  21.244  1.00  0.00     0.212 HD
ENDBRANCH   1  22
TORSDOF 6
ENDMDL
MODEL 3
REMARK VINA RESULT:      -6.8      2.331      5.124
REMARK  6 active torsions:
REMARK  status: ('A' for Active; 'I' for Inactive)
REMARK    1  A    between atoms: C_2  and  C_7 
REMARK    2  A    between atoms: C_2  and  O_3 
REMARK    3  A    between atoms: O_3  and  C_4 
REMARK    4  A    between atoms: C_7  and  C_8 
REMARK    5  A    between atoms: C_7  and  C_16 
REMARK    6  A    between atoms: C_7  and  O_15 
ROOT
HETATM    1  C   LIG     1      16.852  35.577  21.572  1.00  0.00     0.201 C 
ENDROOT
BRANCH   1   2
HETATM    2  C   LIG     1      15.763  36.278  22.355  1.00  0.00     0.303 C 
HETATM    3  O   LIG     1      14.717  36.667  21.767  1.00  0.00    -0.261 OA
BRANCH   2   4
HETATM    4  O   LIG     1      15.955  36.530  23.723  1.00  0.00    -0.314 OA
BRANCH   4   5
HETATM    5  C   LIG     1      17.213  36.781  24.357  1.00  0.00     0.123 C 
HETATM    6  C   LIG     1      17.496  35.759  25.464  1.00  0.00     0.040 C 
HETATM    7  C   LIG     1      17.307  38.222  24.867  1.00  0.00     0.040 C 
ENDBRANCH   4   5
ENDBRANCH   2   4
ENDBRANCH   1   2
BRANCH   1   8
HETATM    8  C   LIG     1      17.822  36.589  20.938  1.00  0.00    -0.009 A 
HETATM    9  C   LIG     1      18.731  36.197  19.930  1.00  0.00     0.013 A 
HETATM   10  C   LIG     1      19.566  37.133  19.314  1.00  0.00     0.024 A 
HETATM   11  C   LIG     1      19.486  38.483  19.664  1.00  0.00     0.034 A 
HETATM   12  C   LIG     1      18.556  38.898  20.619  1.00  0.00     0.024 A 
HETATM   13 CL   LIG     1      20.532  39.656  18.887  1.00  0.00    -0.084 Cl
HETATM   14  C   LIG     1      17.720  37.966  21.238  1.00  0.00     0.013 A 
ENDBRANCH   1   8
BRANCH   1  15
HETATM   15  C   LIG     1      16.135  34.715  20.525  1.00  0.00    -0.009 A 
HETATM   16  C   LIG     1      15.854  35.209  19.233  1.00  0.00     0.013 A 
HETATM   17  C   LIG     1      15.236  34.396  18.279  1.00  0.00     0.024 A 
HETATM   18  C   LIG     1      14.902  33.076  18.589  1.00  0.00     0.034 A 
HETATM   19  C   LIG     1      15.196  32.563  19.854  1.00  0.00     0.024 A 
HETATM   20 CL   LIG     1      14.129  32.059  17.387  1.00  0.00    -0.084 Cl
HETATM   21  C   LIG     1      15.814  33.370  20.813  1.00  0.00     0.013 A 
ENDBRANCH   1  15
BRANCH   1  22
HETATM   22  O   LIG     1      17.590  34.774  22.466  1.00  0.00    -0.371 OA
HETATM   23  H   LIG     1      16.945  34.309  23.063  1.00  0.00     0.212 HD
ENDBRANCH   1  22
TORSDOF 6
ENDMDL
MODEL 4
REMARK VINA RESULT:      -6.4      0.960      5.185
REMARK  6 active torsions:
REMARK  status: ('A' for Active; 'I' for Inactive)
REMARK    1  A    between atoms: C_2  and  C_7 
REMARK    2  A    between atoms: C_2  and  O_3 
REMARK    3  A    between atoms: O_3  and  C_4 
REMARK    4  A    between atoms: C_7  and  C_8 
REMARK    5  A    between atoms: C_7  and  C_16 
REMARK    6  A    between atoms: C_7  and  O_15 
ROOT
HETATM    1  C   LIG     1      16.927  35.740  21.851  1.00  0.00     0.201 C 
ENDROOT
BRANCH   1   2
HETATM    2  C   LIG     1      15.453  35.884  21.536  1.00  0.00     0.303 C 
HETATM    3  O   LIG     1      14.793  36.837  22.033  1.00  0.00    -0.261 OA
BRANCH   2   4
HETATM    4  O   LIG     1      14.828  34.920  20.728  1.00  0.00    -0.314 OA
BRANCH   4   5
HETATM    5  C   LIG     1      15.488  34.047  19.805  1.00  0.00     0.123 C 
HETATM    6  C   LIG     1      15.286  34.507  18.357  1.00  0.00     0.040 C 
HETATM    7  C   LIG     1      15.064  32.590  20.010  1.00  0.00     0.040 C 
ENDBRANCH   4   5
ENDBRANCH   2   4
ENDBRANCH   1   2
BRANCH   1   8
HETATM    8  C   LIG     1      17.197  35.951  23.352  1.00  0.00    -0.009 A 
HETATM    9  C   LIG     1      17.278  34.855  24.240  1.00  0.00     0.013 A 
HETATM   10  C   LIG     1      17.585  35.048  25.589  1.00  0.00     0.024 A 
HETATM   11  C   LIG     1      17.854  36.330  26.072  1.00  0.00     0.034 A 
HETATM   12  C   LIG     1      17.834  37.419  25.198  1.00  0.00     0.024 A 
HETATM   13 CL   LIG     1      18.245  36.569  27.765  1.00  0.00    -0.084 Cl
HETATM   14  C   LIG     1      17.526  37.231  23.848  1.00  0.00     0.013 A 
ENDBRANCH   1   8
BRANCH   1  15
HETATM   15  C   LIG     1      17.652  36.766  20.973  1.00  0.00    -0.009 A 
HETATM   16  C   LIG     1      17.795  38.111  21.378  1.00  0.00     0.013 A 
HETATM   17  C   LIG     1      18.493  39.024  20.583  1.00  0.00     0.024 A 
HETATM   18  C   LIG     1      19.074  38.611  19.381  1.00  0.00     0.034 A 
HETATM   19  C   LIG     1      18.963  37.279  18.978  1.00  0.00     0.024 A 
HETATM   20 CL   LIG     1      19.951  39.760  18.389  1.00  0.00    -0.084 Cl
HETATM   21  C   LIG     1      18.266  36.361  19.768  1.00  0.00     0.013 A 
ENDBRANCH   1  15
BRANCH   1  22
HETATM   22  O   LIG     1      17.321  34.426  21.522  1.00  0.00    -0.371 OA
HETATM   23  H   LIG     1      17.525  34.403  20.550  1.00  0.00     0.212 HD
ENDBRANCH   1  22
TORSDOF 6
ENDMDL
MODEL 5
REMARK VINA RESULT:      -6.2      6.557      9.565
REMARK  6 active torsions:
REMARK  status: ('A' for Active; 'I' for Inactive)
REMARK    1  A    between atoms: C_2  and  C_7 
REMARK    2  A    between atoms: C_2  and  O_3 
REMARK    3  A    between atoms: O_3  and  C_4 
REMARK    4  A    between atoms: C_7  and  C_8 
REMARK    5  A    between atoms: C_7  and  C_16 
REMARK    6  A    between atoms: C_7  and  O_15 
ROOT
HETATM    1  C   LIG     1      16.320  32.312  15.625  1.00  0.00     0.201 C 
ENDROOT
BRANCH   1   2
HETATM    2  C   LIG     1      15.519  33.292  16.455  1.00  0.00     0.303 C 
HETATM    3  O   LIG     1      15.505  34.515  16.146  1.00  0.00    -0.261 OA
BRANCH   2   4
HETATM    4  O   LIG     1      14.837  32.830  17.593  1.00  0.00    -0.314 OA
BRANCH   4   5
HETATM    5  C   LIG     1      15.421  32.597  18.879  1.00  0.00     0.123 C 
HETATM    6  C   LIG     1      14.713  31.455  19.617  1.00  0.00     0.040 C 
HETATM    7  C   LIG     1      15.469  33.880  19.715  1.00  0.00     0.040 C 
ENDBRANCH   4   5
ENDBRANCH   2   4
ENDBRANCH   1   2
BRANCH   1   8
HETATM    8  C   LIG     1      17.048  33.025  14.472  1.00  0.00    -0.009 A 
HETATM    9  C   LIG     1      18.439  33.267  14.525  1.00  0.00     0.013 A 
HETATM   10  C   LIG     1      19.105  33.858  13.449  1.00  0.00     0.024 A 
HETATM   11  C   LIG     1      18.406  34.186  12.285  1.00  0.00     0.034 A 
HETATM   12  C   LIG     1      17.042  33.904  12.192  1.00  0.00     0.024 A 
HETATM   13 CL   LIG     1      19.246  34.923  10.934  1.00  0.00    -0.084 Cl
HETATM   14  C   LIG     1      16.372  33.313  13.266  1.00  0.00     0.013 A 
ENDBRANCH   1   8
BRANCH   1  15
HETATM   15  C   LIG     1      15.322  31.259  15.129  1.00  0.00    -0.009 A 
HETATM   16  C   LIG     1      15.702  30.260  14.208  1.00  0.00     0.013 A 
HETATM   17  C   LIG     1      14.790  29.285  13.797  1.00  0.00     0.024 A 
HETATM   18  C   LIG     1      13.490  29.278  14.308  1.00  0.00     0.034 A 
HETATM   19  C   LIG     1      13.104  30.243  15.240  1.00  0.00     0.024 A 
HETATM   20 CL   LIG     1      12.349  28.050  13.791  1.00  0.00    -0.084 Cl
HETATM   21  C   LIG     1      14.011  31.222  15.654  1.00  0.00     0.013 A 
ENDBRANCH   1  15
BRANCH   1  22
HETATM   22  O   LIG     1      17.298  31.727  16.457  1.00  0.00    -0.371 OA
HETATM   23  H   LIG     1      16.964  31.761  17.392  1.00  0.00     0.212 HD
ENDBRANCH   1  22
TORSDOF 6
ENDMDL
MODEL 6
REMARK VINA RESULT:      -5.9     15.321     17.374
REMARK  6 active torsions:
REMARK  status: ('A' for Active; 'I' for Inactive)
REMARK    1  A    between atoms: C_2  and  C_7 
REMARK    2  A    between atoms: C_2  and  O_3 
REMARK    3  A    between atoms: O_3  and  C_4 
REMARK    4  A    between atoms: C_7  and  C_8 
REMARK    5  A    between atoms: C_7  and  C_16 
REMARK    6  A    between atoms: C_7  and  O_15 
ROOT
HETATM    1  C   LIG     1      25.419  21.722  19.303  1.00  0.00     0.201 C 
ENDROOT
BRANCH   1   2
HETATM    2  C   LIG     1      24.314  21.635  18.271  1.00  0.00     0.303 C 
HETATM    3  O   LIG     1      23.765  22.689  17.847  1.00  0.00    -0.261 OA
BRANCH   2   4
HETATM    4  O   LIG     1      23.881  20.373  17.835  1.00  0.00    -0.314 OA
BRANCH   4   5
HETATM    5  C   LIG     1      22.608  19.782  18.120  1.00  0.00     0.123 C 
HETATM    6  C   LIG     1      22.714  18.734  19.234  1.00  0.00     0.040 C 
HETATM    7  C   LIG     1      21.957  19.214  16.855  1.00  0.00     0.040 C 
ENDBRANCH   4   5
ENDBRANCH   2   4
ENDBRANCH   1   2
BRANCH   1   8
HETATM    8  C   LIG     1      24.866  21.539  20.727  1.00  0.00    -0.009 A 
HETATM    9  C   LIG     1      23.519  21.842  21.031  1.00  0.00     0.013 A 
HETATM   10  C   LIG     1      23.006  21.615  22.311  1.00  0.00     0.024 A 
HETATM   11  C   LIG     1      23.812  21.048  23.301  1.00  0.00     0.034 A 
HETATM   12  C   LIG     1      25.129  20.692  23.004  1.00  0.00     0.024 A 
HETATM   13 CL   LIG     1      23.164  20.760  24.904  1.00  0.00    -0.084 Cl
HETATM   14  C   LIG     1      25.647  20.917  21.726  1.00  0.00     0.013 A 
ENDBRANCH   1   8
BRANCH   1  15
HETATM   15  C   LIG     1      26.081  23.090  19.101  1.00  0.00    -0.009 A 
HETATM   16  C   LIG     1      25.837  24.164  19.983  1.00  0.00     0.013 A 
HETATM   17  C   LIG     1      26.480  25.392  19.808  1.00  0.00     0.024 A 
HETATM   18  C   LIG     1      27.388  25.567  18.761  1.00  0.00     0.034 A 
HETATM   19  C   LIG     1      27.661  24.507  17.894  1.00  0.00     0.024 A 
HETATM   20 CL   LIG     1      28.195  27.109  18.546  1.00  0.00    -0.084 Cl
HETATM   21  C   LIG     1      27.022  23.277  18.064  1.00  0.00     0.013 A 
ENDBRANCH   1  15
BRANCH   1  22
HETATM   22  O   LIG     1      26.334  20.677  19.057  1.00  0.00    -0.371 OA
HETATM   23  H   LIG     1      26.645  20.331  19.934  1.00  0.00     0.212 HD
ENDBRANCH   1  22
TORSDOF 6
ENDMDL
MODEL 7
REMARK VINA RESULT:      -5.8      6.303      9.551
REMARK  6 active torsions:
REMARK  status: ('A' for Active; 'I' for Inactive)
REMARK    1  A    between atoms: C_2  and  C_7 
REMARK    2  A    between atoms: C_2  and  O_3 
REMARK    3  A    between atoms: O_3  and  C_4 
REMARK    4  A    between atoms: C_7  and  C_8 
REMARK    5  A    between atoms: C_7  and  C_16 
REMARK    6  A    between atoms: C_7  and  O_15 
ROOT
HETATM    1  C   LIG     1      15.868  32.871  15.711  1.00  0.00     0.201 C 
ENDROOT
BRANCH   1   2
HETATM    2  C   LIG     1      17.320  32.657  15.338  1.00  0.00     0.303 C 
HETATM    3  O   LIG     1      17.929  31.630  15.743  1.00  0.00    -0.261 OA
BRANCH   2   4
HETATM    4  O   LIG     1      17.985  33.636  14.583  1.00  0.00    -0.314 OA
BRANCH   4   5
HETATM    5  C   LIG     1      18.350  33.522  13.203  1.00  0.00     0.123 C 
HETATM    6  C   LIG     1      19.865  33.661  13.012  1.00  0.00     0.040 C 
HETATM    7  C   LIG     1      17.567  34.508  12.331  1.00  0.00     0.040 C 
ENDBRANCH   4   5
ENDBRANCH   2   4
ENDBRANCH   1   2
BRANCH   1   8
HETATM    8  C   LIG     1      15.717  33.155  17.216  1.00  0.00    -0.009 A 
HETATM    9  C   LIG     1      15.602  34.477  17.701  1.00  0.00     0.013 A 
HETATM   10  C   LIG     1      15.403  34.726  19.062  1.00  0.00     0.024 A 
HETATM   11  C   LIG     1      15.276  33.663  19.959  1.00  0.00     0.034 A 
HETATM   12  C   LIG     1      15.331  32.349  19.491  1.00  0.00     0.024 A 
HETATM   13 CL   LIG     1      15.021  33.979  21.665  1.00  0.00    -0.084 Cl
HETATM   14  C   LIG     1      15.532  32.095  18.132  1.00  0.00     0.013 A 
ENDBRANCH   1   8
BRANCH   1  15
HETATM   15  C   LIG     1      15.126  31.602  15.275  1.00  0.00    -0.009 A 
HETATM   16  C   LIG     1      13.868  31.262  15.816  1.00  0.00     0.013 A 
HETATM   17  C   LIG     1      13.188  30.122  15.378  1.00  0.00     0.024 A 
HETATM   18  C   LIG     1      13.741  29.312  14.383  1.00  0.00     0.034 A 
HETATM   19  C   LIG     1      14.973  29.647  13.819  1.00  0.00     0.024 A 
HETATM   20 CL   LIG     1      12.882  27.884  13.835  1.00  0.00    -0.084 Cl
HETATM   21  C   LIG     1      15.658  30.785  14.253  1.00  0.00     0.013 A 
ENDBRANCH   1  15
BRANCH   1  22
HETATM   22  O   LIG     1      15.395  33.998  15.009  1.00  0.00    -0.371 OA
HETATM   23  H   LIG     1      16.109  34.690  15.023  1.00  0.00     0.212 HD
ENDBRANCH   1  22
TORSDOF 6
ENDMDL
MODEL 8
REMARK VINA RESULT:      -5.8     15.255     16.908
REMARK  6 active torsions:
REMARK  status: ('A' for Active; 'I' for Inactive)
REMARK    1  A    between atoms: C_2  and  C_7 
REMARK    2  A    between atoms: C_2  and  O_3 
REMARK    3  A    between atoms: O_3  and  C_4 
REMARK    4  A    between atoms: C_7  and  C_8 
REMARK    5  A    between atoms: C_7  and  C_16 
REMARK    6  A    between atoms: C_7  and  O_15 
ROOT
HETATM    1  C   LIG     1      25.420  22.266  20.678  1.00  0.00     0.201 C 
ENDROOT
BRANCH   1   2
HETATM    2  C   LIG     1      24.374  22.550  21.735  1.00  0.00     0.303 C 
HETATM    3  O   LIG     1      23.622  23.557  21.622  1.00  0.00    -0.261 OA
BRANCH   2   4
HETATM    4  O   LIG     1      24.287  21.711  22.857  1.00  0.00    -0.314 OA
BRANCH   4   5
HETATM    5  C   LIG     1      23.147  20.929  23.229  1.00  0.00     0.123 C 
HETATM    6  C   LIG     1      23.184  20.558  24.716  1.00  0.00     0.040 C 
HETATM    7  C   LIG     1      22.995  19.697  22.332  1.00  0.00     0.040 C 
ENDBRANCH   4   5
ENDBRANCH   2   4
ENDBRANCH   1   2
BRANCH   1   8
HETATM    8  C   LIG     1      26.052  23.569  20.156  1.00  0.00    -0.009 A 
HETATM    9  C   LIG     1      26.968  24.302  20.944  1.00  0.00     0.013 A 
HETATM   10  C   LIG     1      27.586  25.450  20.442  1.00  0.00     0.024 A 
HETATM   11  C   LIG     1      27.332  25.869  19.134  1.00  0.00     0.034 A 
HETATM   12  C   LIG     1      26.473  25.127  18.322  1.00  0.00     0.024 A 
HETATM   13 CL   LIG     1      28.113  27.307  18.505  1.00  0.00    -0.084 Cl
HETATM   14  C   LIG     1      25.852  23.979  18.820  1.00  0.00     0.013 A 
ENDBRANCH   1   8
BRANCH   1  15
HETATM   15  C   LIG     1      24.705  21.477  19.575  1.00  0.00    -0.009 A 
HETATM   16  C   LIG     1      25.326  20.384  18.932  1.00  0.00     0.013 A 
HETATM   17  C   LIG     1      24.645  19.651  17.956  1.00  0.00     0.024 A 
HETATM   18  C   LIG     1      23.331  19.982  17.616  1.00  0.00     0.034 A 
HETATM   19  C   LIG     1      22.693  21.044  18.260  1.00  0.00     0.024 A 
HETATM   20 CL   LIG     1      22.480  19.057  16.392  1.00  0.00    -0.084 Cl
HETATM   21  C   LIG     1      23.368  21.782  19.236  1.00  0.00     0.013 A 
ENDBRANCH   1  15
BRANCH   1  22
HETATM   22  O   LIG     1      26.443  21.496  21.268  1.00  0.00    -0.371 OA
HETATM   23  H   LIG     1      26.815  20.895  20.569  1.00  0.00     0.212 HD
ENDBRANCH   1  22
TORSDOF 6
ENDMDL
MODEL 9
REMARK VINA RESULT:      -5.7     15.646     17.275
REMARK  6 active torsions:
REMARK  status: ('A' for Active; 'I' for Inactive)
REMARK    1  A    between atoms: C_2  and  C_7 
REMARK    2  A    between atoms: C_2  and  O_3 
REMARK    3  A    between atoms: O_3  and  C_4 
REMARK    4  A    between atoms: C_7  and  C_8 
REMARK    5  A    between atoms: C_7  and  C_16 
REMARK    6  A    between atoms: C_7  and  O_15 
ROOT
HETATM    1  C   LIG     1      26.272  22.091  19.996  1.00  0.00     0.201 C 
ENDROOT
BRANCH   1   2
HETATM    2  C   LIG     1      25.729  22.980  21.094  1.00  0.00     0.303 C 
HETATM    3  O   LIG     1      26.464  23.297  22.068  1.00  0.00    -0.261 OA
BRANCH   2   4
HETATM    4  O   LIG     1      24.391  23.402  21.036  1.00  0.00    -0.314 OA
BRANCH   4   5
HETATM    5  C   LIG     1      23.369  23.072  21.983  1.00  0.00     0.123 C 
HETATM    6  C   LIG     1      23.772  21.872  22.847  1.00  0.00     0.040 C 
HETATM    7  C   LIG     1      22.016  22.860  21.298  1.00  0.00     0.040 C 
ENDBRANCH   4   5
ENDBRANCH   2   4
ENDBRANCH   1   2
BRANCH   1   8
HETATM    8  C   LIG     1      26.938  22.921  18.885  1.00  0.00    -0.009 A 
HETATM    9  C   LIG     1      26.844  24.332  18.873  1.00  0.00     0.013 A 
HETATM   10  C   LIG     1      27.503  25.085  17.897  1.00  0.00     0.024 A 
HETATM   11  C   LIG     1      28.297  24.451  16.939  1.00  0.00     0.034 A 
HETATM   12  C   LIG     1      28.447  23.063  16.968  1.00  0.00     0.024 A 
HETATM   13 CL   LIG     1      29.126  25.399  15.719  1.00  0.00    -0.084 Cl
HETATM   14  C   LIG     1      27.789  22.306  17.941  1.00  0.00     0.013 A 
ENDBRANCH   1   8
BRANCH   1  15
HETATM   15  C   LIG     1      25.080  21.273  19.483  1.00  0.00    -0.009 A 
HETATM   16  C   LIG     1      24.247  21.754  18.451  1.00  0.00     0.013 A 
HETATM   17  C   LIG     1      23.189  20.978  17.969  1.00  0.00     0.024 A 
HETATM   18  C   LIG     1      22.953  19.706  18.494  1.00  0.00     0.034 A 
HETATM   19  C   LIG     1      23.783  19.204  19.499  1.00  0.00     0.024 A 
HETATM   20 CL   LIG     1      21.626  18.735  17.884  1.00  0.00    -0.084 Cl
HETATM   21  C   LIG     1      24.842  19.974  19.985  1.00  0.00     0.013 A 
ENDBRANCH   1  15
BRANCH   1  22
HETATM   22  O   LIG     1      27.256  21.250  20.556  1.00  0.00    -0.371 OA
HETATM   23  H   LIG     1      27.698  20.760  19.814  1.00  0.00     0.212 HD
ENDBRANCH   1  22
TORSDOF 6
ENDMDL
MODEL 10
REMARK VINA RESULT:      -5.6     15.195     17.257
REMARK  6 active torsions:
REMARK  status: ('A' for Active; 'I' for Inactive)
REMARK    1  A    between atoms: C_2  and  C_7 
REMARK    2  A    between atoms: C_2  and  O_3 
REMARK    3  A    between atoms: O_3  and  C_4 
REMARK    4  A    between atoms: C_7  and  C_8 
REMARK    5  A    between atoms: C_7  and  C_16 
REMARK    6  A    between atoms: C_7  and  O_15 
ROOT
HETATM    1  C   LIG     1      24.749  22.868  20.635  1.00  0.00     0.201 C 
ENDROOT
BRANCH   1   2
HETATM    2  C   LIG     1      25.492  22.402  21.869  1.00  0.00     0.303 C 
HETATM    3  O   LIG     1      26.473  21.617  21.754  1.00  0.00    -0.261 OA
BRANCH   2   4
HETATM    4  O   LIG     1      25.045  22.814  23.135  1.00  0.00    -0.314 OA
BRANCH   4   5
HETATM    5  C   LIG     1      24.874  21.967  24.276  1.00  0.00     0.123 C 
HETATM    6  C   LIG     1      23.649  21.060  24.122  1.00  0.00     0.040 C 
HETATM    7  C   LIG     1      24.831  22.778  25.575  1.00  0.00     0.040 C 
ENDBRANCH   4   5
ENDBRANCH   2   4
ENDBRANCH   1   2
BRANCH   1   8
HETATM    8  C   LIG     1      24.042  21.695  19.935  1.00  0.00    -0.009 A 
HETATM    9  C   LIG     1      23.843  20.462  20.597  1.00  0.00     0.013 A 
HETATM   10  C   LIG     1      23.146  19.421  19.978  1.00  0.00     0.024 A 
HETATM   11  C   LIG     1      22.602  19.600  18.705  1.00  0.00     0.034 A 
HETATM   12  C   LIG     1      22.741  20.829  18.057  1.00  0.00     0.024 A 
HETATM   13 CL   LIG     1      21.724  18.293  17.933  1.00  0.00    -0.084 Cl
HETATM   14  C   LIG     1      23.438  21.872  18.671  1.00  0.00     0.013 A 
ENDBRANCH   1   8
BRANCH   1  15
HETATM   15  C   LIG     1      25.795  23.544  19.740  1.00  0.00    -0.009 A 
HETATM   16  C   LIG     1      26.518  22.813  18.773  1.00  0.00     0.013 A 
HETATM   17  C   LIG     1      27.438  23.453  17.938  1.00  0.00     0.024 A 
HETATM   18  C   LIG     1      27.643  24.830  18.041  1.00  0.00     0.034 A 
HETATM   19  C   LIG     1      26.918  25.573  18.975  1.00  0.00     0.024 A 
HETATM   20 CL   LIG     1      28.798  25.629  16.989  1.00  0.00    -0.084 Cl
HETATM   21  C   LIG     1      25.996  24.940  19.813  1.00  0.00     0.013 A 
ENDBRANCH   1  15
BRANCH   1  22
HETATM   22  O   LIG     1      23.760  23.789  21.039  1.00  0.00    -0.371 OA
HETATM   23  H   LIG     1      23.189  23.990  20.251  1.00  0.00     0.212 HD
ENDBRANCH   1  22
TORSDOF 6
ENDMDL
