REMARK  6 active torsions:
REMARK  status: ('A' for Active; 'I' for Inactive)
REMARK    1  A    between atoms: C_2  and  C_7 
REMARK    2  A    between atoms: C_2  and  O_3 
REMARK    3  A    between atoms: O_3  and  C_4 
REMARK    4  A    between atoms: C_7  and  C_8 
REMARK    5  A    between atoms: C_7  and  C_16 
REMARK    6  A    between atoms: C_7  and  O_15 
ROOT
HETATM    1  C   LIG     1      -0.427  -0.175   1.089  1.00  0.00     0.201 C 
ENDROOT
BRANCH   1   2
HETATM    2  C   LIG     1       1.058  -0.214   0.799  1.00  0.00     0.303 C 
HETATM    3  O   LIG     1       1.886  -0.180   1.750  1.00  0.00    -0.261 OA
BRANCH   2   4
HETATM    4  O   LIG     1       1.496  -0.238  -0.535  1.00  0.00    -0.314 OA
BRANCH   4   5
HETATM    5  C   LIG     1       2.861  -0.249  -0.966  1.00  0.00     0.123 C 
HETATM    6  C   LIG     1       3.588  -1.512  -0.491  1.00  0.00     0.040 C 
HETATM    7  C   LIG     1       3.593   1.029  -0.545  1.00  0.00     0.040 C 
ENDBRANCH   4   5
ENDBRANCH   2   4
ENDBRANCH   1   2
BRANCH   1   8
HETATM    8  C   LIG     1      -1.181  -1.242   0.276  1.00  0.00    -0.009 A 
HETATM    9  C   LIG     1      -0.579  -2.482  -0.036  1.00  0.00     0.013 A 
HETATM   10  C   LIG     1      -1.290  -3.471  -0.721  1.00  0.00     0.024 A 
HETATM   11  C   LIG     1      -2.624  -3.259  -1.075  1.00  0.00     0.034 A 
HETATM   12  C   LIG     1      -3.253  -2.062  -0.727  1.00  0.00     0.024 A 
HETATM   13 CL   LIG     1      -3.515  -4.504  -1.930  1.00  0.00    -0.084 Cl
HETATM   14  C   LIG     1      -2.546  -1.070  -0.043  1.00  0.00     0.013 A 
ENDBRANCH   1   8
BRANCH   1  15
HETATM   15  C   LIG     1      -0.887   1.250   0.758  1.00  0.00    -0.009 A 
HETATM   16  C   LIG     1      -1.141   2.196   1.774  1.00  0.00     0.013 A 
HETATM   17  C   LIG     1      -1.521   3.502   1.453  1.00  0.00     0.024 A 
HETATM   18  C   LIG     1      -1.639   3.892   0.117  1.00  0.00     0.034 A 
HETATM   19  C   LIG     1      -1.367   2.976  -0.901  1.00  0.00     0.024 A 
HETATM   20 CL   LIG     1      -2.114   5.533  -0.281  1.00  0.00    -0.084 Cl
HETATM   21  C   LIG     1      -0.987   1.669  -0.587  1.00  0.00     0.013 A 
ENDBRANCH   1  15
BRANCH   1  22
HETATM   22  O   LIG     1      -0.616  -0.461   2.457  1.00  0.00    -0.371 OA
HETATM   23  H   LIG     1      -1.593  -0.454   2.639  1.00  0.00     0.212 HD
ENDBRANCH   1  22
TORSDOF 6
