MODEL 1
REMARK VINA RESULT:      -4.4      0.000      0.000
REMARK  3 active torsions:
REMARK  status: ('A' for Active; 'I' for Inactive)
REMARK    1  A    between atoms: C_2  and  C_3 
REMARK    2  A    between atoms: C_3  and  C_5 
REMARK    3  A    between atoms: C_3  and  O_4 
ROOT
HETATM    1  C   LIG     1      17.252  37.419  25.427  1.00  0.00     0.117 C 
ENDROOT
BRANCH   1   2
HETATM    2  C   LIG     1      17.178  37.223  23.896  1.00  0.00     0.027 C 
HETATM    3  C   LIG     1      17.448  38.508  23.114  1.00  0.00     0.007 C 
ENDBRANCH   1   2
BRANCH   1   4
HETATM    4  C   LIG     1      18.444  36.700  26.095  1.00  0.00     0.027 C 
HETATM    5  C   LIG     1      18.228  35.198  26.288  1.00  0.00     0.007 C 
ENDBRANCH   1   4
BRANCH   1   6
HETATM    6  O   LIG     1      17.319  38.791  25.723  1.00  0.00    -0.396 OA
HETATM    7  H   LIG     1      17.588  39.255  24.887  1.00  0.00     0.210 HD
ENDBRANCH   1   6
TORSDOF 3
ENDMDL
MODEL 2
REMARK VINA RESULT:      -4.4      0.581      3.019
REMARK  3 active torsions:
REMARK  status: ('A' for Active; 'I' for Inactive)
REMARK    1  A    between atoms: C_2  and  C_3 
REMARK    2  A    between atoms: C_3  and  C_5 
REMARK    3  A    between atoms: C_3  and  O_4 
ROOT
HETATM    1  C   LIG     1      17.953  37.512  25.281  1.00  0.00     0.117 C 
ENDROOT
BRANCH   1   2
HETATM    2  C   LIG     1      18.338  36.579  26.451  1.00  0.00     0.027 C 
HETATM    3  C   LIG     1      18.026  35.110  26.173  1.00  0.00     0.007 C 
ENDBRANCH   1   2
BRANCH   1   4
HETATM    4  C   LIG     1      17.083  36.837  24.199  1.00  0.00     0.027 C 
HETATM    5  C   LIG     1      16.918  37.675  22.930  1.00  0.00     0.007 C 
ENDBRANCH   1   4
BRANCH   1   6
HETATM    6  O   LIG     1      17.273  38.636  25.781  1.00  0.00    -0.396 OA
HETATM    7  H   LIG     1      17.276  38.560  26.770  1.00  0.00     0.210 HD
ENDBRANCH   1   6
TORSDOF 3
ENDMDL
MODEL 3
REMARK VINA RESULT:      -4.0      2.552      2.985
REMARK  3 active torsions:
REMARK  status: ('A' for Active; 'I' for Inactive)
REMARK    1  A    between atoms: C_2  and  C_3 
REMARK    2  A    between atoms: C_3  and  C_5 
REMARK    3  A    between atoms: C_3  and  O_4 
ROOT
HETATM    1  C   LIG     1      16.235  37.713  22.777  1.00  0.00     0.117 C 
ENDROOT
BRANCH   1   2
HETATM    2  C   LIG     1      17.206  38.912  22.681  1.00  0.00     0.027 C 
HETATM    3  C   LIG     1      17.982  38.951  21.366  1.00  0.00     0.007 C 
ENDBRANCH   1   2
BRANCH   1   4
HETATM    4  C   LIG     1      16.878  36.425  23.333  1.00  0.00     0.027 C 
HETATM    5  C   LIG     1      16.978  35.294  22.308  1.00  0.00     0.007 C 
ENDBRANCH   1   4
BRANCH   1   6
HETATM    6  O   LIG     1      15.135  38.062  23.580  1.00  0.00    -0.396 OA
HETATM    7  H   LIG     1      14.578  38.690  23.051  1.00  0.00     0.210 HD
ENDBRANCH   1   6
TORSDOF 3
ENDMDL
MODEL 4
REMARK VINA RESULT:      -3.9      5.714      6.610
REMARK  3 active torsions:
REMARK  status: ('A' for Active; 'I' for Inactive)
REMARK    1  A    between atoms: C_2  and  C_3 
REMARK    2  A    between atoms: C_3  and  C_5 
REMARK    3  A    between atoms: C_3  and  O_4 
ROOT
HETATM    1  C   LIG     1      15.342  33.838  20.906  1.00  0.00     0.117 C 
ENDROOT
BRANCH   1   2
HETATM    2  C   LIG     1      15.332  32.875  19.697  1.00  0.00     0.027 C 
HETATM    3  C   LIG     1      14.851  31.470  20.054  1.00  0.00     0.007 C 
ENDBRANCH   1   2
BRANCH   1   4
HETATM    4  C   LIG     1      15.763  35.281  20.556  1.00  0.00     0.027 C 
HETATM    5  C   LIG     1      17.053  35.730  21.246  1.00  0.00     0.007 C 
ENDBRANCH   1   4
BRANCH   1   6
HETATM    6  O   LIG     1      14.067  33.862  21.497  1.00  0.00    -0.396 OA
HETATM    7  H   LIG     1      13.626  33.002  21.270  1.00  0.00     0.210 HD
ENDBRANCH   1   6
TORSDOF 3
ENDMDL
MODEL 5
REMARK VINA RESULT:      -3.8      1.643      3.521
REMARK  3 active torsions:
REMARK  status: ('A' for Active; 'I' for Inactive)
REMARK    1  A    between atoms: C_2  and  C_3 
REMARK    2  A    between atoms: C_3  and  C_5 
REMARK    3  A    between atoms: C_3  and  O_4 
ROOT
HETATM    1  C   LIG     1      16.818  37.426  24.086  1.00  0.00     0.117 C 
ENDROOT
BRANCH   1   2
HETATM    2  C   LIG     1      17.975  37.882  25.003  1.00  0.00     0.027 C 
HETATM    3  C   LIG     1      18.401  36.812  26.008  1.00  0.00     0.007 C 
ENDBRANCH   1   2
BRANCH   1   4
HETATM    4  C   LIG     1      16.609  38.320  22.846  1.00  0.00     0.027 C 
HETATM    5  C   LIG     1      17.906  38.905  22.283  1.00  0.00     0.007 C 
ENDBRANCH   1   4
BRANCH   1   6
HETATM    6  O   LIG     1      17.044  36.103  23.667  1.00  0.00    -0.396 OA
HETATM    7  H   LIG     1      17.788  35.747  24.219  1.00  0.00     0.210 HD
ENDBRANCH   1   6
TORSDOF 3
ENDMDL
MODEL 6
REMARK VINA RESULT:      -3.8      2.528      3.644
REMARK  3 active torsions:
REMARK  status: ('A' for Active; 'I' for Inactive)
REMARK    1  A    between atoms: C_2  and  C_3 
REMARK    2  A    between atoms: C_3  and  C_5 
REMARK    3  A    between atoms: C_3  and  O_4 
ROOT
HETATM    1  C   LIG     1      16.985  37.731  23.328  1.00  0.00     0.117 C 
ENDROOT
BRANCH   1   2
HETATM    2  C   LIG     1      16.861  36.338  22.672  1.00  0.00     0.027 C 
HETATM    3  C   LIG     1      15.665  36.223  21.728  1.00  0.00     0.007 C 
ENDBRANCH   1   2
BRANCH   1   4
HETATM    4  C   LIG     1      17.106  38.892  22.318  1.00  0.00     0.027 C 
HETATM    5  C   LIG     1      18.415  38.887  21.527  1.00  0.00     0.007 C 
ENDBRANCH   1   4
BRANCH   1   6
HETATM    6  O   LIG     1      15.876  37.959  24.161  1.00  0.00    -0.396 OA
HETATM    7  H   LIG     1      15.076  37.997  23.574  1.00  0.00     0.210 HD
ENDBRANCH   1   6
TORSDOF 3
ENDMDL
MODEL 7
REMARK VINA RESULT:      -3.7      9.946     10.813
REMARK  3 active torsions:
REMARK  status: ('A' for Active; 'I' for Inactive)
REMARK    1  A    between atoms: C_2  and  C_3 
REMARK    2  A    between atoms: C_3  and  C_5 
REMARK    3  A    between atoms: C_3  and  O_4 
ROOT
HETATM    1  C   LIG     1      14.239  31.739  17.298  1.00  0.00     0.117 C 
ENDROOT
BRANCH   1   2
HETATM    2  C   LIG     1      12.951  31.342  16.542  1.00  0.00     0.027 C 
HETATM    3  C   LIG     1      13.202  30.343  15.414  1.00  0.00     0.007 C 
ENDBRANCH   1   2
BRANCH   1   4
HETATM    4  C   LIG     1      14.895  33.038  16.785  1.00  0.00     0.027 C 
HETATM    5  C   LIG     1      15.985  32.806  15.736  1.00  0.00     0.007 C 
ENDBRANCH   1   4
BRANCH   1   6
HETATM    6  O   LIG     1      13.956  31.876  18.668  1.00  0.00    -0.396 OA
HETATM    7  H   LIG     1      14.761  32.274  19.092  1.00  0.00     0.210 HD
ENDBRANCH   1   6
TORSDOF 3
ENDMDL
MODEL 8
REMARK VINA RESULT:      -3.7     10.088     10.739
REMARK  3 active torsions:
REMARK  status: ('A' for Active; 'I' for Inactive)
REMARK    1  A    between atoms: C_2  and  C_3 
REMARK    2  A    between atoms: C_3  and  C_5 
REMARK    3  A    between atoms: C_3  and  O_4 
ROOT
HETATM    1  C   LIG     1      13.846  31.297  17.193  1.00  0.00     0.117 C 
ENDROOT
BRANCH   1   2
HETATM    2  C   LIG     1      14.374  31.195  15.745  1.00  0.00     0.027 C 
HETATM    3  C   LIG     1      13.666  30.120  14.922  1.00  0.00     0.007 C 
ENDBRANCH   1   2
BRANCH   1   4
HETATM    4  C   LIG     1      14.704  32.190  18.114  1.00  0.00     0.027 C 
HETATM    5  C   LIG     1      14.846  31.649  19.538  1.00  0.00     0.007 C 
ENDBRANCH   1   4
BRANCH   1   6
HETATM    6  O   LIG     1      12.527  31.785  17.178  1.00  0.00    -0.396 OA
HETATM    7  H   LIG     1      12.568  32.719  16.845  1.00  0.00     0.210 HD
ENDBRANCH   1   6
TORSDOF 3
ENDMDL
MODEL 9
REMARK VINA RESULT:      -3.6      8.817      9.754
REMARK  3 active torsions:
REMARK  status: ('A' for Active; 'I' for Inactive)
REMARK    1  A    between atoms: C_2  and  C_3 
REMARK    2  A    between atoms: C_3  and  C_5 
REMARK    3  A    between atoms: C_3  and  O_4 
ROOT
HETATM    1  C   LIG     1      14.931  32.633  17.689  1.00  0.00     0.117 C 
ENDROOT
BRANCH   1   2
HETATM    2  C   LIG     1      15.310  32.605  19.187  1.00  0.00     0.027 C 
HETATM    3  C   LIG     1      14.829  31.344  19.903  1.00  0.00     0.007 C 
ENDBRANCH   1   2
BRANCH   1   4
HETATM    4  C   LIG     1      13.746  31.715  17.323  1.00  0.00     0.027 C 
HETATM    5  C   LIG     1      13.949  30.934  16.023  1.00  0.00     0.007 C 
ENDBRANCH   1   4
BRANCH   1   6
HETATM    6  O   LIG     1      14.628  33.951  17.305  1.00  0.00    -0.396 OA
HETATM    7  H   LIG     1      14.041  33.892  16.507  1.00  0.00     0.210 HD
ENDBRANCH   1   6
TORSDOF 3
ENDMDL
MODEL 10
REMARK VINA RESULT:      -3.6     12.248     13.072
REMARK  3 active torsions:
REMARK  status: ('A' for Active; 'I' for Inactive)
REMARK    1  A    between atoms: C_2  and  C_3 
REMARK    2  A    between atoms: C_3  and  C_5 
REMARK    3  A    between atoms: C_3  and  O_4 
ROOT
HETATM    1  C   LIG     1      13.347  30.185  14.818  1.00  0.00     0.117 C 
ENDROOT
BRANCH   1   2
HETATM    2  C   LIG     1      13.015  30.588  16.272  1.00  0.00     0.027 C 
HETATM    3  C   LIG     1      13.946  31.668  16.823  1.00  0.00     0.007 C 
ENDBRANCH   1   2
BRANCH   1   4
HETATM    4  C   LIG     1      14.847  29.924  14.565  1.00  0.00     0.027 C 
HETATM    5  C   LIG     1      15.449  30.804  13.468  1.00  0.00     0.007 C 
ENDBRANCH   1   4
BRANCH   1   6
HETATM    6  O   LIG     1      12.615  29.036  14.471  1.00  0.00    -0.396 OA
HETATM    7  H   LIG     1      12.723  28.910  13.492  1.00  0.00     0.210 HD
ENDBRANCH   1   6
TORSDOF 3
ENDMDL
MODEL 11
REMARK VINA RESULT:      -3.5     12.208     12.841
REMARK  3 active torsions:
REMARK  status: ('A' for Active; 'I' for Inactive)
REMARK    1  A    between atoms: C_2  and  C_3 
REMARK    2  A    between atoms: C_3  and  C_5 
REMARK    3  A    between atoms: C_3  and  O_4 
ROOT
HETATM    1  C   LIG     1      14.810  30.217  14.686  1.00  0.00     0.117 C 
ENDROOT
BRANCH   1   2
HETATM    2  C   LIG     1      15.571  31.552  14.853  1.00  0.00     0.027 C 
HETATM    3  C   LIG     1      16.099  32.110  13.532  1.00  0.00     0.007 C 
ENDBRANCH   1   2
BRANCH   1   4
HETATM    4  C   LIG     1      13.354  30.256  15.198  1.00  0.00     0.027 C 
HETATM    5  C   LIG     1      13.168  31.095  16.464  1.00  0.00     0.007 C 
ENDBRANCH   1   4
BRANCH   1   6
HETATM    6  O   LIG     1      14.812  29.842  13.332  1.00  0.00    -0.396 OA
HETATM    7  H   LIG     1      14.069  29.195  13.210  1.00  0.00     0.210 HD
ENDBRANCH   1   6
TORSDOF 3
ENDMDL
MODEL 12
REMARK VINA RESULT:      -3.5      7.395      8.173
REMARK  3 active torsions:
REMARK  status: ('A' for Active; 'I' for Inactive)
REMARK    1  A    between atoms: C_2  and  C_3 
REMARK    2  A    between atoms: C_3  and  C_5 
REMARK    3  A    between atoms: C_3  and  O_4 
ROOT
HETATM    1  C   LIG     1      15.339  32.392  19.594  1.00  0.00     0.117 C 
ENDROOT
BRANCH   1   2
HETATM    2  C   LIG     1      15.110  32.702  18.098  1.00  0.00     0.027 C 
HETATM    3  C   LIG     1      14.015  31.843  17.468  1.00  0.00     0.007 C 
ENDBRANCH   1   2
BRANCH   1   4
HETATM    4  C   LIG     1      15.571  33.643  20.467  1.00  0.00     0.027 C 
HETATM    5  C   LIG     1      15.682  34.942  19.666  1.00  0.00     0.007 C 
ENDBRANCH   1   4
BRANCH   1   6
HETATM    6  O   LIG     1      14.239  31.676  20.099  1.00  0.00    -0.396 OA
HETATM    7  H   LIG     1      13.553  32.345  20.360  1.00  0.00     0.210 HD
ENDBRANCH   1   6
TORSDOF 3
ENDMDL
MODEL 13
REMARK VINA RESULT:      -3.4      8.823      9.534
REMARK  3 active torsions:
REMARK  status: ('A' for Active; 'I' for Inactive)
REMARK    1  A    between atoms: C_2  and  C_3 
REMARK    2  A    between atoms: C_3  and  C_5 
REMARK    3  A    between atoms: C_3  and  O_4 
ROOT
HETATM    1  C   LIG     1      14.756  33.167  17.133  1.00  0.00     0.117 C 
ENDROOT
BRANCH   1   2
HETATM    2  C   LIG     1      15.709  32.822  15.967  1.00  0.00     0.027 C 
HETATM    3  C   LIG     1      15.290  31.569  15.200  1.00  0.00     0.007 C 
ENDBRANCH   1   2
BRANCH   1   4
HETATM    4  C   LIG     1      14.529  32.005  18.124  1.00  0.00     0.027 C 
HETATM    5  C   LIG     1      15.300  32.156  19.437  1.00  0.00     0.007 C 
ENDBRANCH   1   4
BRANCH   1   6
HETATM    6  O   LIG     1      15.254  34.279  17.835  1.00  0.00    -0.396 OA
HETATM    7  H   LIG     1      14.874  34.237  18.751  1.00  0.00     0.210 HD
ENDBRANCH   1   6
TORSDOF 3
ENDMDL
MODEL 14
REMARK VINA RESULT:      -3.4      4.321      4.889
REMARK  3 active torsions:
REMARK  status: ('A' for Active; 'I' for Inactive)
REMARK    1  A    between atoms: C_2  and  C_3 
REMARK    2  A    between atoms: C_3  and  C_5 
REMARK    3  A    between atoms: C_3  and  O_4 
ROOT
HETATM    1  C   LIG     1      17.588  36.275  21.190  1.00  0.00     0.117 C 
ENDROOT
BRANCH   1   2
HETATM    2  C   LIG     1      17.495  37.732  21.697  1.00  0.00     0.027 C 
HETATM    3  C   LIG     1      18.503  38.665  21.027  1.00  0.00     0.007 C 
ENDBRANCH   1   2
BRANCH   1   4
HETATM    4  C   LIG     1      16.313  35.441  21.436  1.00  0.00     0.027 C 
HETATM    5  C   LIG     1      15.718  34.835  20.163  1.00  0.00     0.007 C 
ENDBRANCH   1   4
BRANCH   1   6
HETATM    6  O   LIG     1      17.880  36.274  19.815  1.00  0.00    -0.396 OA
HETATM    7  H   LIG     1      18.664  35.679  19.686  1.00  0.00     0.210 HD
ENDBRANCH   1   6
TORSDOF 3
ENDMDL
MODEL 15
REMARK VINA RESULT:      -3.3     10.005     10.699
REMARK  3 active torsions:
REMARK  status: ('A' for Active; 'I' for Inactive)
REMARK    1  A    between atoms: C_2  and  C_3 
REMARK    2  A    between atoms: C_3  and  C_5 
REMARK    3  A    between atoms: C_3  and  O_4 
ROOT
HETATM    1  C   LIG     1      14.814  32.660  16.654  1.00  0.00     0.117 C 
ENDROOT
BRANCH   1   2
HETATM    2  C   LIG     1      15.552  32.045  15.443  1.00  0.00     0.027 C 
HETATM    3  C   LIG     1      16.826  32.802  15.071  1.00  0.00     0.007 C 
ENDBRANCH   1   2
BRANCH   1   4
HETATM    4  C   LIG     1      13.486  31.955  17.004  1.00  0.00     0.027 C 
HETATM    5  C   LIG     1      13.158  30.769  16.094  1.00  0.00     0.007 C 
ENDBRANCH   1   4
BRANCH   1   6
HETATM    6  O   LIG     1      15.656  32.638  17.778  1.00  0.00    -0.396 OA
HETATM    7  H   LIG     1      15.700  33.568  18.125  1.00  0.00     0.210 HD
ENDBRANCH   1   6
TORSDOF 3
ENDMDL
MODEL 16
REMARK VINA RESULT:      -3.3      3.639      4.675
REMARK  3 active torsions:
REMARK  status: ('A' for Active; 'I' for Inactive)
REMARK    1  A    between atoms: C_2  and  C_3 
REMARK    2  A    between atoms: C_3  and  C_5 
REMARK    3  A    between atoms: C_3  and  O_4 
ROOT
HETATM    1  C   LIG     1      17.751  37.305  21.497  1.00  0.00     0.117 C 
ENDROOT
BRANCH   1   2
HETATM    2  C   LIG     1      16.396  36.786  22.027  1.00  0.00     0.027 C 
HETATM    3  C   LIG     1      15.655  37.810  22.885  1.00  0.00     0.007 C 
ENDBRANCH   1   2
BRANCH   1   4
HETATM    4  C   LIG     1      18.201  36.651  20.173  1.00  0.00     0.027 C 
HETATM    5  C   LIG     1      19.318  37.413  19.458  1.00  0.00     0.007 C 
ENDBRANCH   1   4
BRANCH   1   6
HETATM    6  O   LIG     1      17.684  38.698  21.321  1.00  0.00    -0.396 OA
HETATM    7  H   LIG     1      18.462  39.088  21.799  1.00  0.00     0.210 HD
ENDBRANCH   1   6
TORSDOF 3
ENDMDL
MODEL 17
REMARK VINA RESULT:      -3.3     10.675     11.535
REMARK  3 active torsions:
REMARK  status: ('A' for Active; 'I' for Inactive)
REMARK    1  A    between atoms: C_2  and  C_3 
REMARK    2  A    between atoms: C_3  and  C_5 
REMARK    3  A    between atoms: C_3  and  O_4 
ROOT
HETATM    1  C   LIG     1      15.901  32.156  15.044  1.00  0.00     0.117 C 
ENDROOT
BRANCH   1   2
HETATM    2  C   LIG     1      15.378  30.919  14.280  1.00  0.00     0.027 C 
HETATM    3  C   LIG     1      14.133  30.303  14.918  1.00  0.00     0.007 C 
ENDBRANCH   1   2
BRANCH   1   4
HETATM    4  C   LIG     1      15.211  32.393  16.404  1.00  0.00     0.027 C 
HETATM    5  C   LIG     1      15.100  33.870  16.789  1.00  0.00     0.007 C 
ENDBRANCH   1   4
BRANCH   1   6
HETATM    6  O   LIG     1      17.286  32.031  15.247  1.00  0.00    -0.396 OA
HETATM    7  H   LIG     1      17.674  32.941  15.166  1.00  0.00     0.210 HD
ENDBRANCH   1   6
TORSDOF 3
ENDMDL
MODEL 18
REMARK VINA RESULT:      -3.3     11.737     12.604
REMARK  3 active torsions:
REMARK  status: ('A' for Active; 'I' for Inactive)
REMARK    1  A    between atoms: C_2  and  C_3 
REMARK    2  A    between atoms: C_3  and  C_5 
REMARK    3  A    between atoms: C_3  and  O_4 
ROOT
HETATM    1  C   LIG     1      15.114  30.882  14.268  1.00  0.00     0.117 C 
ENDROOT
BRANCH   1   2
HETATM    2  C   LIG     1      14.414  31.040  15.636  1.00  0.00     0.027 C 
HETATM    3  C   LIG     1      12.989  30.487  15.649  1.00  0.00     0.007 C 
ENDBRANCH   1   2
BRANCH   1   4
HETATM    4  C   LIG     1      16.043  32.058  13.898  1.00  0.00     0.027 C 
HETATM    5  C   LIG     1      16.898  32.558  15.064  1.00  0.00     0.007 C 
ENDBRANCH   1   4
BRANCH   1   6
HETATM    6  O   LIG     1      15.855  29.688  14.253  1.00  0.00    -0.396 OA
HETATM    7  H   LIG     1      16.746  29.896  14.638  1.00  0.00     0.210 HD
ENDBRANCH   1   6
TORSDOF 3
ENDMDL
MODEL 19
REMARK VINA RESULT:      -3.3     10.290     11.252
REMARK  3 active torsions:
REMARK  status: ('A' for Active; 'I' for Inactive)
REMARK    1  A    between atoms: C_2  and  C_3 
REMARK    2  A    between atoms: C_3  and  C_5 
REMARK    3  A    between atoms: C_3  and  O_4 
ROOT
HETATM    1  C   LIG     1      15.650  32.484  16.132  1.00  0.00     0.117 C 
ENDROOT
BRANCH   1   2
HETATM    2  C   LIG     1      14.297  32.467  16.878  1.00  0.00     0.027 C 
HETATM    3  C   LIG     1      13.452  31.235  16.560  1.00  0.00     0.007 C 
ENDBRANCH   1   2
BRANCH   1   4
HETATM    4  C   LIG     1      15.644  31.700  14.803  1.00  0.00     0.027 C 
HETATM    5  C   LIG     1      16.373  32.414  13.663  1.00  0.00     0.007 C 
ENDBRANCH   1   4
BRANCH   1   6
HETATM    6  O   LIG     1      16.032  33.813  15.880  1.00  0.00    -0.396 OA
HETATM    7  H   LIG     1      16.959  33.786  15.527  1.00  0.00     0.210 HD
ENDBRANCH   1   6
TORSDOF 3
ENDMDL
MODEL 20
REMARK VINA RESULT:      -3.1     11.641     12.416
REMARK  3 active torsions:
REMARK  status: ('A' for Active; 'I' for Inactive)
REMARK    1  A    between atoms: C_2  and  C_3 
REMARK    2  A    between atoms: C_3  and  C_5 
REMARK    3  A    between atoms: C_3  and  O_4 
ROOT
HETATM    1  C   LIG     1      16.009  31.535  14.402  1.00  0.00     0.117 C 
ENDROOT
BRANCH   1   2
HETATM    2  C   LIG     1      16.485  32.728  15.260  1.00  0.00     0.027 C 
HETATM    3  C   LIG     1      17.662  33.480  14.641  1.00  0.00     0.007 C 
ENDBRANCH   1   2
BRANCH   1   4
HETATM    4  C   LIG     1      14.702  30.883  14.901  1.00  0.00     0.027 C 
HETATM    5  C   LIG     1      14.365  29.564  14.203  1.00  0.00     0.007 C 
ENDBRANCH   1   4
BRANCH   1   6
HETATM    6  O   LIG     1      15.835  31.953  13.071  1.00  0.00    -0.396 OA
HETATM    7  H   LIG     1      15.697  32.936  13.092  1.00  0.00     0.210 HD
ENDBRANCH   1   6
TORSDOF 3
ENDMDL
