MODEL 1
REMARK VINA RESULT:      -6.2      0.000      0.000
REMARK  2 active torsions:
REMARK  status: ('A' for Active; 'I' for Inactive)
REMARK    1  A    between atoms: O_1  and  C_2 
REMARK    2  A    between atoms: C_2  and  C_3 
ROOT
HETATM    1  C   LIG     1      17.161  37.548  21.788  1.00  0.00    -0.035 A 
HETATM    2  C   LIG     1      17.705  36.683  20.818  1.00  0.00     0.010 A 
HETATM    3  C   LIG     1      18.740  37.116  19.985  1.00  0.00     0.007 A 
HETATM    4  C   LIG     1      19.242  38.421  20.098  1.00  0.00    -0.062 A 
HETATM    5  C   LIG     1      20.380  38.871  19.230  1.00  0.00     0.048 C 
HETATM    6  C   LIG     1      18.718  39.278  21.077  1.00  0.00     0.007 A 
HETATM    7  C   LIG     1      17.683  38.846  21.911  1.00  0.00     0.010 A 
ENDROOT
BRANCH   1   8
HETATM    8  C   LIG     1      16.044  37.126  22.714  1.00  0.00     0.202 C 
BRANCH   8   9
HETATM    9  O   LIG     1      15.200  38.194  23.055  1.00  0.00    -0.396 OA
HETATM   10  H   LIG     1      15.752  39.018  23.004  1.00  0.00     0.209 HD
ENDBRANCH   8   9
ENDBRANCH   1   8
TORSDOF 2
ENDMDL
MODEL 2
REMARK VINA RESULT:      -6.2      2.831      4.805
REMARK  2 active torsions:
REMARK  status: ('A' for Active; 'I' for Inactive)
REMARK    1  A    between atoms: O_1  and  C_2 
REMARK    2  A    between atoms: C_2  and  C_3 
ROOT
HETATM    1  C   LIG     1      17.048  37.800  23.606  1.00  0.00    -0.035 A 
HETATM    2  C   LIG     1      17.550  38.143  24.877  1.00  0.00     0.010 A 
HETATM    3  C   LIG     1      17.895  37.146  25.794  1.00  0.00     0.007 A 
HETATM    4  C   LIG     1      17.735  35.792  25.462  1.00  0.00    -0.062 A 
HETATM    5  C   LIG     1      18.143  34.724  26.433  1.00  0.00     0.048 C 
HETATM    6  C   LIG     1      17.256  35.447  24.191  1.00  0.00     0.007 A 
HETATM    7  C   LIG     1      16.911  36.443  23.273  1.00  0.00     0.010 A 
ENDROOT
BRANCH   1   8
HETATM    8  C   LIG     1      16.664  38.840  22.580  1.00  0.00     0.202 C 
BRANCH   8   9
HETATM    9  O   LIG     1      15.306  39.185  22.651  1.00  0.00    -0.396 OA
HETATM   10  H   LIG     1      15.270  40.140  22.923  1.00  0.00     0.209 HD
ENDBRANCH   8   9
ENDBRANCH   1   8
TORSDOF 2
ENDMDL
MODEL 3
REMARK VINA RESULT:      -6.2      0.115      1.618
REMARK  2 active torsions:
REMARK  status: ('A' for Active; 'I' for Inactive)
REMARK    1  A    between atoms: O_1  and  C_2 
REMARK    2  A    between atoms: C_2  and  C_3 
ROOT
HETATM    1  C   LIG     1      17.203  37.667  21.881  1.00  0.00    -0.035 A 
HETATM    2  C   LIG     1      17.785  38.944  21.998  1.00  0.00     0.010 A 
HETATM    3  C   LIG     1      18.815  39.333  21.137  1.00  0.00     0.007 A 
HETATM    4  C   LIG     1      19.287  38.452  20.153  1.00  0.00    -0.062 A 
HETATM    5  C   LIG     1      20.364  38.887  19.204  1.00  0.00     0.048 C 
HETATM    6  C   LIG     1      18.695  37.188  20.020  1.00  0.00     0.007 A 
HETATM    7  C   LIG     1      17.665  36.798  20.881  1.00  0.00     0.010 A 
ENDROOT
BRANCH   1   8
HETATM    8  C   LIG     1      16.086  37.201  22.786  1.00  0.00     0.202 C 
BRANCH   8   9
HETATM    9  O   LIG     1      15.147  38.212  23.040  1.00  0.00    -0.396 OA
HETATM   10  H   LIG     1      14.774  38.032  23.943  1.00  0.00     0.209 HD
ENDBRANCH   8   9
ENDBRANCH   1   8
TORSDOF 2
ENDMDL
MODEL 4
REMARK VINA RESULT:      -6.0      2.406      3.930
REMARK  2 active torsions:
REMARK  status: ('A' for Active; 'I' for Inactive)
REMARK    1  A    between atoms: O_1  and  C_2 
REMARK    2  A    between atoms: C_2  and  C_3 
ROOT
HETATM    1  C   LIG     1      18.863  38.363  19.976  1.00  0.00    -0.035 A 
HETATM    2  C   LIG     1      18.301  37.086  20.173  1.00  0.00     0.010 A 
HETATM    3  C   LIG     1      17.563  36.810  21.328  1.00  0.00     0.007 A 
HETATM    4  C   LIG     1      17.382  37.797  22.307  1.00  0.00    -0.062 A 
HETATM    5  C   LIG     1      16.556  37.510  23.526  1.00  0.00     0.048 C 
HETATM    6  C   LIG     1      17.922  39.075  22.104  1.00  0.00     0.007 A 
HETATM    7  C   LIG     1      18.660  39.353  20.950  1.00  0.00     0.010 A 
ENDROOT
BRANCH   1   8
HETATM    8  C   LIG     1      19.667  38.712  18.745  1.00  0.00     0.202 C 
BRANCH   8   9
HETATM    9  O   LIG     1      20.789  39.499  19.044  1.00  0.00    -0.396 OA
HETATM   10  H   LIG     1      21.583  38.913  18.933  1.00  0.00     0.209 HD
ENDBRANCH   8   9
ENDBRANCH   1   8
TORSDOF 2
ENDMDL
MODEL 5
REMARK VINA RESULT:      -6.0      2.417      4.250
REMARK  2 active torsions:
REMARK  status: ('A' for Active; 'I' for Inactive)
REMARK    1  A    between atoms: O_1  and  C_2 
REMARK    2  A    between atoms: C_2  and  C_3 
ROOT
HETATM    1  C   LIG     1      18.832  38.471  19.984  1.00  0.00    -0.035 A 
HETATM    2  C   LIG     1      18.607  39.415  21.005  1.00  0.00     0.010 A 
HETATM    3  C   LIG     1      17.884  39.060  22.148  1.00  0.00     0.007 A 
HETATM    4  C   LIG     1      17.366  37.764  22.285  1.00  0.00    -0.062 A 
HETATM    5  C   LIG     1      16.625  37.375  23.530  1.00  0.00     0.048 C 
HETATM    6  C   LIG     1      17.607  36.816  21.281  1.00  0.00     0.007 A 
HETATM    7  C   LIG     1      18.329  37.169  20.137  1.00  0.00     0.010 A 
ENDROOT
BRANCH   1   8
HETATM    8  C   LIG     1      19.610  38.804  18.731  1.00  0.00     0.202 C 
BRANCH   8   9
HETATM    9  O   LIG     1      20.818  39.461  19.011  1.00  0.00    -0.396 OA
HETATM   10  H   LIG     1      21.391  38.806  19.490  1.00  0.00     0.209 HD
ENDBRANCH   8   9
ENDBRANCH   1   8
TORSDOF 2
ENDMDL
MODEL 6
REMARK VINA RESULT:      -5.9      3.294      4.699
REMARK  2 active torsions:
REMARK  status: ('A' for Active; 'I' for Inactive)
REMARK    1  A    between atoms: O_1  and  C_2 
REMARK    2  A    between atoms: C_2  and  C_3 
ROOT
HETATM    1  C   LIG     1      16.500  36.118  22.736  1.00  0.00    -0.035 A 
HETATM    2  C   LIG     1      16.654  37.369  23.366  1.00  0.00     0.010 A 
HETATM    3  C   LIG     1      17.211  37.452  24.645  1.00  0.00     0.007 A 
HETATM    4  C   LIG     1      17.614  36.290  25.320  1.00  0.00    -0.062 A 
HETATM    5  C   LIG     1      18.247  36.386  26.677  1.00  0.00     0.048 C 
HETATM    6  C   LIG     1      17.482  35.046  24.688  1.00  0.00     0.007 A 
HETATM    7  C   LIG     1      16.925  34.961  23.408  1.00  0.00     0.010 A 
ENDROOT
BRANCH   1   8
HETATM    8  C   LIG     1      15.907  35.976  21.353  1.00  0.00     0.202 C 
BRANCH   8   9
HETATM    9  O   LIG     1      14.512  35.820  21.384  1.00  0.00    -0.396 OA
HETATM   10  H   LIG     1      14.224  36.036  22.310  1.00  0.00     0.209 HD
ENDBRANCH   8   9
ENDBRANCH   1   8
TORSDOF 2
ENDMDL
MODEL 7
REMARK VINA RESULT:      -5.9      3.163      4.433
REMARK  2 active torsions:
REMARK  status: ('A' for Active; 'I' for Inactive)
REMARK    1  A    between atoms: O_1  and  C_2 
REMARK    2  A    between atoms: C_2  and  C_3 
ROOT
HETATM    1  C   LIG     1      17.570  35.885  25.269  1.00  0.00    -0.035 A 
HETATM    2  C   LIG     1      17.870  37.232  25.552  1.00  0.00     0.010 A 
HETATM    3  C   LIG     1      17.716  38.213  24.569  1.00  0.00     0.007 A 
HETATM    4  C   LIG     1      17.270  37.865  23.285  1.00  0.00    -0.062 A 
HETATM    5  C   LIG     1      17.067  38.925  22.243  1.00  0.00     0.048 C 
HETATM    6  C   LIG     1      16.950  36.529  23.005  1.00  0.00     0.007 A 
HETATM    7  C   LIG     1      17.104  35.547  23.988  1.00  0.00     0.010 A 
ENDROOT
BRANCH   1   8
HETATM    8  C   LIG     1      17.717  34.789  26.299  1.00  0.00     0.202 C 
BRANCH   8   9
HETATM    9  O   LIG     1      16.479  34.271  26.709  1.00  0.00    -0.396 OA
HETATM   10  H   LIG     1      16.214  33.599  26.027  1.00  0.00     0.209 HD
ENDBRANCH   8   9
ENDBRANCH   1   8
TORSDOF 2
ENDMDL
MODEL 8
REMARK VINA RESULT:      -5.8      1.725      2.658
REMARK  2 active torsions:
REMARK  status: ('A' for Active; 'I' for Inactive)
REMARK    1  A    between atoms: O_1  and  C_2 
REMARK    2  A    between atoms: C_2  and  C_3 
ROOT
HETATM    1  C   LIG     1      16.427  35.947  21.531  1.00  0.00    -0.035 A 
HETATM    2  C   LIG     1      16.197  37.038  22.393  1.00  0.00     0.010 A 
HETATM    3  C   LIG     1      16.980  38.191  22.298  1.00  0.00     0.007 A 
HETATM    4  C   LIG     1      18.010  38.273  21.348  1.00  0.00    -0.062 A 
HETATM    5  C   LIG     1      18.823  39.527  21.221  1.00  0.00     0.048 C 
HETATM    6  C   LIG     1      18.227  37.198  20.474  1.00  0.00     0.007 A 
HETATM    7  C   LIG     1      17.445  36.043  20.569  1.00  0.00     0.010 A 
ENDROOT
BRANCH   1   8
HETATM    8  C   LIG     1      15.606  34.680  21.593  1.00  0.00     0.202 C 
BRANCH   8   9
HETATM    9  O   LIG     1      14.227  34.932  21.519  1.00  0.00    -0.396 OA
HETATM   10  H   LIG     1      13.925  34.594  20.635  1.00  0.00     0.209 HD
ENDBRANCH   8   9
ENDBRANCH   1   8
TORSDOF 2
ENDMDL
MODEL 9
REMARK VINA RESULT:      -5.7      2.788      3.832
REMARK  2 active torsions:
REMARK  status: ('A' for Active; 'I' for Inactive)
REMARK    1  A    between atoms: O_1  and  C_2 
REMARK    2  A    between atoms: C_2  and  C_3 
ROOT
HETATM    1  C   LIG     1      17.251  36.994  24.369  1.00  0.00    -0.035 A 
HETATM    2  C   LIG     1      17.042  37.843  23.264  1.00  0.00     0.010 A 
HETATM    3  C   LIG     1      16.786  37.307  21.999  1.00  0.00     0.007 A 
HETATM    4  C   LIG     1      16.743  35.917  21.814  1.00  0.00    -0.062 A 
HETATM    5  C   LIG     1      16.428  35.345  20.463  1.00  0.00     0.048 C 
HETATM    6  C   LIG     1      16.929  35.070  22.915  1.00  0.00     0.007 A 
HETATM    7  C   LIG     1      17.186  35.605  24.181  1.00  0.00     0.010 A 
ENDROOT
BRANCH   1   8
HETATM    8  C   LIG     1      17.528  37.525  25.757  1.00  0.00     0.202 C 
BRANCH   8   9
HETATM    9  O   LIG     1      17.260  38.898  25.867  1.00  0.00    -0.396 OA
HETATM   10  H   LIG     1      16.278  39.004  25.765  1.00  0.00     0.209 HD
ENDBRANCH   8   9
ENDBRANCH   1   8
TORSDOF 2
ENDMDL
MODEL 10
REMARK VINA RESULT:      -5.6      2.212      3.745
REMARK  2 active torsions:
REMARK  status: ('A' for Active; 'I' for Inactive)
REMARK    1  A    between atoms: O_1  and  C_2 
REMARK    2  A    between atoms: C_2  and  C_3 
ROOT
HETATM    1  C   LIG     1      18.115  38.371  21.269  1.00  0.00    -0.035 A 
HETATM    2  C   LIG     1      18.347  37.276  20.413  1.00  0.00     0.010 A 
HETATM    3  C   LIG     1      17.606  36.100  20.554  1.00  0.00     0.007 A 
HETATM    4  C   LIG     1      16.630  35.992  21.556  1.00  0.00    -0.062 A 
HETATM    5  C   LIG     1      15.809  34.743  21.679  1.00  0.00     0.048 C 
HETATM    6  C   LIG     1      16.382  37.087  22.395  1.00  0.00     0.007 A 
HETATM    7  C   LIG     1      17.123  38.264  22.256  1.00  0.00     0.010 A 
ENDROOT
BRANCH   1   8
HETATM    8  C   LIG     1      18.888  39.665  21.155  1.00  0.00     0.202 C 
BRANCH   8   9
HETATM    9  O   LIG     1      19.894  39.602  20.179  1.00  0.00    -0.396 OA
HETATM   10  H   LIG     1      20.304  38.701  20.253  1.00  0.00     0.209 HD
ENDBRANCH   8   9
ENDBRANCH   1   8
TORSDOF 2
ENDMDL
MODEL 11
REMARK VINA RESULT:      -5.5      8.186      9.459
REMARK  2 active torsions:
REMARK  status: ('A' for Active; 'I' for Inactive)
REMARK    1  A    between atoms: O_1  and  C_2 
REMARK    2  A    between atoms: C_2  and  C_3 
ROOT
HETATM    1  C   LIG     1      14.695  32.605  16.461  1.00  0.00    -0.035 A 
HETATM    2  C   LIG     1      13.518  31.922  16.823  1.00  0.00     0.010 A 
HETATM    3  C   LIG     1      13.121  30.778  16.124  1.00  0.00     0.007 A 
HETATM    4  C   LIG     1      13.886  30.304  15.048  1.00  0.00    -0.062 A 
HETATM    5  C   LIG     1      13.479  29.054  14.325  1.00  0.00     0.048 C 
HETATM    6  C   LIG     1      15.070  30.969  14.699  1.00  0.00     0.007 A 
HETATM    7  C   LIG     1      15.468  32.113  15.397  1.00  0.00     0.010 A 
ENDROOT
BRANCH   1   8
HETATM    8  C   LIG     1      15.168  33.844  17.187  1.00  0.00     0.202 C 
BRANCH   8   9
HETATM    9  O   LIG     1      16.009  34.639  16.395  1.00  0.00    -0.396 OA
HETATM   10  H   LIG     1      16.890  34.181  16.369  1.00  0.00     0.209 HD
ENDBRANCH   8   9
ENDBRANCH   1   8
TORSDOF 2
ENDMDL
MODEL 12
REMARK VINA RESULT:      -5.4      8.917     10.019
REMARK  2 active torsions:
REMARK  status: ('A' for Active; 'I' for Inactive)
REMARK    1  A    between atoms: O_1  and  C_2 
REMARK    2  A    between atoms: C_2  and  C_3 
ROOT
HETATM    1  C   LIG     1      14.193  30.299  14.972  1.00  0.00    -0.035 A 
HETATM    2  C   LIG     1      13.349  30.715  16.020  1.00  0.00     0.010 A 
HETATM    3  C   LIG     1      13.644  31.869  16.750  1.00  0.00     0.007 A 
HETATM    4  C   LIG     1      14.790  32.622  16.454  1.00  0.00    -0.062 A 
HETATM    5  C   LIG     1      15.083  33.882  17.212  1.00  0.00     0.048 C 
HETATM    6  C   LIG     1      15.621  32.223  15.397  1.00  0.00     0.007 A 
HETATM    7  C   LIG     1      15.327  31.068  14.667  1.00  0.00     0.010 A 
ENDROOT
BRANCH   1   8
HETATM    8  C   LIG     1      13.916  29.060  14.153  1.00  0.00     0.202 C 
BRANCH   8   9
HETATM    9  O   LIG     1      12.543  28.844  13.959  1.00  0.00    -0.396 OA
HETATM   10  H   LIG     1      12.263  29.447  13.221  1.00  0.00     0.209 HD
ENDBRANCH   8   9
ENDBRANCH   1   8
TORSDOF 2
ENDMDL
MODEL 13
REMARK VINA RESULT:      -5.1      8.860      9.953
REMARK  2 active torsions:
REMARK  status: ('A' for Active; 'I' for Inactive)
REMARK    1  A    between atoms: O_1  and  C_2 
REMARK    2  A    between atoms: C_2  and  C_3 
ROOT
HETATM    1  C   LIG     1      14.484  30.408  14.903  1.00  0.00    -0.035 A 
HETATM    2  C   LIG     1      13.586  30.780  15.922  1.00  0.00     0.010 A 
HETATM    3  C   LIG     1      13.792  31.953  16.654  1.00  0.00     0.007 A 
HETATM    4  C   LIG     1      14.902  32.768  16.388  1.00  0.00    -0.062 A 
HETATM    5  C   LIG     1      15.100  34.047  17.147  1.00  0.00     0.048 C 
HETATM    6  C   LIG     1      15.786  32.413  15.359  1.00  0.00     0.007 A 
HETATM    7  C   LIG     1      15.581  31.240  14.627  1.00  0.00     0.010 A 
ENDROOT
BRANCH   1   8
HETATM    8  C   LIG     1      14.303  29.152  14.083  1.00  0.00     0.202 C 
BRANCH   8   9
HETATM    9  O   LIG     1      15.344  28.960  13.162  1.00  0.00    -0.396 OA
HETATM   10  H   LIG     1      15.434  29.810  12.655  1.00  0.00     0.209 HD
ENDBRANCH   8   9
ENDBRANCH   1   8
TORSDOF 2
ENDMDL
MODEL 14
REMARK VINA RESULT:      -5.1      8.480      9.825
REMARK  2 active torsions:
REMARK  status: ('A' for Active; 'I' for Inactive)
REMARK    1  A    between atoms: O_1  and  C_2 
REMARK    2  A    between atoms: C_2  and  C_3 
ROOT
HETATM    1  C   LIG     1      16.386  32.461  14.442  1.00  0.00    -0.035 A 
HETATM    2  C   LIG     1      15.748  31.365  13.829  1.00  0.00     0.010 A 
HETATM    3  C   LIG     1      14.697  30.707  14.474  1.00  0.00     0.007 A 
HETATM    4  C   LIG     1      14.273  31.125  15.745  1.00  0.00    -0.062 A 
HETATM    5  C   LIG     1      13.119  30.443  16.418  1.00  0.00     0.048 C 
HETATM    6  C   LIG     1      14.892  32.229  16.348  1.00  0.00     0.007 A 
HETATM    7  C   LIG     1      15.943  32.887  15.704  1.00  0.00     0.010 A 
ENDROOT
BRANCH   1   8
HETATM    8  C   LIG     1      17.525  33.206  13.784  1.00  0.00     0.202 C 
BRANCH   8   9
HETATM    9  O   LIG     1      17.107  33.932  12.658  1.00  0.00    -0.396 OA
HETATM   10  H   LIG     1      17.926  34.136  12.133  1.00  0.00     0.209 HD
ENDBRANCH   8   9
ENDBRANCH   1   8
TORSDOF 2
ENDMDL
MODEL 15
REMARK VINA RESULT:      -5.0      2.718      4.024
REMARK  2 active torsions:
REMARK  status: ('A' for Active; 'I' for Inactive)
REMARK    1  A    between atoms: O_1  and  C_2 
REMARK    2  A    between atoms: C_2  and  C_3 
ROOT
HETATM    1  C   LIG     1      16.298  36.906  22.328  1.00  0.00    -0.035 A 
HETATM    2  C   LIG     1      17.331  35.984  22.067  1.00  0.00     0.010 A 
HETATM    3  C   LIG     1      17.062  34.797  21.380  1.00  0.00     0.007 A 
HETATM    4  C   LIG     1      15.758  34.506  20.950  1.00  0.00    -0.062 A 
HETATM    5  C   LIG     1      15.480  33.251  20.178  1.00  0.00     0.048 C 
HETATM    6  C   LIG     1      14.733  35.432  21.189  1.00  0.00     0.007 A 
HETATM    7  C   LIG     1      15.000  36.619  21.877  1.00  0.00     0.010 A 
ENDROOT
BRANCH   1   8
HETATM    8  C   LIG     1      16.539  38.204  23.064  1.00  0.00     0.202 C 
BRANCH   8   9
HETATM    9  O   LIG     1      16.215  38.113  24.427  1.00  0.00    -0.396 OA
HETATM   10  H   LIG     1      16.022  37.155  24.608  1.00  0.00     0.209 HD
ENDBRANCH   8   9
ENDBRANCH   1   8
TORSDOF 2
ENDMDL
MODEL 16
REMARK VINA RESULT:      -4.9      8.406      9.285
REMARK  2 active torsions:
REMARK  status: ('A' for Active; 'I' for Inactive)
REMARK    1  A    between atoms: O_1  and  C_2 
REMARK    2  A    between atoms: C_2  and  C_3 
ROOT
HETATM    1  C   LIG     1      14.251  30.913  15.219  1.00  0.00    -0.035 A 
HETATM    2  C   LIG     1      15.021  30.803  14.045  1.00  0.00     0.010 A 
HETATM    3  C   LIG     1      16.139  31.620  13.854  1.00  0.00     0.007 A 
HETATM    4  C   LIG     1      16.501  32.565  14.826  1.00  0.00    -0.062 A 
HETATM    5  C   LIG     1      17.725  33.412  14.636  1.00  0.00     0.048 C 
HETATM    6  C   LIG     1      15.750  32.661  16.005  1.00  0.00     0.007 A 
HETATM    7  C   LIG     1      14.631  31.845  16.197  1.00  0.00     0.010 A 
ENDROOT
BRANCH   1   8
HETATM    8  C   LIG     1      13.036  30.051  15.473  1.00  0.00     0.202 C 
BRANCH   8   9
HETATM    9  O   LIG     1      12.404  30.362  16.688  1.00  0.00    -0.396 OA
HETATM   10  H   LIG     1      11.453  30.550  16.472  1.00  0.00     0.209 HD
ENDBRANCH   8   9
ENDBRANCH   1   8
TORSDOF 2
ENDMDL
MODEL 17
REMARK VINA RESULT:      -4.9      7.887      8.870
REMARK  2 active torsions:
REMARK  status: ('A' for Active; 'I' for Inactive)
REMARK    1  A    between atoms: O_1  and  C_2 
REMARK    2  A    between atoms: C_2  and  C_3 
ROOT
HETATM    1  C   LIG     1      14.265  31.390  15.912  1.00  0.00    -0.035 A 
HETATM    2  C   LIG     1      14.837  32.499  16.567  1.00  0.00     0.010 A 
HETATM    3  C   LIG     1      15.978  33.116  16.046  1.00  0.00     0.007 A 
HETATM    4  C   LIG     1      16.572  32.632  14.871  1.00  0.00    -0.062 A 
HETATM    5  C   LIG     1      17.772  33.321  14.293  1.00  0.00     0.048 C 
HETATM    6  C   LIG     1      15.993  31.543  14.205  1.00  0.00     0.007 A 
HETATM    7  C   LIG     1      14.852  30.924  14.725  1.00  0.00     0.010 A 
ENDROOT
BRANCH   1   8
HETATM    8  C   LIG     1      13.031  30.691  16.434  1.00  0.00     0.202 C 
BRANCH   8   9
HETATM    9  O   LIG     1      12.211  31.545  17.187  1.00  0.00    -0.396 OA
HETATM   10  H   LIG     1      11.436  31.000  17.487  1.00  0.00     0.209 HD
ENDBRANCH   8   9
ENDBRANCH   1   8
TORSDOF 2
ENDMDL
MODEL 18
REMARK VINA RESULT:      -4.8      9.184     10.270
REMARK  2 active torsions:
REMARK  status: ('A' for Active; 'I' for Inactive)
REMARK    1  A    between atoms: O_1  and  C_2 
REMARK    2  A    between atoms: C_2  and  C_3 
ROOT
HETATM    1  C   LIG     1      13.889  31.379  15.951  1.00  0.00    -0.035 A 
HETATM    2  C   LIG     1      13.054  30.330  15.520  1.00  0.00     0.010 A 
HETATM    3  C   LIG     1      13.523  29.383  14.605  1.00  0.00     0.007 A 
HETATM    4  C   LIG     1      14.828  29.474  14.098  1.00  0.00    -0.062 A 
HETATM    5  C   LIG     1      15.342  28.434  13.146  1.00  0.00     0.048 C 
HETATM    6  C   LIG     1      15.669  30.505  14.540  1.00  0.00     0.007 A 
HETATM    7  C   LIG     1      15.200  31.452  15.456  1.00  0.00     0.010 A 
ENDROOT
BRANCH   1   8
HETATM    8  C   LIG     1      13.429  32.425  16.941  1.00  0.00     0.202 C 
BRANCH   8   9
HETATM    9  O   LIG     1      14.058  32.293  18.188  1.00  0.00    -0.396 OA
HETATM   10  H   LIG     1      14.416  31.368  18.228  1.00  0.00     0.209 HD
ENDBRANCH   8   9
ENDBRANCH   1   8
TORSDOF 2
ENDMDL
MODEL 19
REMARK VINA RESULT:      -4.4      5.884      7.161
REMARK  2 active torsions:
REMARK  status: ('A' for Active; 'I' for Inactive)
REMARK    1  A    between atoms: O_1  and  C_2 
REMARK    2  A    between atoms: C_2  and  C_3 
ROOT
HETATM    1  C   LIG     1      14.645  32.436  17.680  1.00  0.00    -0.035 A 
HETATM    2  C   LIG     1      15.025  33.782  17.514  1.00  0.00     0.010 A 
HETATM    3  C   LIG     1      15.509  34.519  18.599  1.00  0.00     0.007 A 
HETATM    4  C   LIG     1      15.612  33.929  19.867  1.00  0.00    -0.062 A 
HETATM    5  C   LIG     1      16.169  34.710  21.020  1.00  0.00     0.048 C 
HETATM    6  C   LIG     1      15.256  32.583  20.031  1.00  0.00     0.007 A 
HETATM    7  C   LIG     1      14.772  31.845  18.947  1.00  0.00     0.010 A 
ENDROOT
BRANCH   1   8
HETATM    8  C   LIG     1      14.119  31.597  16.539  1.00  0.00     0.202 C 
BRANCH   8   9
HETATM    9  O   LIG     1      13.198  30.629  16.967  1.00  0.00    -0.396 OA
HETATM   10  H   LIG     1      13.703  29.778  17.058  1.00  0.00     0.209 HD
ENDBRANCH   8   9
ENDBRANCH   1   8
TORSDOF 2
ENDMDL
MODEL 20
REMARK VINA RESULT:      -4.2     10.872     11.985
REMARK  2 active torsions:
REMARK  status: ('A' for Active; 'I' for Inactive)
REMARK    1  A    between atoms: O_1  and  C_2 
REMARK    2  A    between atoms: C_2  and  C_3 
ROOT
HETATM    1  C   LIG     1      13.700  29.926  14.893  1.00  0.00    -0.035 A 
HETATM    2  C   LIG     1      15.023  30.180  14.482  1.00  0.00     0.010 A 
HETATM    3  C   LIG     1      15.707  29.254  13.689  1.00  0.00     0.007 A 
HETATM    4  C   LIG     1      15.087  28.057  13.302  1.00  0.00    -0.062 A 
HETATM    5  C   LIG     1      15.809  27.084  12.418  1.00  0.00     0.048 C 
HETATM    6  C   LIG     1      13.763  27.811  13.691  1.00  0.00     0.007 A 
HETATM    7  C   LIG     1      13.077  28.735  14.484  1.00  0.00     0.010 A 
ENDROOT
BRANCH   1   8
HETATM    8  C   LIG     1      12.917  30.896  15.748  1.00  0.00     0.202 C 
BRANCH   8   9
HETATM    9  O   LIG     1      12.217  30.254  16.780  1.00  0.00    -0.396 OA
HETATM   10  H   LIG     1      11.640  29.570  16.349  1.00  0.00     0.209 HD
ENDBRANCH   8   9
ENDBRANCH   1   8
TORSDOF 2
ENDMDL
