REMARK  0 active torsions:
REMARK  status: ('A' for Active; 'I' for Inactive)
ROOT
HETATM    1  C   LIG     1      -2.893   0.054  -0.280  1.00  0.00     0.010 C 
HETATM    2  C   LIG     1      -1.477   0.070   0.304  1.00  0.00    -0.018 C 
HETATM    3  C   LIG     1      -0.670   1.251  -0.266  1.00  0.00     0.004 C 
HETATM    4  C   LIG     1       0.759   1.263   0.292  1.00  0.00     0.004 C 
HETATM    5  C   LIG     1       1.477  -0.070   0.005  1.00  0.00    -0.018 C 
HETATM    6  C   LIG     1       2.893  -0.054   0.589  1.00  0.00     0.010 C 
HETATM    7  C   LIG     1       0.670  -1.251   0.576  1.00  0.00     0.004 C 
HETATM    8  C   LIG     1      -0.759  -1.263   0.017  1.00  0.00     0.004 C 
ENDROOT
TORSDOF 0
