REMARK  1 active torsions:
REMARK  status: ('A' for Active; 'I' for Inactive)
REMARK    1  A    between atoms: C_7  and  O_8 
ROOT
HETATM    1  C   LIG     1       2.570  -0.491  -0.108  1.00  0.00     0.010 C 
HETATM    2  C   LIG     1       1.139  -0.199   0.355  1.00  0.00    -0.019 C 
HETATM    3  C   LIG     1       0.678   1.182  -0.152  1.00  0.00     0.007 C 
HETATM    4  C   LIG     1      -0.764   1.474   0.281  1.00  0.00     0.032 C 
HETATM    5  C   LIG     1       0.177  -1.300  -0.132  1.00  0.00     0.007 C 
HETATM    6  C   LIG     1      -1.265  -1.002   0.300  1.00  0.00     0.032 C 
HETATM    7  C   LIG     1      -1.722   0.377  -0.207  1.00  0.00     0.118 C 
ENDROOT
BRANCH   7   8
HETATM    8  O   LIG     1      -3.014   0.654   0.264  1.00  0.00    -0.396 OA
HETATM    9  H   LIG     1      -3.639   0.099  -0.271  1.00  0.00     0.210 HD
ENDBRANCH   7   8
TORSDOF 1
