MODEL 1
REMARK VINA RESULT:      -5.2      0.000      0.000
REMARK  5 active torsions:
REMARK  status: ('A' for Active; 'I' for Inactive)
REMARK    1  A    between atoms: C_2  and  C_3 
REMARK    2  A    between atoms: C_3  and  C_4 
REMARK    3  A    between atoms: C_4  and  C_6 
REMARK    4  A    between atoms: C_4  and  O_5 
REMARK    5  A    between atoms: C_6  and  C_7 
ROOT
HETATM    1  C   LIG     1      17.373  37.794  25.170  1.00  0.00     0.118 C 
ENDROOT
BRANCH   1   2
HETATM    2  C   LIG     1      18.619  37.067  25.722  1.00  0.00     0.031 C 
BRANCH   2   3
HETATM    3  C   LIG     1      18.269  35.971  26.742  1.00  0.00    -0.002 C 
HETATM    4  C   LIG     1      17.523  34.819  26.074  1.00  0.00     0.005 C 
ENDBRANCH   2   3
ENDBRANCH   1   2
BRANCH   1   5
HETATM    5  C   LIG     1      17.461  38.036  23.646  1.00  0.00     0.031 C 
BRANCH   5   6
HETATM    6  C   LIG     1      16.395  37.238  22.882  1.00  0.00    -0.002 C 
HETATM    7  C   LIG     1      16.881  35.824  22.576  1.00  0.00     0.005 C 
ENDBRANCH   5   6
ENDBRANCH   1   5
BRANCH   1   8
HETATM    8  O   LIG     1      17.195  39.010  25.853  1.00  0.00    -0.396 OA
HETATM    9  H   LIG     1      16.220  39.196  25.886  1.00  0.00     0.210 HD
ENDBRANCH   1   8
TORSDOF 5
ENDMDL
MODEL 2
REMARK VINA RESULT:      -5.2      1.331      1.597
REMARK  5 active torsions:
REMARK  status: ('A' for Active; 'I' for Inactive)
REMARK    1  A    between atoms: C_2  and  C_3 
REMARK    2  A    between atoms: C_3  and  C_4 
REMARK    3  A    between atoms: C_4  and  C_6 
REMARK    4  A    between atoms: C_4  and  O_5 
REMARK    5  A    between atoms: C_6  and  C_7 
ROOT
HETATM    1  C   LIG     1      16.618  37.452  23.904  1.00  0.00     0.118 C 
ENDROOT
BRANCH   1   2
HETATM    2  C   LIG     1      17.288  37.936  25.209  1.00  0.00     0.031 C 
BRANCH   2   3
HETATM    3  C   LIG     1      18.269  36.906  25.794  1.00  0.00    -0.002 C 
HETATM    4  C   LIG     1      17.682  35.500  25.747  1.00  0.00     0.005 C 
ENDBRANCH   2   3
ENDBRANCH   1   2
BRANCH   1   5
HETATM    5  C   LIG     1      17.463  37.781  22.653  1.00  0.00     0.031 C 
BRANCH   5   6
HETATM    6  C   LIG     1      17.238  36.757  21.531  1.00  0.00    -0.002 C 
HETATM    7  C   LIG     1      17.001  35.361  22.100  1.00  0.00     0.005 C 
ENDBRANCH   5   6
ENDBRANCH   1   5
BRANCH   1   8
HETATM    8  O   LIG     1      15.335  38.018  23.794  1.00  0.00    -0.396 OA
HETATM    9  H   LIG     1      14.679  37.334  24.089  1.00  0.00     0.210 HD
ENDBRANCH   1   8
TORSDOF 5
ENDMDL
MODEL 3
REMARK VINA RESULT:      -5.1      1.671      2.023
REMARK  5 active torsions:
REMARK  status: ('A' for Active; 'I' for Inactive)
REMARK    1  A    between atoms: C_2  and  C_3 
REMARK    2  A    between atoms: C_3  and  C_4 
REMARK    3  A    between atoms: C_4  and  C_6 
REMARK    4  A    between atoms: C_4  and  O_5 
REMARK    5  A    between atoms: C_6  and  C_7 
ROOT
HETATM    1  C   LIG     1      17.074  37.680  24.177  1.00  0.00     0.118 C 
ENDROOT
BRANCH   1   2
HETATM    2  C   LIG     1      17.470  37.745  25.668  1.00  0.00     0.031 C 
BRANCH   2   3
HETATM    3  C   LIG     1      18.427  36.615  26.082  1.00  0.00    -0.002 C 
HETATM    4  C   LIG     1      17.780  35.248  25.884  1.00  0.00     0.005 C 
ENDBRANCH   2   3
ENDBRANCH   1   2
BRANCH   1   5
HETATM    5  C   LIG     1      17.931  38.620  23.300  1.00  0.00     0.031 C 
BRANCH   5   6
HETATM    6  C   LIG     1      17.719  38.350  21.804  1.00  0.00    -0.002 C 
HETATM    7  C   LIG     1      18.622  39.236  20.950  1.00  0.00     0.005 C 
ENDBRANCH   5   6
ENDBRANCH   1   5
BRANCH   1   8
HETATM    8  O   LIG     1      15.708  37.986  24.038  1.00  0.00    -0.396 OA
HETATM    9  H   LIG     1      15.258  37.746  24.890  1.00  0.00     0.210 HD
ENDBRANCH   1   8
TORSDOF 5
ENDMDL
MODEL 4
REMARK VINA RESULT:      -5.0      1.970      4.202
REMARK  5 active torsions:
REMARK  status: ('A' for Active; 'I' for Inactive)
REMARK    1  A    between atoms: C_2  and  C_3 
REMARK    2  A    between atoms: C_3  and  C_4 
REMARK    3  A    between atoms: C_4  and  C_6 
REMARK    4  A    between atoms: C_4  and  O_5 
REMARK    5  A    between atoms: C_6  and  C_7 
ROOT
HETATM    1  C   LIG     1      16.687  38.075  23.684  1.00  0.00     0.118 C 
ENDROOT
BRANCH   1   2
HETATM    2  C   LIG     1      17.261  38.107  22.251  1.00  0.00     0.031 C 
BRANCH   2   3
HETATM    3  C   LIG     1      18.419  39.106  22.093  1.00  0.00    -0.002 C 
HETATM    4  C   LIG     1      18.808  39.267  20.626  1.00  0.00     0.005 C 
ENDBRANCH   2   3
ENDBRANCH   1   2
BRANCH   1   5
HETATM    5  C   LIG     1      17.202  36.866  24.497  1.00  0.00     0.031 C 
BRANCH   5   6
HETATM    6  C   LIG     1      17.804  37.301  25.841  1.00  0.00    -0.002 C 
HETATM    7  C   LIG     1      18.347  36.103  26.615  1.00  0.00     0.005 C 
ENDBRANCH   5   6
ENDBRANCH   1   5
BRANCH   1   8
HETATM    8  O   LIG     1      15.281  38.070  23.629  1.00  0.00    -0.396 OA
HETATM    9  H   LIG     1      15.016  38.319  22.706  1.00  0.00     0.210 HD
ENDBRANCH   1   8
TORSDOF 5
ENDMDL
MODEL 5
REMARK VINA RESULT:      -4.7      1.489      3.796
REMARK  5 active torsions:
REMARK  status: ('A' for Active; 'I' for Inactive)
REMARK    1  A    between atoms: C_2  and  C_3 
REMARK    2  A    between atoms: C_3  and  C_4 
REMARK    3  A    between atoms: C_4  and  C_6 
REMARK    4  A    between atoms: C_4  and  O_5 
REMARK    5  A    between atoms: C_6  and  C_7 
ROOT
HETATM    1  C   LIG     1      17.036  37.345  23.679  1.00  0.00     0.118 C 
ENDROOT
BRANCH   1   2
HETATM    2  C   LIG     1      16.872  37.165  22.154  1.00  0.00     0.031 C 
BRANCH   2   3
HETATM    3  C   LIG     1      16.619  35.703  21.749  1.00  0.00    -0.002 C 
HETATM    4  C   LIG     1      15.225  35.532  21.155  1.00  0.00     0.005 C 
ENDBRANCH   2   3
ENDBRANCH   1   2
BRANCH   1   5
HETATM    5  C   LIG     1      17.215  35.997  24.414  1.00  0.00     0.031 C 
BRANCH   5   6
HETATM    6  C   LIG     1      17.909  36.180  25.771  1.00  0.00    -0.002 C 
HETATM    7  C   LIG     1      18.348  34.837  26.350  1.00  0.00     0.005 C 
ENDBRANCH   5   6
ENDBRANCH   1   5
BRANCH   1   8
HETATM    8  O   LIG     1      15.927  38.043  24.193  1.00  0.00    -0.396 OA
HETATM    9  H   LIG     1      15.426  37.419  24.781  1.00  0.00     0.210 HD
ENDBRANCH   1   8
TORSDOF 5
ENDMDL
MODEL 6
REMARK VINA RESULT:      -4.7      2.630      3.905
REMARK  5 active torsions:
REMARK  status: ('A' for Active; 'I' for Inactive)
REMARK    1  A    between atoms: C_2  and  C_3 
REMARK    2  A    between atoms: C_3  and  C_4 
REMARK    3  A    between atoms: C_4  and  C_6 
REMARK    4  A    between atoms: C_4  and  O_5 
REMARK    5  A    between atoms: C_6  and  C_7 
ROOT
HETATM    1  C   LIG     1      16.528  37.956  23.434  1.00  0.00     0.118 C 
ENDROOT
BRANCH   1   2
HETATM    2  C   LIG     1      16.978  39.015  22.403  1.00  0.00     0.031 C 
BRANCH   2   3
HETATM    3  C   LIG     1      18.491  38.975  22.127  1.00  0.00    -0.002 C 
HETATM    4  C   LIG     1      18.789  39.274  20.662  1.00  0.00     0.005 C 
ENDBRANCH   2   3
ENDBRANCH   1   2
BRANCH   1   5
HETATM    5  C   LIG     1      16.925  36.523  23.015  1.00  0.00     0.031 C 
BRANCH   5   6
HETATM    6  C   LIG     1      16.086  36.026  21.829  1.00  0.00    -0.002 C 
HETATM    7  C   LIG     1      16.963  35.757  20.609  1.00  0.00     0.005 C 
ENDBRANCH   5   6
ENDBRANCH   1   5
BRANCH   1   8
HETATM    8  O   LIG     1      15.137  38.047  23.626  1.00  0.00    -0.396 OA
HETATM    9  H   LIG     1      14.951  38.917  24.065  1.00  0.00     0.210 HD
ENDBRANCH   1   8
TORSDOF 5
ENDMDL
MODEL 7
REMARK VINA RESULT:      -4.6      2.105      4.174
REMARK  5 active torsions:
REMARK  status: ('A' for Active; 'I' for Inactive)
REMARK    1  A    between atoms: C_2  and  C_3 
REMARK    2  A    between atoms: C_3  and  C_4 
REMARK    3  A    between atoms: C_4  and  C_6 
REMARK    4  A    between atoms: C_4  and  O_5 
REMARK    5  A    between atoms: C_6  and  C_7 
ROOT
HETATM    1  C   LIG     1      16.855  37.436  23.765  1.00  0.00     0.118 C 
ENDROOT
BRANCH   1   2
HETATM    2  C   LIG     1      17.702  38.531  23.080  1.00  0.00     0.031 C 
BRANCH   2   3
HETATM    3  C   LIG     1      17.783  38.356  21.555  1.00  0.00    -0.002 C 
HETATM    4  C   LIG     1      18.818  39.300  20.949  1.00  0.00     0.005 C 
ENDBRANCH   2   3
ENDBRANCH   1   2
BRANCH   1   5
HETATM    5  C   LIG     1      17.492  36.938  25.083  1.00  0.00     0.031 C 
BRANCH   5   6
HETATM    6  C   LIG     1      17.431  35.409  25.200  1.00  0.00    -0.002 C 
HETATM    7  C   LIG     1      18.347  34.905  26.311  1.00  0.00     0.005 C 
ENDBRANCH   5   6
ENDBRANCH   1   5
BRANCH   1   8
HETATM    8  O   LIG     1      16.662  36.363  22.875  1.00  0.00    -0.396 OA
HETATM    9  H   LIG     1      16.641  35.528  23.412  1.00  0.00     0.210 HD
ENDBRANCH   1   8
TORSDOF 5
ENDMDL
MODEL 8
REMARK VINA RESULT:      -4.4      2.644      3.617
REMARK  5 active torsions:
REMARK  status: ('A' for Active; 'I' for Inactive)
REMARK    1  A    between atoms: C_2  and  C_3 
REMARK    2  A    between atoms: C_3  and  C_4 
REMARK    3  A    between atoms: C_4  and  C_6 
REMARK    4  A    between atoms: C_4  and  O_5 
REMARK    5  A    between atoms: C_6  and  C_7 
ROOT
HETATM    1  C   LIG     1      16.871  38.702  22.719  1.00  0.00     0.118 C 
ENDROOT
BRANCH   1   2
HETATM    2  C   LIG     1      16.071  37.421  22.393  1.00  0.00     0.031 C 
BRANCH   2   3
HETATM    3  C   LIG     1      16.956  36.284  21.856  1.00  0.00    -0.002 C 
HETATM    4  C   LIG     1      17.011  35.120  22.841  1.00  0.00     0.005 C 
ENDBRANCH   2   3
ENDBRANCH   1   2
BRANCH   1   5
HETATM    5  C   LIG     1      18.334  38.622  22.224  1.00  0.00     0.031 C 
BRANCH   5   6
HETATM    6  C   LIG     1      18.555  39.479  20.970  1.00  0.00    -0.002 C 
HETATM    7  C   LIG     1      19.713  38.941  20.133  1.00  0.00     0.005 C 
ENDBRANCH   5   6
ENDBRANCH   1   5
BRANCH   1   8
HETATM    8  O   LIG     1      16.831  38.943  24.104  1.00  0.00    -0.396 OA
HETATM    9  H   LIG     1      16.025  38.490  24.464  1.00  0.00     0.210 HD
ENDBRANCH   1   8
TORSDOF 5
ENDMDL
MODEL 9
REMARK VINA RESULT:      -4.3      8.644     10.457
REMARK  5 active torsions:
REMARK  status: ('A' for Active; 'I' for Inactive)
REMARK    1  A    between atoms: C_2  and  C_3 
REMARK    2  A    between atoms: C_3  and  C_4 
REMARK    3  A    between atoms: C_4  and  C_6 
REMARK    4  A    between atoms: C_4  and  O_5 
REMARK    5  A    between atoms: C_6  and  C_7 
ROOT
HETATM    1  C   LIG     1      13.630  31.352  17.062  1.00  0.00     0.118 C 
ENDROOT
BRANCH   1   2
HETATM    2  C   LIG     1      14.882  32.241  17.226  1.00  0.00     0.031 C 
BRANCH   2   3
HETATM    3  C   LIG     1      15.128  32.663  18.685  1.00  0.00    -0.002 C 
HETATM    4  C   LIG     1      14.865  31.506  19.643  1.00  0.00     0.005 C 
ENDBRANCH   2   3
ENDBRANCH   1   2
BRANCH   1   5
HETATM    5  C   LIG     1      13.601  30.625  15.699  1.00  0.00     0.031 C 
BRANCH   5   6
HETATM    6  C   LIG     1      14.897  30.850  14.908  1.00  0.00    -0.002 C 
HETATM    7  C   LIG     1      15.142  29.714  13.918  1.00  0.00     0.005 C 
ENDBRANCH   5   6
ENDBRANCH   1   5
BRANCH   1   8
HETATM    8  O   LIG     1      12.472  32.132  17.230  1.00  0.00    -0.396 OA
HETATM    9  H   LIG     1      11.918  32.027  16.413  1.00  0.00     0.210 HD
ENDBRANCH   1   8
TORSDOF 5
ENDMDL
MODEL 10
REMARK VINA RESULT:      -4.2      8.948     10.363
REMARK  5 active torsions:
REMARK  status: ('A' for Active; 'I' for Inactive)
REMARK    1  A    between atoms: C_2  and  C_3 
REMARK    2  A    between atoms: C_3  and  C_4 
REMARK    3  A    between atoms: C_4  and  C_6 
REMARK    4  A    between atoms: C_4  and  O_5 
REMARK    5  A    between atoms: C_6  and  C_7 
ROOT
HETATM    1  C   LIG     1      15.423  33.204  16.232  1.00  0.00     0.118 C 
ENDROOT
BRANCH   1   2
HETATM    2  C   LIG     1      15.122  32.657  17.645  1.00  0.00     0.031 C 
BRANCH   2   3
HETATM    3  C   LIG     1      14.065  31.540  17.640  1.00  0.00    -0.002 C 
HETATM    4  C   LIG     1      12.887  31.904  16.743  1.00  0.00     0.005 C 
ENDBRANCH   2   3
ENDBRANCH   1   2
BRANCH   1   5
HETATM    5  C   LIG     1      16.428  32.319  15.461  1.00  0.00     0.031 C 
BRANCH   5   6
HETATM    6  C   LIG     1      15.832  31.799  14.145  1.00  0.00    -0.002 C 
HETATM    7  C   LIG     1      15.337  30.363  14.294  1.00  0.00     0.005 C 
ENDBRANCH   5   6
ENDBRANCH   1   5
BRANCH   1   8
HETATM    8  O   LIG     1      15.902  34.523  16.330  1.00  0.00    -0.396 OA
HETATM    9  H   LIG     1      16.760  34.568  15.833  1.00  0.00     0.210 HD
ENDBRANCH   1   8
TORSDOF 5
ENDMDL
MODEL 11
REMARK VINA RESULT:      -4.2      3.245      3.966
REMARK  5 active torsions:
REMARK  status: ('A' for Active; 'I' for Inactive)
REMARK    1  A    between atoms: C_2  and  C_3 
REMARK    2  A    between atoms: C_3  and  C_4 
REMARK    3  A    between atoms: C_4  and  C_6 
REMARK    4  A    between atoms: C_4  and  O_5 
REMARK    5  A    between atoms: C_6  and  C_7 
ROOT
HETATM    1  C   LIG     1      18.101  38.938  21.738  1.00  0.00     0.118 C 
ENDROOT
BRANCH   1   2
HETATM    2  C   LIG     1      17.168  38.200  22.723  1.00  0.00     0.031 C 
BRANCH   2   3
HETATM    3  C   LIG     1      17.700  38.202  24.166  1.00  0.00    -0.002 C 
HETATM    4  C   LIG     1      17.275  36.940  24.910  1.00  0.00     0.005 C 
ENDBRANCH   2   3
ENDBRANCH   1   2
BRANCH   1   5
HETATM    5  C   LIG     1      18.462  38.073  20.510  1.00  0.00     0.031 C 
BRANCH   5   6
HETATM    6  C   LIG     1      19.106  38.910  19.396  1.00  0.00    -0.002 C 
HETATM    7  C   LIG     1      20.616  38.694  19.346  1.00  0.00     0.005 C 
ENDBRANCH   5   6
ENDBRANCH   1   5
BRANCH   1   8
HETATM    8  O   LIG     1      19.265  39.351  22.411  1.00  0.00    -0.396 OA
HETATM    9  H   LIG     1      19.125  39.187  23.380  1.00  0.00     0.210 HD
ENDBRANCH   1   8
TORSDOF 5
ENDMDL
MODEL 12
REMARK VINA RESULT:      -4.2      2.378      2.961
REMARK  5 active torsions:
REMARK  status: ('A' for Active; 'I' for Inactive)
REMARK    1  A    between atoms: C_2  and  C_3 
REMARK    2  A    between atoms: C_3  and  C_4 
REMARK    3  A    between atoms: C_4  and  C_6 
REMARK    4  A    between atoms: C_4  and  O_5 
REMARK    5  A    between atoms: C_6  and  C_7 
ROOT
HETATM    1  C   LIG     1      17.330  36.374  23.083  1.00  0.00     0.118 C 
ENDROOT
BRANCH   1   2
HETATM    2  C   LIG     1      16.739  37.308  24.162  1.00  0.00     0.031 C 
BRANCH   2   3
HETATM    3  C   LIG     1      17.809  37.886  25.103  1.00  0.00    -0.002 C 
HETATM    4  C   LIG     1      18.356  36.813  26.038  1.00  0.00     0.005 C 
ENDBRANCH   2   3
ENDBRANCH   1   2
BRANCH   1   5
HETATM    5  C   LIG     1      16.970  36.830  21.651  1.00  0.00     0.031 C 
BRANCH   5   6
HETATM    6  C   LIG     1      18.093  37.666  21.023  1.00  0.00    -0.002 C 
HETATM    7  C   LIG     1      18.732  36.935  19.846  1.00  0.00     0.005 C 
ENDBRANCH   5   6
ENDBRANCH   1   5
BRANCH   1   8
HETATM    8  O   LIG     1      16.891  35.057  23.307  1.00  0.00    -0.396 OA
HETATM    9  H   LIG     1      16.741  34.952  24.283  1.00  0.00     0.210 HD
ENDBRANCH   1   8
TORSDOF 5
ENDMDL
MODEL 13
REMARK VINA RESULT:      -4.1      4.211      5.091
REMARK  5 active torsions:
REMARK  status: ('A' for Active; 'I' for Inactive)
REMARK    1  A    between atoms: C_2  and  C_3 
REMARK    2  A    between atoms: C_3  and  C_4 
REMARK    3  A    between atoms: C_4  and  C_6 
REMARK    4  A    between atoms: C_4  and  O_5 
REMARK    5  A    between atoms: C_6  and  C_7 
ROOT
HETATM    1  C   LIG     1      18.336  36.718  20.225  1.00  0.00     0.118 C 
ENDROOT
BRANCH   1   2
HETATM    2  C   LIG     1      17.440  35.824  21.111  1.00  0.00     0.031 C 
BRANCH   2   3
HETATM    3  C   LIG     1      16.137  35.405  20.411  1.00  0.00    -0.002 C 
HETATM    4  C   LIG     1      14.922  35.714  21.281  1.00  0.00     0.005 C 
ENDBRANCH   2   3
ENDBRANCH   1   2
BRANCH   1   5
HETATM    5  C   LIG     1      18.214  38.215  20.588  1.00  0.00     0.031 C 
BRANCH   5   6
HETATM    6  C   LIG     1      18.132  38.425  22.107  1.00  0.00    -0.002 C 
HETATM    7  C   LIG     1      16.798  39.053  22.504  1.00  0.00     0.005 C 
ENDBRANCH   5   6
ENDBRANCH   1   5
BRANCH   1   8
HETATM    8  O   LIG     1      18.016  36.511  18.871  1.00  0.00    -0.396 OA
HETATM    9  H   LIG     1      18.137  37.376  18.399  1.00  0.00     0.210 HD
ENDBRANCH   1   8
TORSDOF 5
ENDMDL
MODEL 14
REMARK VINA RESULT:      -4.0      4.040      5.888
REMARK  5 active torsions:
REMARK  status: ('A' for Active; 'I' for Inactive)
REMARK    1  A    between atoms: C_2  and  C_3 
REMARK    2  A    between atoms: C_3  and  C_4 
REMARK    3  A    between atoms: C_4  and  C_6 
REMARK    4  A    between atoms: C_4  and  O_5 
REMARK    5  A    between atoms: C_6  and  C_7 
ROOT
HETATM    1  C   LIG     1      16.150  34.835  20.724  1.00  0.00     0.118 C 
ENDROOT
BRANCH   1   2
HETATM    2  C   LIG     1      15.164  33.647  20.768  1.00  0.00     0.031 C 
BRANCH   2   3
HETATM    3  C   LIG     1      15.444  32.597  19.679  1.00  0.00    -0.002 C 
HETATM    4  C   LIG     1      14.848  31.244  20.055  1.00  0.00     0.005 C 
ENDBRANCH   2   3
ENDBRANCH   1   2
BRANCH   1   5
HETATM    5  C   LIG     1      15.686  36.017  21.604  1.00  0.00     0.031 C 
BRANCH   5   6
HETATM    6  C   LIG     1      16.838  36.584  22.445  1.00  0.00    -0.002 C 
HETATM    7  C   LIG     1      17.456  37.809  21.776  1.00  0.00     0.005 C 
ENDBRANCH   5   6
ENDBRANCH   1   5
BRANCH   1   8
HETATM    8  O   LIG     1      16.327  35.252  19.392  1.00  0.00    -0.396 OA
HETATM    9  H   LIG     1      16.198  34.458  18.809  1.00  0.00     0.210 HD
ENDBRANCH   1   8
TORSDOF 5
ENDMDL
MODEL 15
REMARK VINA RESULT:      -4.0      8.122     10.341
REMARK  5 active torsions:
REMARK  status: ('A' for Active; 'I' for Inactive)
REMARK    1  A    between atoms: C_2  and  C_3 
REMARK    2  A    between atoms: C_3  and  C_4 
REMARK    3  A    between atoms: C_4  and  C_6 
REMARK    4  A    between atoms: C_4  and  O_5 
REMARK    5  A    between atoms: C_6  and  C_7 
ROOT
HETATM    1  C   LIG     1      14.211  32.329  17.121  1.00  0.00     0.118 C 
ENDROOT
BRANCH   1   2
HETATM    2  C   LIG     1      14.620  31.705  15.768  1.00  0.00     0.031 C 
BRANCH   2   3
HETATM    3  C   LIG     1      13.764  30.486  15.389  1.00  0.00    -0.002 C 
HETATM    4  C   LIG     1      14.374  29.731  14.212  1.00  0.00     0.005 C 
ENDBRANCH   2   3
ENDBRANCH   1   2
BRANCH   1   5
HETATM    5  C   LIG     1      15.428  32.603  18.034  1.00  0.00     0.031 C 
BRANCH   5   6
HETATM    6  C   LIG     1      15.099  32.342  19.510  1.00  0.00    -0.002 C 
HETATM    7  C   LIG     1      15.571  33.495  20.392  1.00  0.00     0.005 C 
ENDBRANCH   5   6
ENDBRANCH   1   5
BRANCH   1   8
HETATM    8  O   LIG     1      13.288  31.487  17.768  1.00  0.00    -0.396 OA
HETATM    9  H   LIG     1      12.886  32.002  18.515  1.00  0.00     0.210 HD
ENDBRANCH   1   8
TORSDOF 5
ENDMDL
MODEL 16
REMARK VINA RESULT:      -4.0      3.459      4.744
REMARK  5 active torsions:
REMARK  status: ('A' for Active; 'I' for Inactive)
REMARK    1  A    between atoms: C_2  and  C_3 
REMARK    2  A    between atoms: C_3  and  C_4 
REMARK    3  A    between atoms: C_4  and  C_6 
REMARK    4  A    between atoms: C_4  and  O_5 
REMARK    5  A    between atoms: C_6  and  C_7 
ROOT
HETATM    1  C   LIG     1      16.855  36.127  22.023  1.00  0.00     0.118 C 
ENDROOT
BRANCH   1   2
HETATM    2  C   LIG     1      17.641  37.238  21.292  1.00  0.00     0.031 C 
BRANCH   2   3
HETATM    3  C   LIG     1      18.373  36.726  20.039  1.00  0.00    -0.002 C 
HETATM    4  C   LIG     1      19.355  37.768  19.514  1.00  0.00     0.005 C 
ENDBRANCH   2   3
ENDBRANCH   1   2
BRANCH   1   5
HETATM    5  C   LIG     1      15.360  36.110  21.630  1.00  0.00     0.031 C 
BRANCH   5   6
HETATM    6  C   LIG     1      14.857  34.681  21.378  1.00  0.00    -0.002 C 
HETATM    7  C   LIG     1      15.827  33.905  20.491  1.00  0.00     0.005 C 
ENDBRANCH   5   6
ENDBRANCH   1   5
BRANCH   1   8
HETATM    8  O   LIG     1      16.997  36.286  23.413  1.00  0.00    -0.396 OA
HETATM    9  H   LIG     1      16.913  35.389  23.828  1.00  0.00     0.210 HD
ENDBRANCH   1   8
TORSDOF 5
ENDMDL
MODEL 17
REMARK VINA RESULT:      -4.0      4.536      6.390
REMARK  5 active torsions:
REMARK  status: ('A' for Active; 'I' for Inactive)
REMARK    1  A    between atoms: C_2  and  C_3 
REMARK    2  A    between atoms: C_3  and  C_4 
REMARK    3  A    between atoms: C_4  and  C_6 
REMARK    4  A    between atoms: C_4  and  O_5 
REMARK    5  A    between atoms: C_6  and  C_7 
ROOT
HETATM    1  C   LIG     1      19.096  38.545  20.367  1.00  0.00     0.118 C 
ENDROOT
BRANCH   1   2
HETATM    2  C   LIG     1      18.935  38.237  18.862  1.00  0.00     0.031 C 
BRANCH   2   3
HETATM    3  C   LIG     1      19.502  39.346  17.961  1.00  0.00    -0.002 C 
HETATM    4  C   LIG     1      18.607  39.577  16.746  1.00  0.00     0.005 C 
ENDBRANCH   2   3
ENDBRANCH   1   2
BRANCH   1   5
HETATM    5  C   LIG     1      17.971  37.915  21.219  1.00  0.00     0.031 C 
BRANCH   5   6
HETATM    6  C   LIG     1      17.427  38.904  22.260  1.00  0.00    -0.002 C 
HETATM    7  C   LIG     1      17.449  38.297  23.660  1.00  0.00     0.005 C 
ENDBRANCH   5   6
ENDBRANCH   1   5
BRANCH   1   8
HETATM    8  O   LIG     1      19.140  39.938  20.560  1.00  0.00    -0.396 OA
HETATM    9  H   LIG     1      19.248  40.361  19.669  1.00  0.00     0.210 HD
ENDBRANCH   1   8
TORSDOF 5
ENDMDL
MODEL 18
REMARK VINA RESULT:      -3.9      4.324      5.490
REMARK  5 active torsions:
REMARK  status: ('A' for Active; 'I' for Inactive)
REMARK    1  A    between atoms: C_2  and  C_3 
REMARK    2  A    between atoms: C_3  and  C_4 
REMARK    3  A    between atoms: C_4  and  C_6 
REMARK    4  A    between atoms: C_4  and  O_5 
REMARK    5  A    between atoms: C_6  and  C_7 
ROOT
HETATM    1  C   LIG     1      18.453  36.816  20.189  1.00  0.00     0.118 C 
ENDROOT
BRANCH   1   2
HETATM    2  C   LIG     1      18.168  37.979  21.164  1.00  0.00     0.031 C 
BRANCH   2   3
HETATM    3  C   LIG     1      17.097  37.632  22.211  1.00  0.00    -0.002 C 
HETATM    4  C   LIG     1      16.384  38.888  22.704  1.00  0.00     0.005 C 
ENDBRANCH   2   3
ENDBRANCH   1   2
BRANCH   1   5
HETATM    5  C   LIG     1      18.760  37.310  18.757  1.00  0.00     0.031 C 
BRANCH   5   6
HETATM    6  C   LIG     1      19.082  38.811  18.733  1.00  0.00    -0.002 C 
HETATM    7  C   LIG     1      18.798  39.413  17.360  1.00  0.00     0.005 C 
ENDBRANCH   5   6
ENDBRANCH   1   5
BRANCH   1   8
HETATM    8  O   LIG     1      17.361  35.929  20.181  1.00  0.00    -0.396 OA
HETATM    9  H   LIG     1      17.280  35.561  19.262  1.00  0.00     0.210 HD
ENDBRANCH   1   8
TORSDOF 5
ENDMDL
MODEL 19
REMARK VINA RESULT:      -3.9      6.421      8.640
REMARK  5 active torsions:
REMARK  status: ('A' for Active; 'I' for Inactive)
REMARK    1  A    between atoms: C_2  and  C_3 
REMARK    2  A    between atoms: C_3  and  C_4 
REMARK    3  A    between atoms: C_4  and  C_6 
REMARK    4  A    between atoms: C_4  and  O_5 
REMARK    5  A    between atoms: C_6  and  C_7 
ROOT
HETATM    1  C   LIG     1      15.315  32.894  18.462  1.00  0.00     0.118 C 
ENDROOT
BRANCH   1   2
HETATM    2  C   LIG     1      14.337  31.735  18.169  1.00  0.00     0.031 C 
BRANCH   2   3
HETATM    3  C   LIG     1      13.407  32.025  16.979  1.00  0.00    -0.002 C 
HETATM    4  C   LIG     1      13.090  30.748  16.207  1.00  0.00     0.005 C 
ENDBRANCH   2   3
ENDBRANCH   1   2
BRANCH   1   5
HETATM    5  C   LIG     1      15.477  33.157  19.976  1.00  0.00     0.031 C 
BRANCH   5   6
HETATM    6  C   LIG     1      15.725  34.644  20.269  1.00  0.00    -0.002 C 
HETATM    7  C   LIG     1      16.453  34.829  21.597  1.00  0.00     0.005 C 
ENDBRANCH   5   6
ENDBRANCH   1   5
BRANCH   1   8
HETATM    8  O   LIG     1      14.879  34.057  17.802  1.00  0.00    -0.396 OA
HETATM    9  H   LIG     1      15.388  34.823  18.177  1.00  0.00     0.210 HD
ENDBRANCH   1   8
TORSDOF 5
ENDMDL
MODEL 20
REMARK VINA RESULT:      -3.8      6.196      7.956
REMARK  5 active torsions:
REMARK  status: ('A' for Active; 'I' for Inactive)
REMARK    1  A    between atoms: C_2  and  C_3 
REMARK    2  A    between atoms: C_3  and  C_4 
REMARK    3  A    between atoms: C_4  and  C_6 
REMARK    4  A    between atoms: C_4  and  O_5 
REMARK    5  A    between atoms: C_6  and  C_7 
ROOT
HETATM    1  C   LIG     1      15.325  32.368  19.288  1.00  0.00     0.118 C 
ENDROOT
BRANCH   1   2
HETATM    2  C   LIG     1      15.493  33.436  20.391  1.00  0.00     0.031 C 
BRANCH   2   3
HETATM    3  C   LIG     1      15.748  34.844  19.826  1.00  0.00    -0.002 C 
HETATM    4  C   LIG     1      16.721  35.621  20.706  1.00  0.00     0.005 C 
ENDBRANCH   2   3
ENDBRANCH   1   2
BRANCH   1   5
HETATM    5  C   LIG     1      15.077  32.993  17.897  1.00  0.00     0.031 C 
BRANCH   5   6
HETATM    6  C   LIG     1      14.344  32.022  16.961  1.00  0.00    -0.002 C 
HETATM    7  C   LIG     1      15.124  31.811  15.666  1.00  0.00     0.005 C 
ENDBRANCH   5   6
ENDBRANCH   1   5
BRANCH   1   8
HETATM    8  O   LIG     1      14.275  31.497  19.632  1.00  0.00    -0.396 OA
HETATM    9  H   LIG     1      13.922  31.107  18.791  1.00  0.00     0.210 HD
ENDBRANCH   1   8
TORSDOF 5
ENDMDL
