REMARK  5 active torsions:
REMARK  status: ('A' for Active; 'I' for Inactive)
REMARK    1  A    between atoms: C_2  and  C_3 
REMARK    2  A    between atoms: C_3  and  C_4 
REMARK    3  A    between atoms: C_4  and  C_6 
REMARK    4  A    between atoms: C_4  and  O_5 
REMARK    5  A    between atoms: C_6  and  C_7 
ROOT
HETATM    1  C   LIG     1      -0.157  -0.887  -0.326  1.00  0.00     0.118 C 
ENDROOT
BRANCH   1   2
HETATM    2  C   LIG     1       1.349  -0.847   0.015  1.00  0.00     0.031 C 
BRANCH   2   3
HETATM    3  C   LIG     1       2.050   0.412  -0.522  1.00  0.00    -0.002 C 
HETATM    4  C   LIG     1       3.556   0.343  -0.289  1.00  0.00     0.005 C 
ENDBRANCH   2   3
ENDBRANCH   1   2
BRANCH   1   5
HETATM    5  C   LIG     1      -0.972   0.141   0.491  1.00  0.00     0.031 C 
BRANCH   5   6
HETATM    6  C   LIG     1      -2.465   0.090   0.138  1.00  0.00    -0.002 C 
HETATM    7  C   LIG     1      -3.251   1.142   0.916  1.00  0.00     0.005 C 
ENDBRANCH   5   6
ENDBRANCH   1   5
BRANCH   1   8
HETATM    8  O   LIG     1      -0.653  -2.187  -0.118  1.00  0.00    -0.396 OA
HETATM    9  H   LIG     1      -0.546  -2.398   0.846  1.00  0.00     0.210 HD
ENDBRANCH   1   8
TORSDOF 5
