MODEL 1
REMARK VINA RESULT:      -5.4      0.000      0.000
REMARK  5 active torsions:
REMARK  status: ('A' for Active; 'I' for Inactive)
REMARK    1  A    between atoms: C_2  and  C_3 
REMARK    2  A    between atoms: C_3  and  C_5 
REMARK    3  A    between atoms: C_3  and  O_4 
REMARK    4  A    between atoms: C_5  and  C_6 
REMARK    5  A    between atoms: C_6  and  C_7 
ROOT
HETATM    1  C   LIG     1      16.669  38.052  23.613  1.00  0.00     0.117 C 
ENDROOT
BRANCH   1   2
HETATM    2  C   LIG     1      17.191  37.933  22.168  1.00  0.00     0.027 C 
HETATM    3  C   LIG     1      18.204  39.028  21.834  1.00  0.00     0.007 C 
ENDBRANCH   1   2
BRANCH   1   4
HETATM    4  C   LIG     1      17.177  36.905  24.508  1.00  0.00     0.032 C 
BRANCH   4   5
HETATM    5  C   LIG     1      17.702  37.379  25.877  1.00  0.00     0.002 C 
BRANCH   5   6
HETATM    6  C   LIG     1      18.403  36.257  26.659  1.00  0.00    -0.004 C 
HETATM    7  C   LIG     1      18.008  34.863  26.173  1.00  0.00     0.005 C 
ENDBRANCH   5   6
ENDBRANCH   4   5
ENDBRANCH   1   4
BRANCH   1   8
HETATM    8  O   LIG     1      15.263  38.071  23.626  1.00  0.00    -0.396 OA
HETATM    9  H   LIG     1      14.977  38.002  24.573  1.00  0.00     0.210 HD
ENDBRANCH   1   8
TORSDOF 5
ENDMDL
MODEL 2
REMARK VINA RESULT:      -5.3      1.353      4.384
REMARK  5 active torsions:
REMARK  status: ('A' for Active; 'I' for Inactive)
REMARK    1  A    between atoms: C_2  and  C_3 
REMARK    2  A    between atoms: C_3  and  C_5 
REMARK    3  A    between atoms: C_3  and  O_4 
REMARK    4  A    between atoms: C_5  and  C_6 
REMARK    5  A    between atoms: C_6  and  C_7 
ROOT
HETATM    1  C   LIG     1      17.279  37.448  25.413  1.00  0.00     0.117 C 
ENDROOT
BRANCH   1   2
HETATM    2  C   LIG     1      18.479  36.724  26.055  1.00  0.00     0.027 C 
HETATM    3  C   LIG     1      18.196  35.239  26.280  1.00  0.00     0.007 C 
ENDBRANCH   1   2
BRANCH   1   4
HETATM    4  C   LIG     1      17.283  37.322  23.876  1.00  0.00     0.032 C 
BRANCH   4   5
HETATM    5  C   LIG     1      17.850  38.563  23.159  1.00  0.00     0.002 C 
BRANCH   5   6
HETATM    6  C   LIG     1      17.722  38.467  21.631  1.00  0.00    -0.004 C 
HETATM    7  C   LIG     1      18.764  39.311  20.897  1.00  0.00     0.005 C 
ENDBRANCH   5   6
ENDBRANCH   4   5
ENDBRANCH   1   4
BRANCH   1   8
HETATM    8  O   LIG     1      17.277  38.807  25.773  1.00  0.00    -0.396 OA
HETATM    9  H   LIG     1      17.892  39.276  25.152  1.00  0.00     0.210 HD
ENDBRANCH   1   8
TORSDOF 5
ENDMDL
MODEL 3
REMARK VINA RESULT:      -5.1      1.248      4.456
REMARK  5 active torsions:
REMARK  status: ('A' for Active; 'I' for Inactive)
REMARK    1  A    between atoms: C_2  and  C_3 
REMARK    2  A    between atoms: C_3  and  C_5 
REMARK    3  A    between atoms: C_3  and  O_4 
REMARK    4  A    between atoms: C_5  and  C_6 
REMARK    5  A    between atoms: C_6  and  C_7 
ROOT
HETATM    1  C   LIG     1      16.678  38.023  23.601  1.00  0.00     0.117 C 
ENDROOT
BRANCH   1   2
HETATM    2  C   LIG     1      17.345  38.215  24.977  1.00  0.00     0.027 C 
HETATM    3  C   LIG     1      17.936  36.910  25.512  1.00  0.00     0.007 C 
ENDBRANCH   1   2
BRANCH   1   4
HETATM    4  C   LIG     1      17.098  39.116  22.597  1.00  0.00     0.032 C 
BRANCH   4   5
HETATM    5  C   LIG     1      18.511  38.908  22.019  1.00  0.00     0.002 C 
BRANCH   5   6
HETATM    6  C   LIG     1      18.604  39.310  20.539  1.00  0.00    -0.004 C 
HETATM    7  C   LIG     1      19.942  38.928  19.906  1.00  0.00     0.005 C 
ENDBRANCH   5   6
ENDBRANCH   4   5
ENDBRANCH   1   4
BRANCH   1   8
HETATM    8  O   LIG     1      15.278  38.018  23.731  1.00  0.00    -0.396 OA
HETATM    9  H   LIG     1      14.925  38.730  23.136  1.00  0.00     0.210 HD
ENDBRANCH   1   8
TORSDOF 5
ENDMDL
MODEL 4
REMARK VINA RESULT:      -4.9      1.797      2.196
REMARK  5 active torsions:
REMARK  status: ('A' for Active; 'I' for Inactive)
REMARK    1  A    between atoms: C_2  and  C_3 
REMARK    2  A    between atoms: C_3  and  C_5 
REMARK    3  A    between atoms: C_3  and  O_4 
REMARK    4  A    between atoms: C_5  and  C_6 
REMARK    5  A    between atoms: C_6  and  C_7 
ROOT
HETATM    1  C   LIG     1      16.718  36.233  22.764  1.00  0.00     0.117 C 
ENDROOT
BRANCH   1   2
HETATM    2  C   LIG     1      17.407  37.273  21.859  1.00  0.00     0.027 C 
HETATM    3  C   LIG     1      17.933  36.647  20.568  1.00  0.00     0.007 C 
ENDBRANCH   1   2
BRANCH   1   4
HETATM    4  C   LIG     1      17.212  36.317  24.222  1.00  0.00     0.032 C 
BRANCH   4   5
HETATM    5  C   LIG     1      17.325  34.945  24.913  1.00  0.00     0.002 C 
BRANCH   5   6
HETATM    6  C   LIG     1      18.128  35.011  26.222  1.00  0.00    -0.004 C 
HETATM    7  C   LIG     1      18.442  36.444  26.650  1.00  0.00     0.005 C 
ENDBRANCH   5   6
ENDBRANCH   4   5
ENDBRANCH   1   4
BRANCH   1   8
HETATM    8  O   LIG     1      16.934  34.934  22.269  1.00  0.00    -0.396 OA
HETATM    9  H   LIG     1      17.909  34.838  22.113  1.00  0.00     0.210 HD
ENDBRANCH   1   8
TORSDOF 5
ENDMDL
MODEL 5
REMARK VINA RESULT:      -4.8      2.508      4.196
REMARK  5 active torsions:
REMARK  status: ('A' for Active; 'I' for Inactive)
REMARK    1  A    between atoms: C_2  and  C_3 
REMARK    2  A    between atoms: C_3  and  C_5 
REMARK    3  A    between atoms: C_3  and  O_4 
REMARK    4  A    between atoms: C_5  and  C_6 
REMARK    5  A    between atoms: C_6  and  C_7 
ROOT
HETATM    1  C   LIG     1      16.371  37.849  22.477  1.00  0.00     0.117 C 
ENDROOT
BRANCH   1   2
HETATM    2  C   LIG     1      16.846  36.404  22.729  1.00  0.00     0.027 C 
HETATM    3  C   LIG     1      17.114  35.656  21.424  1.00  0.00     0.007 C 
ENDBRANCH   1   2
BRANCH   1   4
HETATM    4  C   LIG     1      17.348  38.889  23.061  1.00  0.00     0.032 C 
BRANCH   4   5
HETATM    5  C   LIG     1      18.672  38.994  22.280  1.00  0.00     0.002 C 
BRANCH   5   6
HETATM    6  C   LIG     1      18.451  39.187  20.772  1.00  0.00    -0.004 C 
HETATM    7  C   LIG     1      19.699  38.877  19.947  1.00  0.00     0.005 C 
ENDBRANCH   5   6
ENDBRANCH   4   5
ENDBRANCH   1   4
BRANCH   1   8
HETATM    8  O   LIG     1      15.091  38.047  23.026  1.00  0.00    -0.396 OA
HETATM    9  H   LIG     1      14.524  38.441  22.314  1.00  0.00     0.210 HD
ENDBRANCH   1   8
TORSDOF 5
ENDMDL
MODEL 6
REMARK VINA RESULT:      -4.4     10.621     11.977
REMARK  5 active torsions:
REMARK  status: ('A' for Active; 'I' for Inactive)
REMARK    1  A    between atoms: C_2  and  C_3 
REMARK    2  A    between atoms: C_3  and  C_5 
REMARK    3  A    between atoms: C_3  and  O_4 
REMARK    4  A    between atoms: C_5  and  C_6 
REMARK    5  A    between atoms: C_6  and  C_7 
ROOT
HETATM    1  C   LIG     1      16.014  32.058  13.737  1.00  0.00     0.117 C 
ENDROOT
BRANCH   1   2
HETATM    2  C   LIG     1      16.510  32.100  15.196  1.00  0.00     0.027 C 
HETATM    3  C   LIG     1      15.779  33.164  16.016  1.00  0.00     0.007 C 
ENDBRANCH   1   2
BRANCH   1   4
HETATM    4  C   LIG     1      15.368  30.703  13.385  1.00  0.00     0.032 C 
BRANCH   4   5
HETATM    5  C   LIG     1      14.909  29.902  14.618  1.00  0.00     0.002 C 
BRANCH   5   6
HETATM    6  C   LIG     1      13.389  29.973  14.833  1.00  0.00    -0.004 C 
HETATM    7  C   LIG     1      13.007  30.727  16.105  1.00  0.00     0.005 C 
ENDBRANCH   5   6
ENDBRANCH   4   5
ENDBRANCH   1   4
BRANCH   1   8
HETATM    8  O   LIG     1      17.075  32.316  12.851  1.00  0.00    -0.396 OA
HETATM    9  H   LIG     1      16.730  32.178  11.931  1.00  0.00     0.210 HD
ENDBRANCH   1   8
TORSDOF 5
ENDMDL
MODEL 7
REMARK VINA RESULT:      -4.4      1.976      4.515
REMARK  5 active torsions:
REMARK  status: ('A' for Active; 'I' for Inactive)
REMARK    1  A    between atoms: C_2  and  C_3 
REMARK    2  A    between atoms: C_3  and  C_5 
REMARK    3  A    between atoms: C_3  and  O_4 
REMARK    4  A    between atoms: C_5  and  C_6 
REMARK    5  A    between atoms: C_6  and  C_7 
ROOT
HETATM    1  C   LIG     1      16.966  35.705  24.534  1.00  0.00     0.117 C 
ENDROOT
BRANCH   1   2
HETATM    2  C   LIG     1      17.629  34.941  25.697  1.00  0.00     0.027 C 
HETATM    3  C   LIG     1      18.406  35.875  26.624  1.00  0.00     0.007 C 
ENDBRANCH   1   2
BRANCH   1   4
HETATM    4  C   LIG     1      17.207  35.013  23.177  1.00  0.00     0.032 C 
BRANCH   4   5
HETATM    5  C   LIG     1      16.214  35.447  22.081  1.00  0.00     0.002 C 
BRANCH   5   6
HETATM    6  C   LIG     1      16.911  35.756  20.747  1.00  0.00    -0.004 C 
HETATM    7  C   LIG     1      17.916  36.901  20.857  1.00  0.00     0.005 C 
ENDBRANCH   5   6
ENDBRANCH   4   5
ENDBRANCH   1   4
BRANCH   1   8
HETATM    8  O   LIG     1      17.445  37.026  24.479  1.00  0.00    -0.396 OA
HETATM    9  H   LIG     1      18.049  37.087  23.695  1.00  0.00     0.210 HD
ENDBRANCH   1   8
TORSDOF 5
ENDMDL
MODEL 8
REMARK VINA RESULT:      -4.4      9.256     10.695
REMARK  5 active torsions:
REMARK  status: ('A' for Active; 'I' for Inactive)
REMARK    1  A    between atoms: C_2  and  C_3 
REMARK    2  A    between atoms: C_3  and  C_5 
REMARK    3  A    between atoms: C_3  and  O_4 
REMARK    4  A    between atoms: C_5  and  C_6 
REMARK    5  A    between atoms: C_6  and  C_7 
ROOT
HETATM    1  C   LIG     1      14.170  32.476  17.516  1.00  0.00     0.117 C 
ENDROOT
BRANCH   1   2
HETATM    2  C   LIG     1      15.260  32.360  18.600  1.00  0.00     0.027 C 
HETATM    3  C   LIG     1      14.807  31.493  19.774  1.00  0.00     0.007 C 
ENDBRANCH   1   2
BRANCH   1   4
HETATM    4  C   LIG     1      14.388  31.473  16.367  1.00  0.00     0.032 C 
BRANCH   4   5
HETATM    5  C   LIG     1      13.129  30.658  16.015  1.00  0.00     0.002 C 
BRANCH   5   6
HETATM    6  C   LIG     1      13.312  29.811  14.746  1.00  0.00    -0.004 C 
HETATM    7  C   LIG     1      14.675  30.020  14.089  1.00  0.00     0.005 C 
ENDBRANCH   5   6
ENDBRANCH   4   5
ENDBRANCH   1   4
BRANCH   1   8
HETATM    8  O   LIG     1      14.132  33.783  16.998  1.00  0.00    -0.396 OA
HETATM    9  H   LIG     1      13.721  34.362  17.691  1.00  0.00     0.210 HD
ENDBRANCH   1   8
TORSDOF 5
ENDMDL
MODEL 9
REMARK VINA RESULT:      -4.3      9.704     11.045
REMARK  5 active torsions:
REMARK  status: ('A' for Active; 'I' for Inactive)
REMARK    1  A    between atoms: C_2  and  C_3 
REMARK    2  A    between atoms: C_3  and  C_5 
REMARK    3  A    between atoms: C_3  and  O_4 
REMARK    4  A    between atoms: C_5  and  C_6 
REMARK    5  A    between atoms: C_6  and  C_7 
ROOT
HETATM    1  C   LIG     1      14.205  31.650  17.216  1.00  0.00     0.117 C 
ENDROOT
BRANCH   1   2
HETATM    2  C   LIG     1      14.676  33.100  16.984  1.00  0.00     0.027 C 
HETATM    3  C   LIG     1      15.840  33.170  15.996  1.00  0.00     0.007 C 
ENDBRANCH   1   2
BRANCH   1   4
HETATM    4  C   LIG     1      13.001  31.284  16.325  1.00  0.00     0.032 C 
BRANCH   4   5
HETATM    5  C   LIG     1      13.278  30.104  15.373  1.00  0.00     0.002 C 
BRANCH   5   6
HETATM    6  C   LIG     1      14.428  30.394  14.397  1.00  0.00    -0.004 C 
HETATM    7  C   LIG     1      15.251  29.149  14.067  1.00  0.00     0.005 C 
ENDBRANCH   5   6
ENDBRANCH   4   5
ENDBRANCH   1   4
BRANCH   1   8
HETATM    8  O   LIG     1      13.865  31.456  18.567  1.00  0.00    -0.396 OA
HETATM    9  H   LIG     1      13.204  32.155  18.807  1.00  0.00     0.210 HD
ENDBRANCH   1   8
TORSDOF 5
ENDMDL
MODEL 10
REMARK VINA RESULT:      -4.2      4.451      5.601
REMARK  5 active torsions:
REMARK  status: ('A' for Active; 'I' for Inactive)
REMARK    1  A    between atoms: C_2  and  C_3 
REMARK    2  A    between atoms: C_3  and  C_5 
REMARK    3  A    between atoms: C_3  and  O_4 
REMARK    4  A    between atoms: C_5  and  C_6 
REMARK    5  A    between atoms: C_6  and  C_7 
ROOT
HETATM    1  C   LIG     1      16.550  36.003  21.199  1.00  0.00     0.117 C 
ENDROOT
BRANCH   1   2
HETATM    2  C   LIG     1      16.871  35.225  22.490  1.00  0.00     0.027 C 
HETATM    3  C   LIG     1      17.171  36.160  23.661  1.00  0.00     0.007 C 
ENDBRANCH   1   2
BRANCH   1   4
HETATM    4  C   LIG     1      15.986  35.086  20.096  1.00  0.00     0.032 C 
BRANCH   4   5
HETATM    5  C   LIG     1      15.532  33.708  20.614  1.00  0.00     0.002 C 
BRANCH   5   6
HETATM    6  C   LIG     1      15.393  32.673  19.487  1.00  0.00    -0.004 C 
HETATM    7  C   LIG     1      14.827  31.341  19.975  1.00  0.00     0.005 C 
ENDBRANCH   5   6
ENDBRANCH   4   5
ENDBRANCH   1   4
BRANCH   1   8
HETATM    8  O   LIG     1      17.701  36.657  20.722  1.00  0.00    -0.396 OA
HETATM    9  H   LIG     1      18.450  36.009  20.775  1.00  0.00     0.210 HD
ENDBRANCH   1   8
TORSDOF 5
ENDMDL
MODEL 11
REMARK VINA RESULT:      -4.2      9.188     10.501
REMARK  5 active torsions:
REMARK  status: ('A' for Active; 'I' for Inactive)
REMARK    1  A    between atoms: C_2  and  C_3 
REMARK    2  A    between atoms: C_3  and  C_5 
REMARK    3  A    between atoms: C_3  and  O_4 
REMARK    4  A    between atoms: C_5  and  C_6 
REMARK    5  A    between atoms: C_6  and  C_7 
ROOT
HETATM    1  C   LIG     1      15.386  33.150  16.649  1.00  0.00     0.117 C 
ENDROOT
BRANCH   1   2
HETATM    2  C   LIG     1      16.155  32.449  15.511  1.00  0.00     0.027 C 
HETATM    3  C   LIG     1      17.217  33.358  14.894  1.00  0.00     0.007 C 
ENDBRANCH   1   2
BRANCH   1   4
HETATM    4  C   LIG     1      13.952  32.607  16.799  1.00  0.00     0.032 C 
BRANCH   4   5
HETATM    5  C   LIG     1      13.872  31.068  16.781  1.00  0.00     0.002 C 
BRANCH   5   6
HETATM    6  C   LIG     1      13.004  30.538  15.629  1.00  0.00    -0.004 C 
HETATM    7  C   LIG     1      13.816  29.793  14.572  1.00  0.00     0.005 C 
ENDBRANCH   5   6
ENDBRANCH   4   5
ENDBRANCH   1   4
BRANCH   1   8
HETATM    8  O   LIG     1      15.342  34.538  16.426  1.00  0.00    -0.396 OA
HETATM    9  H   LIG     1      16.073  34.758  15.793  1.00  0.00     0.210 HD
ENDBRANCH   1   8
TORSDOF 5
ENDMDL
MODEL 12
REMARK VINA RESULT:      -4.1      2.188      4.227
REMARK  5 active torsions:
REMARK  status: ('A' for Active; 'I' for Inactive)
REMARK    1  A    between atoms: C_2  and  C_3 
REMARK    2  A    between atoms: C_3  and  C_5 
REMARK    3  A    between atoms: C_3  and  O_4 
REMARK    4  A    between atoms: C_5  and  C_6 
REMARK    5  A    between atoms: C_6  and  C_7 
ROOT
HETATM    1  C   LIG     1      16.905  36.194  21.930  1.00  0.00     0.117 C 
ENDROOT
BRANCH   1   2
HETATM    2  C   LIG     1      17.000  34.996  22.896  1.00  0.00     0.027 C 
HETATM    3  C   LIG     1      17.232  35.444  24.339  1.00  0.00     0.007 C 
ENDBRANCH   1   2
BRANCH   1   4
HETATM    4  C   LIG     1      16.008  37.317  22.489  1.00  0.00     0.032 C 
BRANCH   4   5
HETATM    5  C   LIG     1      16.716  38.682  22.579  1.00  0.00     0.002 C 
BRANCH   5   6
HETATM    6  C   LIG     1      17.712  38.904  21.430  1.00  0.00    -0.004 C 
HETATM    7  C   LIG     1      19.127  39.199  21.924  1.00  0.00     0.005 C 
ENDBRANCH   5   6
ENDBRANCH   4   5
ENDBRANCH   1   4
BRANCH   1   8
HETATM    8  O   LIG     1      16.413  35.777  20.680  1.00  0.00    -0.396 OA
HETATM    9  H   LIG     1      17.174  35.796  20.045  1.00  0.00     0.210 HD
ENDBRANCH   1   8
TORSDOF 5
ENDMDL
MODEL 13
REMARK VINA RESULT:      -4.0      6.960      7.938
REMARK  5 active torsions:
REMARK  status: ('A' for Active; 'I' for Inactive)
REMARK    1  A    between atoms: C_2  and  C_3 
REMARK    2  A    between atoms: C_3  and  C_5 
REMARK    3  A    between atoms: C_3  and  O_4 
REMARK    4  A    between atoms: C_5  and  C_6 
REMARK    5  A    between atoms: C_6  and  C_7 
ROOT
HETATM    1  C   LIG     1      14.557  32.352  18.085  1.00  0.00     0.117 C 
ENDROOT
BRANCH   1   2
HETATM    2  C   LIG     1      15.333  32.442  16.757  1.00  0.00     0.027 C 
HETATM    3  C   LIG     1      14.780  31.479  15.706  1.00  0.00     0.007 C 
ENDBRANCH   1   2
BRANCH   1   4
HETATM    4  C   LIG     1      15.501  32.241  19.300  1.00  0.00     0.032 C 
BRANCH   4   5
HETATM    5  C   LIG     1      15.106  33.162  20.471  1.00  0.00     0.002 C 
BRANCH   5   6
HETATM    6  C   LIG     1      15.808  34.528  20.406  1.00  0.00    -0.004 C 
HETATM    7  C   LIG     1      15.102  35.594  21.241  1.00  0.00     0.005 C 
ENDBRANCH   5   6
ENDBRANCH   4   5
ENDBRANCH   1   4
BRANCH   1   8
HETATM    8  O   LIG     1      13.683  31.251  18.068  1.00  0.00    -0.396 OA
HETATM    9  H   LIG     1      14.202  30.459  18.366  1.00  0.00     0.210 HD
ENDBRANCH   1   8
TORSDOF 5
ENDMDL
MODEL 14
REMARK VINA RESULT:      -4.0     10.385     11.473
REMARK  5 active torsions:
REMARK  status: ('A' for Active; 'I' for Inactive)
REMARK    1  A    between atoms: C_2  and  C_3 
REMARK    2  A    between atoms: C_3  and  C_5 
REMARK    3  A    between atoms: C_3  and  O_4 
REMARK    4  A    between atoms: C_5  and  C_6 
REMARK    5  A    between atoms: C_6  and  C_7 
ROOT
HETATM    1  C   LIG     1      17.740  34.040  14.460  1.00  0.00     0.117 C 
ENDROOT
BRANCH   1   2
HETATM    2  C   LIG     1      17.920  33.875  12.938  1.00  0.00     0.027 C 
HETATM    3  C   LIG     1      19.392  33.749  12.548  1.00  0.00     0.007 C 
ENDBRANCH   1   2
BRANCH   1   4
HETATM    4  C   LIG     1      16.851  32.933  15.062  1.00  0.00     0.032 C 
BRANCH   4   5
HETATM    5  C   LIG     1      16.062  32.137  14.005  1.00  0.00     0.002 C 
BRANCH   5   6
HETATM    6  C   LIG     1      15.189  31.037  14.629  1.00  0.00    -0.004 C 
HETATM    7  C   LIG     1      15.256  29.720  13.858  1.00  0.00     0.005 C 
ENDBRANCH   5   6
ENDBRANCH   4   5
ENDBRANCH   1   4
BRANCH   1   8
HETATM    8  O   LIG     1      17.186  35.299  14.754  1.00  0.00    -0.396 OA
HETATM    9  H   LIG     1      17.615  35.621  15.588  1.00  0.00     0.210 HD
ENDBRANCH   1   8
TORSDOF 5
ENDMDL
MODEL 15
REMARK VINA RESULT:      -4.0     11.145     12.134
REMARK  5 active torsions:
REMARK  status: ('A' for Active; 'I' for Inactive)
REMARK    1  A    between atoms: C_2  and  C_3 
REMARK    2  A    between atoms: C_3  and  C_5 
REMARK    3  A    between atoms: C_3  and  O_4 
REMARK    4  A    between atoms: C_5  and  C_6 
REMARK    5  A    between atoms: C_6  and  C_7 
ROOT
HETATM    1  C   LIG     1      14.823  30.167  14.645  1.00  0.00     0.117 C 
ENDROOT
BRANCH   1   2
HETATM    2  C   LIG     1      13.318  30.031  14.949  1.00  0.00     0.027 C 
HETATM    3  C   LIG     1      12.922  30.780  16.221  1.00  0.00     0.007 C 
ENDBRANCH   1   2
BRANCH   1   4
HETATM    4  C   LIG     1      15.390  31.518  15.126  1.00  0.00     0.032 C 
BRANCH   4   5
HETATM    5  C   LIG     1      16.223  32.251  14.057  1.00  0.00     0.002 C 
BRANCH   5   6
HETATM    6  C   LIG     1      17.389  33.046  14.664  1.00  0.00    -0.004 C 
HETATM    7  C   LIG     1      18.216  33.780  13.610  1.00  0.00     0.005 C 
ENDBRANCH   5   6
ENDBRANCH   4   5
ENDBRANCH   1   4
BRANCH   1   8
HETATM    8  O   LIG     1      15.060  30.023  13.266  1.00  0.00    -0.396 OA
HETATM    9  H   LIG     1      15.611  29.206  13.147  1.00  0.00     0.210 HD
ENDBRANCH   1   8
TORSDOF 5
ENDMDL
MODEL 16
REMARK VINA RESULT:      -3.9      3.279      4.308
REMARK  5 active torsions:
REMARK  status: ('A' for Active; 'I' for Inactive)
REMARK    1  A    between atoms: C_2  and  C_3 
REMARK    2  A    between atoms: C_3  and  C_5 
REMARK    3  A    between atoms: C_3  and  O_4 
REMARK    4  A    between atoms: C_5  and  C_6 
REMARK    5  A    between atoms: C_6  and  C_7 
ROOT
HETATM    1  C   LIG     1      17.491  37.137  21.095  1.00  0.00     0.117 C 
ENDROOT
BRANCH   1   2
HETATM    2  C   LIG     1      17.624  38.021  22.351  1.00  0.00     0.027 C 
HETATM    3  C   LIG     1      16.379  38.878  22.581  1.00  0.00     0.007 C 
ENDBRANCH   1   2
BRANCH   1   4
HETATM    4  C   LIG     1      17.546  35.635  21.438  1.00  0.00     0.032 C 
BRANCH   4   5
HETATM    5  C   LIG     1      16.333  35.145  22.252  1.00  0.00     0.002 C 
BRANCH   5   6
HETATM    6  C   LIG     1      15.173  34.683  21.356  1.00  0.00    -0.004 C 
HETATM    7  C   LIG     1      15.601  33.636  20.328  1.00  0.00     0.005 C 
ENDBRANCH   5   6
ENDBRANCH   4   5
ENDBRANCH   1   4
BRANCH   1   8
HETATM    8  O   LIG     1      18.504  37.445  20.169  1.00  0.00    -0.396 OA
HETATM    9  H   LIG     1      19.191  37.973  20.651  1.00  0.00     0.210 HD
ENDBRANCH   1   8
TORSDOF 5
ENDMDL
MODEL 17
REMARK VINA RESULT:      -3.8      9.793     10.997
REMARK  5 active torsions:
REMARK  status: ('A' for Active; 'I' for Inactive)
REMARK    1  A    between atoms: C_2  and  C_3 
REMARK    2  A    between atoms: C_3  and  C_5 
REMARK    3  A    between atoms: C_3  and  O_4 
REMARK    4  A    between atoms: C_5  and  C_6 
REMARK    5  A    between atoms: C_6  and  C_7 
ROOT
HETATM    1  C   LIG     1      16.352  32.395  14.962  1.00  0.00     0.117 C 
ENDROOT
BRANCH   1   2
HETATM    2  C   LIG     1      15.982  30.909  14.781  1.00  0.00     0.027 C 
HETATM    3  C   LIG     1      15.316  30.647  13.431  1.00  0.00     0.007 C 
ENDBRANCH   1   2
BRANCH   1   4
HETATM    4  C   LIG     1      15.516  33.069  16.069  1.00  0.00     0.032 C 
BRANCH   4   5
HETATM    5  C   LIG     1      14.867  32.068  17.043  1.00  0.00     0.002 C 
BRANCH   5   6
HETATM    6  C   LIG     1      13.333  32.062  16.944  1.00  0.00    -0.004 C 
HETATM    7  C   LIG     1      12.792  30.819  16.240  1.00  0.00     0.005 C 
ENDBRANCH   5   6
ENDBRANCH   4   5
ENDBRANCH   1   4
BRANCH   1   8
HETATM    8  O   LIG     1      16.179  33.093  13.753  1.00  0.00    -0.396 OA
HETATM    9  H   LIG     1      15.411  32.679  13.282  1.00  0.00     0.210 HD
ENDBRANCH   1   8
TORSDOF 5
ENDMDL
MODEL 18
REMARK VINA RESULT:      -3.7      8.369     10.171
REMARK  5 active torsions:
REMARK  status: ('A' for Active; 'I' for Inactive)
REMARK    1  A    between atoms: C_2  and  C_3 
REMARK    2  A    between atoms: C_3  and  C_5 
REMARK    3  A    between atoms: C_3  and  O_4 
REMARK    4  A    between atoms: C_5  and  C_6 
REMARK    5  A    between atoms: C_6  and  C_7 
ROOT
HETATM    1  C   LIG     1      14.685  32.828  17.255  1.00  0.00     0.117 C 
ENDROOT
BRANCH   1   2
HETATM    2  C   LIG     1      14.589  31.869  18.458  1.00  0.00     0.027 C 
HETATM    3  C   LIG     1      15.497  32.304  19.608  1.00  0.00     0.007 C 
ENDBRANCH   1   2
BRANCH   1   4
HETATM    4  C   LIG     1      15.190  32.114  15.985  1.00  0.00     0.032 C 
BRANCH   4   5
HETATM    5  C   LIG     1      16.415  32.794  15.344  1.00  0.00     0.002 C 
BRANCH   5   6
HETATM    6  C   LIG     1      16.504  32.538  13.831  1.00  0.00    -0.004 C 
HETATM    7  C   LIG     1      17.633  33.322  13.165  1.00  0.00     0.005 C 
ENDBRANCH   5   6
ENDBRANCH   4   5
ENDBRANCH   1   4
BRANCH   1   8
HETATM    8  O   LIG     1      15.533  33.908  17.555  1.00  0.00    -0.396 OA
HETATM    9  H   LIG     1      15.500  34.043  18.538  1.00  0.00     0.210 HD
ENDBRANCH   1   8
TORSDOF 5
ENDMDL
MODEL 19
REMARK VINA RESULT:      -3.7     11.468     12.729
REMARK  5 active torsions:
REMARK  status: ('A' for Active; 'I' for Inactive)
REMARK    1  A    between atoms: C_2  and  C_3 
REMARK    2  A    between atoms: C_3  and  C_5 
REMARK    3  A    between atoms: C_3  and  O_4 
REMARK    4  A    between atoms: C_5  and  C_6 
REMARK    5  A    between atoms: C_6  and  C_7 
ROOT
HETATM    1  C   LIG     1      13.687  29.310  14.015  1.00  0.00     0.117 C 
ENDROOT
BRANCH   1   2
HETATM    2  C   LIG     1      14.063  27.827  13.834  1.00  0.00     0.027 C 
HETATM    3  C   LIG     1      15.570  27.637  13.662  1.00  0.00     0.007 C 
ENDBRANCH   1   2
BRANCH   1   4
HETATM    4  C   LIG     1      14.824  30.120  14.671  1.00  0.00     0.032 C 
BRANCH   4   5
HETATM    5  C   LIG     1      14.339  31.078  15.775  1.00  0.00     0.002 C 
BRANCH   5   6
HETATM    6  C   LIG     1      15.285  32.272  15.974  1.00  0.00    -0.004 C 
HETATM    7  C   LIG     1      16.518  32.204  15.074  1.00  0.00     0.005 C 
ENDBRANCH   5   6
ENDBRANCH   4   5
ENDBRANCH   1   4
BRANCH   1   8
HETATM    8  O   LIG     1      12.519  29.428  14.790  1.00  0.00    -0.396 OA
HETATM    9  H   LIG     1      11.975  30.156  14.393  1.00  0.00     0.210 HD
ENDBRANCH   1   8
TORSDOF 5
ENDMDL
MODEL 20
REMARK VINA RESULT:      -3.7     11.329     12.515
REMARK  5 active torsions:
REMARK  status: ('A' for Active; 'I' for Inactive)
REMARK    1  A    between atoms: C_2  and  C_3 
REMARK    2  A    between atoms: C_3  and  C_5 
REMARK    3  A    between atoms: C_3  and  O_4 
REMARK    4  A    between atoms: C_5  and  C_6 
REMARK    5  A    between atoms: C_6  and  C_7 
ROOT
HETATM    1  C   LIG     1      19.504  33.528  11.622  1.00  0.00     0.117 C 
ENDROOT
BRANCH   1   2
HETATM    2  C   LIG     1      20.996  33.882  11.465  1.00  0.00     0.027 C 
HETATM    3  C   LIG     1      21.608  34.369  12.778  1.00  0.00     0.007 C 
ENDBRANCH   1   2
BRANCH   1   4
HETATM    4  C   LIG     1      19.004  33.755  13.063  1.00  0.00     0.032 C 
BRANCH   4   5
HETATM    5  C   LIG     1      17.525  33.376  13.268  1.00  0.00     0.002 C 
BRANCH   5   6
HETATM    6  C   LIG     1      17.227  32.931  14.709  1.00  0.00    -0.004 C 
HETATM    7  C   LIG     1      16.032  31.984  14.799  1.00  0.00     0.005 C 
ENDBRANCH   5   6
ENDBRANCH   4   5
ENDBRANCH   1   4
BRANCH   1   8
HETATM    8  O   LIG     1      19.276  32.190  11.252  1.00  0.00    -0.396 OA
HETATM    9  H   LIG     1      19.935  31.634  11.742  1.00  0.00     0.210 HD
ENDBRANCH   1   8
TORSDOF 5
ENDMDL
