MODEL 1
REMARK VINA RESULT:      -5.7      0.000      0.000
REMARK  0 active torsions:
REMARK  status: ('A' for Active; 'I' for Inactive)
ROOT
HETATM    1  C   LIG     1      17.964  34.852  26.308  1.00  0.00     0.049 C 
HETATM    2  C   LIG     1      17.557  35.886  25.301  1.00  0.00    -0.044 A 
HETATM    3  C   LIG     1      17.210  35.527  23.992  1.00  0.00     0.010 A 
HETATM    4  C   LIG     1      16.834  36.510  23.074  1.00  0.00     0.027 A 
HETATM    5  C   LIG     1      16.809  37.851  23.475  1.00  0.00     0.030 A 
HETATM    6  C   LIG     1      16.410  38.921  22.510  1.00  0.00     0.070 C 
HETATM    7  N   LIG     1      17.150  38.180  24.751  1.00  0.00    -0.265 NA
HETATM    8  C   LIG     1      17.519  37.241  25.661  1.00  0.00     0.123 A 
ENDROOT
TORSDOF 0
ENDMDL
MODEL 2
REMARK VINA RESULT:      -5.6      1.081      3.757
REMARK  0 active torsions:
REMARK  status: ('A' for Active; 'I' for Inactive)
ROOT
HETATM    1  C   LIG     1      16.795  38.952  22.471  1.00  0.00     0.049 C 
HETATM    2  C   LIG     1      17.084  37.892  23.491  1.00  0.00    -0.044 A 
HETATM    3  C   LIG     1      17.522  38.225  24.780  1.00  0.00     0.010 A 
HETATM    4  C   LIG     1      17.784  37.218  25.711  1.00  0.00     0.027 A 
HETATM    5  C   LIG     1      17.606  35.879  25.344  1.00  0.00     0.030 A 
HETATM    6  C   LIG     1      17.881  34.784  26.324  1.00  0.00     0.070 C 
HETATM    7  N   LIG     1      17.181  35.575  24.087  1.00  0.00    -0.265 NA
HETATM    8  C   LIG     1      16.920  36.538  23.164  1.00  0.00     0.123 A 
ENDROOT
TORSDOF 0
ENDMDL
MODEL 3
REMARK VINA RESULT:      -5.4      3.478      5.141
REMARK  0 active torsions:
REMARK  status: ('A' for Active; 'I' for Inactive)
ROOT
HETATM    1  C   LIG     1      20.316  38.933  19.311  1.00  0.00     0.049 C 
HETATM    2  C   LIG     1      19.233  38.173  20.018  1.00  0.00    -0.044 A 
HETATM    3  C   LIG     1      18.587  38.707  21.142  1.00  0.00     0.010 A 
HETATM    4  C   LIG     1      17.582  37.979  21.780  1.00  0.00     0.027 A 
HETATM    5  C   LIG     1      17.229  36.716  21.289  1.00  0.00     0.030 A 
HETATM    6  C   LIG     1      16.156  35.919  21.957  1.00  0.00     0.070 C 
HETATM    7  N   LIG     1      17.868  36.215  20.197  1.00  0.00    -0.265 NA
HETATM    8  C   LIG     1      18.850  36.905  19.559  1.00  0.00     0.123 A 
ENDROOT
TORSDOF 0
ENDMDL
MODEL 4
REMARK VINA RESULT:      -5.3      3.269      4.822
REMARK  0 active torsions:
REMARK  status: ('A' for Active; 'I' for Inactive)
ROOT
HETATM    1  C   LIG     1      20.390  38.953  19.221  1.00  0.00     0.049 C 
HETATM    2  C   LIG     1      19.301  38.291  20.012  1.00  0.00    -0.044 A 
HETATM    3  C   LIG     1      18.895  36.979  19.731  1.00  0.00     0.010 A 
HETATM    4  C   LIG     1      17.880  36.386  20.482  1.00  0.00     0.027 A 
HETATM    5  C   LIG     1      17.274  37.113  21.515  1.00  0.00     0.030 A 
HETATM    6  C   LIG     1      16.184  36.499  22.332  1.00  0.00     0.070 C 
HETATM    7  N   LIG     1      17.681  38.386  21.771  1.00  0.00    -0.265 NA
HETATM    8  C   LIG     1      18.668  38.984  21.053  1.00  0.00     0.123 A 
ENDROOT
TORSDOF 0
ENDMDL
MODEL 5
REMARK VINA RESULT:      -5.1      3.276      4.500
REMARK  0 active torsions:
REMARK  status: ('A' for Active; 'I' for Inactive)
ROOT
HETATM    1  C   LIG     1      16.103  37.146  22.706  1.00  0.00     0.049 C 
HETATM    2  C   LIG     1      17.213  37.624  21.817  1.00  0.00    -0.044 A 
HETATM    3  C   LIG     1      17.732  38.920  21.937  1.00  0.00     0.010 A 
HETATM    4  C   LIG     1      18.764  39.339  21.097  1.00  0.00     0.027 A 
HETATM    5  C   LIG     1      19.273  38.455  20.139  1.00  0.00     0.030 A 
HETATM    6  C   LIG     1      20.379  38.883  19.228  1.00  0.00     0.070 C 
HETATM    7  N   LIG     1      18.755  37.201  20.037  1.00  0.00    -0.265 NA
HETATM    8  C   LIG     1      17.750  36.770  20.843  1.00  0.00     0.123 A 
ENDROOT
TORSDOF 0
ENDMDL
MODEL 6
REMARK VINA RESULT:      -5.1      3.072      4.057
REMARK  0 active torsions:
REMARK  status: ('A' for Active; 'I' for Inactive)
ROOT
HETATM    1  C   LIG     1      16.075  37.559  23.077  1.00  0.00     0.049 C 
HETATM    2  C   LIG     1      17.163  37.865  22.091  1.00  0.00    -0.044 A 
HETATM    3  C   LIG     1      17.547  36.929  21.121  1.00  0.00     0.010 A 
HETATM    4  C   LIG     1      18.563  37.239  20.215  1.00  0.00     0.027 A 
HETATM    5  C   LIG     1      19.190  38.489  20.287  1.00  0.00     0.030 A 
HETATM    6  C   LIG     1      20.280  38.843  19.327  1.00  0.00     0.070 C 
HETATM    7  N   LIG     1      18.803  39.384  21.236  1.00  0.00    -0.265 NA
HETATM    8  C   LIG     1      17.817  39.104  22.129  1.00  0.00     0.123 A 
ENDROOT
TORSDOF 0
ENDMDL
MODEL 7
REMARK VINA RESULT:      -5.1      1.372      3.234
REMARK  0 active torsions:
REMARK  status: ('A' for Active; 'I' for Inactive)
ROOT
HETATM    1  C   LIG     1      16.445  35.516  20.557  1.00  0.00     0.049 C 
HETATM    2  C   LIG     1      16.761  35.952  21.956  1.00  0.00    -0.044 A 
HETATM    3  C   LIG     1      16.962  35.016  22.980  1.00  0.00     0.010 A 
HETATM    4  C   LIG     1      17.254  35.449  24.274  1.00  0.00     0.027 A 
HETATM    5  C   LIG     1      17.344  36.821  24.537  1.00  0.00     0.030 A 
HETATM    6  C   LIG     1      17.656  37.308  25.915  1.00  0.00     0.070 C 
HETATM    7  N   LIG     1      17.145  37.715  23.530  1.00  0.00    -0.265 NA
HETATM    8  C   LIG     1      16.859  37.317  22.262  1.00  0.00     0.123 A 
ENDROOT
TORSDOF 0
ENDMDL
MODEL 8
REMARK VINA RESULT:      -5.1      2.536      4.228
REMARK  0 active torsions:
REMARK  status: ('A' for Active; 'I' for Inactive)
ROOT
HETATM    1  C   LIG     1      18.723  37.127  19.109  1.00  0.00     0.049 C 
HETATM    2  C   LIG     1      18.212  37.313  20.506  1.00  0.00    -0.044 A 
HETATM    3  C   LIG     1      18.440  38.504  21.209  1.00  0.00     0.010 A 
HETATM    4  C   LIG     1      17.954  38.652  22.509  1.00  0.00     0.027 A 
HETATM    5  C   LIG     1      17.239  37.602  23.100  1.00  0.00     0.030 A 
HETATM    6  C   LIG     1      16.709  37.738  24.491  1.00  0.00     0.070 C 
HETATM    7  N   LIG     1      17.029  36.453  22.401  1.00  0.00    -0.265 NA
HETATM    8  C   LIG     1      17.493  36.287  21.135  1.00  0.00     0.123 A 
ENDROOT
TORSDOF 0
ENDMDL
MODEL 9
REMARK VINA RESULT:      -5.0      1.589      2.473
REMARK  0 active torsions:
REMARK  status: ('A' for Active; 'I' for Inactive)
ROOT
HETATM    1  C   LIG     1      17.489  37.698  25.779  1.00  0.00     0.049 C 
HETATM    2  C   LIG     1      17.217  37.074  24.443  1.00  0.00    -0.044 A 
HETATM    3  C   LIG     1      17.224  35.682  24.277  1.00  0.00     0.010 A 
HETATM    4  C   LIG     1      16.967  35.128  23.022  1.00  0.00     0.027 A 
HETATM    5  C   LIG     1      16.704  35.973  21.937  1.00  0.00     0.030 A 
HETATM    6  C   LIG     1      16.427  35.402  20.584  1.00  0.00     0.070 C 
HETATM    7  N   LIG     1      16.703  37.322  22.119  1.00  0.00    -0.265 NA
HETATM    8  C   LIG     1      16.950  37.885  23.331  1.00  0.00     0.123 A 
ENDROOT
TORSDOF 0
ENDMDL
MODEL 10
REMARK VINA RESULT:      -5.0      3.302      4.420
REMARK  0 active torsions:
REMARK  status: ('A' for Active; 'I' for Inactive)
ROOT
HETATM    1  C   LIG     1      18.424  39.216  21.927  1.00  0.00     0.049 C 
HETATM    2  C   LIG     1      17.720  37.938  21.580  1.00  0.00    -0.044 A 
HETATM    3  C   LIG     1      16.591  37.515  22.295  1.00  0.00     0.010 A 
HETATM    4  C   LIG     1      15.955  36.321  21.951  1.00  0.00     0.027 A 
HETATM    5  C   LIG     1      16.455  35.555  20.891  1.00  0.00     0.030 A 
HETATM    6  C   LIG     1      15.790  34.273  20.506  1.00  0.00     0.070 C 
HETATM    7  N   LIG     1      17.553  35.982  20.210  1.00  0.00    -0.265 NA
HETATM    8  C   LIG     1      18.190  37.141  20.527  1.00  0.00     0.123 A 
ENDROOT
TORSDOF 0
ENDMDL
MODEL 11
REMARK VINA RESULT:      -4.8     10.487     11.625
REMARK  0 active torsions:
REMARK  status: ('A' for Active; 'I' for Inactive)
ROOT
HETATM    1  C   LIG     1      13.366  29.392  14.452  1.00  0.00     0.049 C 
HETATM    2  C   LIG     1      14.429  30.445  14.544  1.00  0.00    -0.044 A 
HETATM    3  C   LIG     1      14.544  31.263  15.676  1.00  0.00     0.010 A 
HETATM    4  C   LIG     1      15.543  32.236  15.737  1.00  0.00     0.027 A 
HETATM    5  C   LIG     1      16.425  32.384  14.660  1.00  0.00     0.030 A 
HETATM    6  C   LIG     1      17.502  33.419  14.702  1.00  0.00     0.070 C 
HETATM    7  N   LIG     1      16.297  31.580  13.569  1.00  0.00    -0.265 NA
HETATM    8  C   LIG     1      15.332  30.626  13.487  1.00  0.00     0.123 A 
ENDROOT
TORSDOF 0
ENDMDL
MODEL 12
REMARK VINA RESULT:      -4.8      9.424     10.573
REMARK  0 active torsions:
REMARK  status: ('A' for Active; 'I' for Inactive)
ROOT
HETATM    1  C   LIG     1      14.523  29.449  14.131  1.00  0.00     0.049 C 
HETATM    2  C   LIG     1      14.651  30.681  14.976  1.00  0.00    -0.044 A 
HETATM    3  C   LIG     1      13.841  30.876  16.103  1.00  0.00     0.010 A 
HETATM    4  C   LIG     1      13.982  32.032  16.873  1.00  0.00     0.027 A 
HETATM    5  C   LIG     1      14.936  32.990  16.508  1.00  0.00     0.030 A 
HETATM    6  C   LIG     1      15.104  34.235  17.316  1.00  0.00     0.070 C 
HETATM    7  N   LIG     1      15.712  32.783  15.409  1.00  0.00    -0.265 NA
HETATM    8  C   LIG     1      15.593  31.665  14.644  1.00  0.00     0.123 A 
ENDROOT
TORSDOF 0
ENDMDL
MODEL 13
REMARK VINA RESULT:      -4.7      9.442     10.516
REMARK  0 active torsions:
REMARK  status: ('A' for Active; 'I' for Inactive)
ROOT
HETATM    1  C   LIG     1      12.983  30.641  16.404  1.00  0.00     0.049 C 
HETATM    2  C   LIG     1      14.235  31.307  15.916  1.00  0.00    -0.044 A 
HETATM    3  C   LIG     1      14.831  30.933  14.703  1.00  0.00     0.010 A 
HETATM    4  C   LIG     1      15.995  31.570  14.272  1.00  0.00     0.027 A 
HETATM    5  C   LIG     1      16.559  32.581  15.060  1.00  0.00     0.030 A 
HETATM    6  C   LIG     1      17.806  33.276  14.619  1.00  0.00     0.070 C 
HETATM    7  N   LIG     1      15.966  32.929  16.235  1.00  0.00    -0.265 NA
HETATM    8  C   LIG     1      14.831  32.323  16.675  1.00  0.00     0.123 A 
ENDROOT
TORSDOF 0
ENDMDL
MODEL 14
REMARK VINA RESULT:      -4.7      3.062      3.741
REMARK  0 active torsions:
REMARK  status: ('A' for Active; 'I' for Inactive)
ROOT
HETATM    1  C   LIG     1      15.939  34.415  20.730  1.00  0.00     0.049 C 
HETATM    2  C   LIG     1      16.633  35.719  20.988  1.00  0.00    -0.044 A 
HETATM    3  C   LIG     1      17.730  36.123  20.215  1.00  0.00     0.010 A 
HETATM    4  C   LIG     1      18.358  37.342  20.477  1.00  0.00     0.027 A 
HETATM    5  C   LIG     1      17.882  38.152  21.516  1.00  0.00     0.030 A 
HETATM    6  C   LIG     1      18.539  39.461  21.815  1.00  0.00     0.070 C 
HETATM    7  N   LIG     1      16.816  37.741  22.256  1.00  0.00    -0.265 NA
HETATM    8  C   LIG     1      16.189  36.559  22.019  1.00  0.00     0.123 A 
ENDROOT
TORSDOF 0
ENDMDL
MODEL 15
REMARK VINA RESULT:      -4.4      1.613      3.765
REMARK  0 active torsions:
REMARK  status: ('A' for Active; 'I' for Inactive)
ROOT
HETATM    1  C   LIG     1      18.313  39.287  20.672  1.00  0.00     0.049 C 
HETATM    2  C   LIG     1      17.929  38.192  21.621  1.00  0.00    -0.044 A 
HETATM    3  C   LIG     1      17.578  36.917  21.155  1.00  0.00     0.010 A 
HETATM    4  C   LIG     1      17.225  35.916  22.061  1.00  0.00     0.027 A 
HETATM    5  C   LIG     1      17.224  36.197  23.433  1.00  0.00     0.030 A 
HETATM    6  C   LIG     1      16.849  35.141  24.421  1.00  0.00     0.070 C 
HETATM    7  N   LIG     1      17.567  37.441  23.865  1.00  0.00    -0.265 NA
HETATM    8  C   LIG     1      17.914  38.432  23.002  1.00  0.00     0.123 A 
ENDROOT
TORSDOF 0
ENDMDL
MODEL 16
REMARK VINA RESULT:      -4.4      7.291      8.329
REMARK  0 active torsions:
REMARK  status: ('A' for Active; 'I' for Inactive)
ROOT
HETATM    1  C   LIG     1      15.884  33.841  20.485  1.00  0.00     0.049 C 
HETATM    2  C   LIG     1      15.250  33.088  19.354  1.00  0.00    -0.044 A 
HETATM    3  C   LIG     1      15.185  33.633  18.064  1.00  0.00     0.010 A 
HETATM    4  C   LIG     1      14.590  32.911  17.030  1.00  0.00     0.027 A 
HETATM    5  C   LIG     1      14.061  31.641  17.293  1.00  0.00     0.030 A 
HETATM    6  C   LIG     1      13.419  30.849  16.200  1.00  0.00     0.070 C 
HETATM    7  N   LIG     1      14.133  31.129  18.551  1.00  0.00    -0.265 NA
HETATM    8  C   LIG     1      14.707  31.814  19.575  1.00  0.00     0.123 A 
ENDROOT
TORSDOF 0
ENDMDL
MODEL 17
REMARK VINA RESULT:      -4.2     10.108     11.371
REMARK  0 active torsions:
REMARK  status: ('A' for Active; 'I' for Inactive)
ROOT
HETATM    1  C   LIG     1      17.544  33.141  13.256  1.00  0.00     0.049 C 
HETATM    2  C   LIG     1      16.489  32.499  14.107  1.00  0.00    -0.044 A 
HETATM    3  C   LIG     1      16.228  32.955  15.406  1.00  0.00     0.010 A 
HETATM    4  C   LIG     1      15.240  32.340  16.177  1.00  0.00     0.027 A 
HETATM    5  C   LIG     1      14.517  31.267  15.640  1.00  0.00     0.030 A 
HETATM    6  C   LIG     1      13.455  30.593  16.447  1.00  0.00     0.070 C 
HETATM    7  N   LIG     1      14.786  30.838  14.376  1.00  0.00    -0.265 NA
HETATM    8  C   LIG     1      15.743  31.422  13.608  1.00  0.00     0.123 A 
ENDROOT
TORSDOF 0
ENDMDL
MODEL 18
REMARK VINA RESULT:      -4.0     11.121     12.281
REMARK  0 active torsions:
REMARK  status: ('A' for Active; 'I' for Inactive)
ROOT
HETATM    1  C   LIG     1      12.931  32.079  16.761  1.00  0.00     0.049 C 
HETATM    2  C   LIG     1      13.609  31.132  15.817  1.00  0.00    -0.044 A 
HETATM    3  C   LIG     1      14.953  31.302  15.458  1.00  0.00     0.010 A 
HETATM    4  C   LIG     1      15.560  30.405  14.578  1.00  0.00     0.027 A 
HETATM    5  C   LIG     1      14.815  29.339  14.060  1.00  0.00     0.030 A 
HETATM    6  C   LIG     1      15.444  28.367  13.115  1.00  0.00     0.070 C 
HETATM    7  N   LIG     1      13.511  29.191  14.420  1.00  0.00    -0.265 NA
HETATM    8  C   LIG     1      12.898  30.052  15.275  1.00  0.00     0.123 A 
ENDROOT
TORSDOF 0
ENDMDL
MODEL 19
REMARK VINA RESULT:      -3.9      9.436     10.534
REMARK  0 active torsions:
REMARK  status: ('A' for Active; 'I' for Inactive)
ROOT
HETATM    1  C   LIG     1      14.943  33.071  18.386  1.00  0.00     0.049 C 
HETATM    2  C   LIG     1      14.994  32.307  17.097  1.00  0.00    -0.044 A 
HETATM    3  C   LIG     1      15.971  32.581  16.129  1.00  0.00     0.010 A 
HETATM    4  C   LIG     1      15.996  31.854  14.938  1.00  0.00     0.027 A 
HETATM    5  C   LIG     1      15.039  30.855  14.721  1.00  0.00     0.030 A 
HETATM    6  C   LIG     1      15.047  30.065  13.452  1.00  0.00     0.070 C 
HETATM    7  N   LIG     1      14.098  30.605  15.672  1.00  0.00    -0.265 NA
HETATM    8  C   LIG     1      14.054  31.299  16.839  1.00  0.00     0.123 A 
ENDROOT
TORSDOF 0
ENDMDL
MODEL 20
REMARK VINA RESULT:      -3.6     16.426     17.817
REMARK  0 active torsions:
REMARK  status: ('A' for Active; 'I' for Inactive)
ROOT
HETATM    1  C   LIG     1      22.519  23.407  37.464  1.00  0.00     0.049 C 
HETATM    2  C   LIG     1      21.739  23.299  36.188  1.00  0.00    -0.044 A 
HETATM    3  C   LIG     1      20.384  22.939  36.194  1.00  0.00     0.010 A 
HETATM    4  C   LIG     1      19.681  22.846  34.992  1.00  0.00     0.027 A 
HETATM    5  C   LIG     1      20.341  23.114  33.786  1.00  0.00     0.030 A 
HETATM    6  C   LIG     1      19.609  23.020  32.487  1.00  0.00     0.070 C 
HETATM    7  N   LIG     1      21.657  23.461  33.801  1.00  0.00    -0.265 NA
HETATM    8  C   LIG     1      22.362  23.558  34.960  1.00  0.00     0.123 A 
ENDROOT
TORSDOF 0
ENDMDL
