REMARK  5 active torsions:
REMARK  status: ('A' for Active; 'I' for Inactive)
REMARK    1  A    between atoms: C_2  and  C_3 
REMARK    2  A    between atoms: C_3  and  C_5 
REMARK    3  A    between atoms: C_3  and  O_4 
REMARK    4  A    between atoms: C_5  and  C_6 
REMARK    5  A    between atoms: C_6  and  C_7 
ROOT
HETATM    1  C   LIG     1      -1.250  -0.479   0.237  1.00  0.00     0.117 C 
ENDROOT
BRANCH   1   2
HETATM    2  C   LIG     1      -1.762   0.811  -0.434  1.00  0.00     0.027 C 
HETATM    3  C   LIG     1      -3.283   0.935  -0.346  1.00  0.00     0.007 C 
ENDBRANCH   1   2
BRANCH   1   4
HETATM    4  C   LIG     1       0.282  -0.472   0.410  1.00  0.00     0.032 C 
BRANCH   4   5
HETATM    5  C   LIG     1       1.051  -0.420  -0.924  1.00  0.00     0.002 C 
BRANCH   5   6
HETATM    6  C   LIG     1       2.559  -0.653  -0.742  1.00  0.00    -0.004 C 
HETATM    7  C   LIG     1       3.253   0.504  -0.025  1.00  0.00     0.005 C 
ENDBRANCH   5   6
ENDBRANCH   4   5
ENDBRANCH   1   4
BRANCH   1   8
HETATM    8  O   LIG     1      -1.633  -1.606  -0.512  1.00  0.00    -0.396 OA
HETATM    9  H   LIG     1      -2.528  -1.884  -0.187  1.00  0.00     0.210 HD
ENDBRANCH   1   8
TORSDOF 5
