MODEL 1
REMARK VINA RESULT:      -5.9      0.000      0.000
REMARK  1 active torsions:
REMARK  status: ('A' for Active; 'I' for Inactive)
REMARK    1  A    between atoms: C_7  and  O_8 
ROOT
HETATM    1  C   LIG     1      16.544  36.583  21.988  1.00  0.00     0.010 C 
HETATM    2  C   LIG     1      17.842  37.217  21.477  1.00  0.00    -0.019 C 
HETATM    3  C   LIG     1      18.168  36.710  20.058  1.00  0.00     0.007 C 
HETATM    4  C   LIG     1      19.451  37.358  19.523  1.00  0.00     0.032 C 
HETATM    5  C   LIG     1      17.736  38.754  21.488  1.00  0.00     0.007 C 
HETATM    6  C   LIG     1      19.020  39.399  20.949  1.00  0.00     0.032 C 
HETATM    7  C   LIG     1      19.343  38.891  19.533  1.00  0.00     0.118 C 
ENDROOT
BRANCH   7   8
HETATM    8  O   LIG     1      20.558  39.439  19.095  1.00  0.00    -0.396 OA
HETATM    9  H   LIG     1      20.890  38.853  18.366  1.00  0.00     0.210 HD
ENDBRANCH   7   8
TORSDOF 1
ENDMDL
MODEL 2
REMARK VINA RESULT:      -5.7      2.690      3.727
REMARK  1 active torsions:
REMARK  status: ('A' for Active; 'I' for Inactive)
REMARK    1  A    between atoms: C_7  and  O_8 
ROOT
HETATM    1  C   LIG     1      19.213  36.922  19.602  1.00  0.00     0.010 C 
HETATM    2  C   LIG     1      17.982  37.333  20.415  1.00  0.00    -0.019 C 
HETATM    3  C   LIG     1      17.403  36.120  21.171  1.00  0.00     0.007 C 
HETATM    4  C   LIG     1      16.186  36.524  22.012  1.00  0.00     0.032 C 
HETATM    5  C   LIG     1      18.336  38.462  21.402  1.00  0.00     0.007 C 
HETATM    6  C   LIG     1      17.117  38.861  22.244  1.00  0.00     0.032 C 
HETATM    7  C   LIG     1      16.542  37.648  22.996  1.00  0.00     0.118 C 
ENDROOT
BRANCH   7   8
HETATM    8  O   LIG     1      15.387  38.026  23.697  1.00  0.00    -0.396 OA
HETATM    9  H   LIG     1      14.779  38.452  23.039  1.00  0.00     0.210 HD
ENDBRANCH   7   8
TORSDOF 1
ENDMDL
MODEL 3
REMARK VINA RESULT:      -5.5      3.966      4.904
REMARK  1 active torsions:
REMARK  status: ('A' for Active; 'I' for Inactive)
REMARK    1  A    between atoms: C_7  and  O_8 
ROOT
HETATM    1  C   LIG     1      18.325  34.777  26.474  1.00  0.00     0.010 C 
HETATM    2  C   LIG     1      18.128  35.859  25.407  1.00  0.00    -0.019 C 
HETATM    3  C   LIG     1      17.132  35.383  24.332  1.00  0.00     0.007 C 
HETATM    4  C   LIG     1      16.904  36.470  23.273  1.00  0.00     0.032 C 
HETATM    5  C   LIG     1      17.639  37.171  26.052  1.00  0.00     0.007 C 
HETATM    6  C   LIG     1      17.409  38.254  24.989  1.00  0.00     0.032 C 
HETATM    7  C   LIG     1      16.415  37.776  23.917  1.00  0.00     0.118 C 
ENDROOT
BRANCH   7   8
HETATM    8  O   LIG     1      16.280  38.755  22.921  1.00  0.00    -0.396 OA
HETATM    9  H   LIG     1      16.616  39.605  23.308  1.00  0.00     0.210 HD
ENDBRANCH   7   8
TORSDOF 1
ENDMDL
MODEL 4
REMARK VINA RESULT:      -5.4      3.831      4.667
REMARK  1 active torsions:
REMARK  status: ('A' for Active; 'I' for Inactive)
REMARK    1  A    between atoms: C_7  and  O_8 
ROOT
HETATM    1  C   LIG     1      16.469  34.832  21.436  1.00  0.00     0.010 C 
HETATM    2  C   LIG     1      17.098  35.781  22.461  1.00  0.00    -0.019 C 
HETATM    3  C   LIG     1      16.455  37.179  22.370  1.00  0.00     0.007 C 
HETATM    4  C   LIG     1      17.056  38.131  23.410  1.00  0.00     0.032 C 
HETATM    5  C   LIG     1      16.953  35.213  23.886  1.00  0.00     0.007 C 
HETATM    6  C   LIG     1      17.552  36.170  24.924  1.00  0.00     0.032 C 
HETATM    7  C   LIG     1      16.908  37.564  24.831  1.00  0.00     0.118 C 
ENDROOT
BRANCH   7   8
HETATM    8  O   LIG     1      17.526  38.437  25.739  1.00  0.00    -0.396 OA
HETATM    9  H   LIG     1      17.731  39.271  25.241  1.00  0.00     0.210 HD
ENDBRANCH   7   8
TORSDOF 1
ENDMDL
MODEL 5
REMARK VINA RESULT:      -5.2      4.102      5.230
REMARK  1 active torsions:
REMARK  status: ('A' for Active; 'I' for Inactive)
REMARK    1  A    between atoms: C_7  and  O_8 
ROOT
HETATM    1  C   LIG     1      16.769  36.423  21.449  1.00  0.00     0.010 C 
HETATM    2  C   LIG     1      16.667  36.391  22.977  1.00  0.00    -0.019 C 
HETATM    3  C   LIG     1      17.286  35.093  23.533  1.00  0.00     0.007 C 
HETATM    4  C   LIG     1      17.216  35.061  25.064  1.00  0.00     0.032 C 
HETATM    5  C   LIG     1      17.358  37.623  23.592  1.00  0.00     0.007 C 
HETATM    6  C   LIG     1      17.289  37.586  25.124  1.00  0.00     0.032 C 
HETATM    7  C   LIG     1      17.908  36.289  25.676  1.00  0.00     0.118 C 
ENDROOT
BRANCH   7   8
HETATM    8  O   LIG     1      17.765  36.249  27.071  1.00  0.00    -0.396 OA
HETATM    9  H   LIG     1      16.900  36.687  27.283  1.00  0.00     0.210 HD
ENDBRANCH   7   8
TORSDOF 1
ENDMDL
MODEL 6
REMARK VINA RESULT:      -5.1      1.401      2.461
REMARK  1 active torsions:
REMARK  status: ('A' for Active; 'I' for Inactive)
REMARK    1  A    between atoms: C_7  and  O_8 
ROOT
HETATM    1  C   LIG     1      16.452  34.893  21.476  1.00  0.00     0.010 C 
HETATM    2  C   LIG     1      16.814  36.356  21.197  1.00  0.00    -0.019 C 
HETATM    3  C   LIG     1      16.879  37.157  22.512  1.00  0.00     0.007 C 
HETATM    4  C   LIG     1      17.269  38.616  22.249  1.00  0.00     0.032 C 
HETATM    5  C   LIG     1      18.155  36.447  20.443  1.00  0.00     0.007 C 
HETATM    6  C   LIG     1      18.543  37.909  20.185  1.00  0.00     0.032 C 
HETATM    7  C   LIG     1      18.607  38.706  21.500  1.00  0.00     0.118 C 
ENDROOT
BRANCH   7   8
HETATM    8  O   LIG     1      18.890  40.053  21.228  1.00  0.00    -0.396 OA
HETATM    9  H   LIG     1      18.904  40.149  20.240  1.00  0.00     0.210 HD
ENDBRANCH   7   8
TORSDOF 1
ENDMDL
MODEL 7
REMARK VINA RESULT:      -5.1      2.307      3.846
REMARK  1 active torsions:
REMARK  status: ('A' for Active; 'I' for Inactive)
REMARK    1  A    between atoms: C_7  and  O_8 
ROOT
HETATM    1  C   LIG     1      20.122  38.996  19.053  1.00  0.00     0.010 C 
HETATM    2  C   LIG     1      19.454  38.276  20.229  1.00  0.00    -0.019 C 
HETATM    3  C   LIG     1      18.616  39.265  21.062  1.00  0.00     0.007 C 
HETATM    4  C   LIG     1      17.919  38.551  22.227  1.00  0.00     0.032 C 
HETATM    5  C   LIG     1      18.574  37.116  19.724  1.00  0.00     0.007 C 
HETATM    6  C   LIG     1      17.876  36.406  20.892  1.00  0.00     0.032 C 
HETATM    7  C   LIG     1      17.040  37.396  21.722  1.00  0.00     0.118 C 
ENDROOT
BRANCH   7   8
HETATM    8  O   LIG     1      16.474  36.736  22.823  1.00  0.00    -0.396 OA
HETATM    9  H   LIG     1      16.971  35.884  22.933  1.00  0.00     0.210 HD
ENDBRANCH   7   8
TORSDOF 1
ENDMDL
MODEL 8
REMARK VINA RESULT:      -5.0      7.822      8.963
REMARK  1 active torsions:
REMARK  status: ('A' for Active; 'I' for Inactive)
REMARK    1  A    between atoms: C_7  and  O_8 
ROOT
HETATM    1  C   LIG     1      14.097  29.622  14.208  1.00  0.00     0.010 C 
HETATM    2  C   LIG     1      14.590  30.495  15.366  1.00  0.00    -0.019 C 
HETATM    3  C   LIG     1      15.413  31.686  14.834  1.00  0.00     0.007 C 
HETATM    4  C   LIG     1      15.889  32.584  15.983  1.00  0.00     0.032 C 
HETATM    5  C   LIG     1      13.403  30.996  16.211  1.00  0.00     0.007 C 
HETATM    6  C   LIG     1      13.883  31.897  17.357  1.00  0.00     0.032 C 
HETATM    7  C   LIG     1      14.704  33.084  16.822  1.00  0.00     0.118 C 
ENDROOT
BRANCH   7   8
HETATM    8  O   LIG     1      15.191  33.848  17.893  1.00  0.00    -0.396 OA
HETATM    9  H   LIG     1      14.413  34.054  18.474  1.00  0.00     0.210 HD
ENDBRANCH   7   8
TORSDOF 1
ENDMDL
MODEL 9
REMARK VINA RESULT:      -5.0      1.436      1.926
REMARK  1 active torsions:
REMARK  status: ('A' for Active; 'I' for Inactive)
REMARK    1  A    between atoms: C_7  and  O_8 
ROOT
HETATM    1  C   LIG     1      15.714  35.074  21.591  1.00  0.00     0.010 C 
HETATM    2  C   LIG     1      16.885  36.051  21.741  1.00  0.00    -0.019 C 
HETATM    3  C   LIG     1      17.469  36.411  20.361  1.00  0.00     0.007 C 
HETATM    4  C   LIG     1      18.624  37.410  20.495  1.00  0.00     0.032 C 
HETATM    5  C   LIG     1      16.436  37.324  22.484  1.00  0.00     0.007 C 
HETATM    6  C   LIG     1      17.594  38.323  22.614  1.00  0.00     0.032 C 
HETATM    7  C   LIG     1      18.175  38.680  21.234  1.00  0.00     0.118 C 
ENDROOT
BRANCH   7   8
HETATM    8  O   LIG     1      19.277  39.535  21.388  1.00  0.00    -0.396 OA
HETATM    9  H   LIG     1      20.076  39.029  21.088  1.00  0.00     0.210 HD
ENDBRANCH   7   8
TORSDOF 1
ENDMDL
MODEL 10
REMARK VINA RESULT:      -4.9      8.311      9.522
REMARK  1 active torsions:
REMARK  status: ('A' for Active; 'I' for Inactive)
REMARK    1  A    between atoms: C_7  and  O_8 
ROOT
HETATM    1  C   LIG     1      17.152  32.801  14.966  1.00  0.00     0.010 C 
HETATM    2  C   LIG     1      15.696  32.387  15.202  1.00  0.00    -0.019 C 
HETATM    3  C   LIG     1      15.474  30.923  14.774  1.00  0.00     0.007 C 
HETATM    4  C   LIG     1      14.026  30.487  15.033  1.00  0.00     0.032 C 
HETATM    5  C   LIG     1      15.312  32.580  16.682  1.00  0.00     0.007 C 
HETATM    6  C   LIG     1      13.864  32.140  16.937  1.00  0.00     0.032 C 
HETATM    7  C   LIG     1      13.645  30.678  16.509  1.00  0.00     0.118 C 
ENDROOT
BRANCH   7   8
HETATM    8  O   LIG     1      12.299  30.326  16.684  1.00  0.00    -0.396 OA
HETATM    9  H   LIG     1      12.224  29.920  17.586  1.00  0.00     0.210 HD
ENDBRANCH   7   8
TORSDOF 1
ENDMDL
MODEL 11
REMARK VINA RESULT:      -4.9      2.650      3.657
REMARK  1 active torsions:
REMARK  status: ('A' for Active; 'I' for Inactive)
REMARK    1  A    between atoms: C_7  and  O_8 
ROOT
HETATM    1  C   LIG     1      17.326  38.059  25.362  1.00  0.00     0.010 C 
HETATM    2  C   LIG     1      17.631  37.391  24.018  1.00  0.00    -0.019 C 
HETATM    3  C   LIG     1      16.864  36.060  23.889  1.00  0.00     0.007 C 
HETATM    4  C   LIG     1      17.140  35.394  22.535  1.00  0.00     0.032 C 
HETATM    5  C   LIG     1      17.275  38.333  22.852  1.00  0.00     0.007 C 
HETATM    6  C   LIG     1      17.549  37.662  21.499  1.00  0.00     0.032 C 
HETATM    7  C   LIG     1      16.782  36.333  21.374  1.00  0.00     0.118 C 
ENDROOT
BRANCH   7   8
HETATM    8  O   LIG     1      17.108  35.707  20.161  1.00  0.00    -0.396 OA
HETATM    9  H   LIG     1      16.457  34.969  20.036  1.00  0.00     0.210 HD
ENDBRANCH   7   8
TORSDOF 1
ENDMDL
MODEL 12
REMARK VINA RESULT:      -4.7      8.306      9.227
REMARK  1 active torsions:
REMARK  status: ('A' for Active; 'I' for Inactive)
REMARK    1  A    between atoms: C_7  and  O_8 
ROOT
HETATM    1  C   LIG     1      13.437  31.027  16.921  1.00  0.00     0.010 C 
HETATM    2  C   LIG     1      14.664  31.096  16.006  1.00  0.00    -0.019 C 
HETATM    3  C   LIG     1      14.315  30.581  14.595  1.00  0.00     0.007 C 
HETATM    4  C   LIG     1      15.528  30.672  13.661  1.00  0.00     0.032 C 
HETATM    5  C   LIG     1      15.206  32.536  15.935  1.00  0.00     0.007 C 
HETATM    6  C   LIG     1      16.417  32.623  14.996  1.00  0.00     0.032 C 
HETATM    7  C   LIG     1      16.066  32.109  13.589  1.00  0.00     0.118 C 
ENDROOT
BRANCH   7   8
HETATM    8  O   LIG     1      17.208  32.131  12.775  1.00  0.00    -0.396 OA
HETATM    9  H   LIG     1      17.231  31.265  12.290  1.00  0.00     0.210 HD
ENDBRANCH   7   8
TORSDOF 1
ENDMDL
MODEL 13
REMARK VINA RESULT:      -4.6      9.339     10.474
REMARK  1 active torsions:
REMARK  status: ('A' for Active; 'I' for Inactive)
REMARK    1  A    between atoms: C_7  and  O_8 
ROOT
HETATM    1  C   LIG     1      15.844  32.846  16.461  1.00  0.00     0.010 C 
HETATM    2  C   LIG     1      14.941  32.034  15.526  1.00  0.00    -0.019 C 
HETATM    3  C   LIG     1      15.783  31.077  14.659  1.00  0.00     0.007 C 
HETATM    4  C   LIG     1      14.889  30.237  13.739  1.00  0.00     0.032 C 
HETATM    5  C   LIG     1      13.893  31.246  16.335  1.00  0.00     0.007 C 
HETATM    6  C   LIG     1      13.002  30.405  15.411  1.00  0.00     0.032 C 
HETATM    7  C   LIG     1      13.846  29.451  14.546  1.00  0.00     0.118 C 
ENDROOT
BRANCH   7   8
HETATM    8  O   LIG     1      13.014  28.749  13.661  1.00  0.00    -0.396 OA
HETATM    9  H   LIG     1      12.310  29.383  13.366  1.00  0.00     0.210 HD
ENDBRANCH   7   8
TORSDOF 1
ENDMDL
MODEL 14
REMARK VINA RESULT:      -4.5      7.808      9.173
REMARK  1 active torsions:
REMARK  status: ('A' for Active; 'I' for Inactive)
REMARK    1  A    between atoms: C_7  and  O_8 
ROOT
HETATM    1  C   LIG     1      16.279  32.032  13.508  1.00  0.00     0.010 C 
HETATM    2  C   LIG     1      15.837  31.709  14.939  1.00  0.00    -0.019 C 
HETATM    3  C   LIG     1      15.852  32.981  15.810  1.00  0.00     0.007 C 
HETATM    4  C   LIG     1      15.384  32.675  17.238  1.00  0.00     0.032 C 
HETATM    5  C   LIG     1      14.434  31.071  14.941  1.00  0.00     0.007 C 
HETATM    6  C   LIG     1      13.968  30.771  16.372  1.00  0.00     0.032 C 
HETATM    7  C   LIG     1      13.984  32.042  17.239  1.00  0.00     0.118 C 
ENDROOT
BRANCH   7   8
HETATM    8  O   LIG     1      13.626  31.725  18.558  1.00  0.00    -0.396 OA
HETATM    9  H   LIG     1      12.988  32.424  18.857  1.00  0.00     0.210 HD
ENDBRANCH   7   8
TORSDOF 1
ENDMDL
MODEL 15
REMARK VINA RESULT:      -3.7      9.455     10.821
REMARK  1 active torsions:
REMARK  status: ('A' for Active; 'I' for Inactive)
REMARK    1  A    between atoms: C_7  and  O_8 
ROOT
HETATM    1  C   LIG     1      30.678  41.190  18.720  1.00  0.00     0.010 C 
HETATM    2  C   LIG     1      29.410  40.329  18.730  1.00  0.00    -0.019 C 
HETATM    3  C   LIG     1      29.586  39.098  17.818  1.00  0.00     0.007 C 
HETATM    4  C   LIG     1      28.334  38.213  17.842  1.00  0.00     0.032 C 
HETATM    5  C   LIG     1      29.065  39.890  20.166  1.00  0.00     0.007 C 
HETATM    6  C   LIG     1      27.814  39.002  20.185  1.00  0.00     0.032 C 
HETATM    7  C   LIG     1      27.992  37.775  19.274  1.00  0.00     0.118 C 
ENDROOT
BRANCH   7   8
HETATM    8  O   LIG     1      26.809  37.021  19.253  1.00  0.00    -0.396 OA
HETATM    9  H   LIG     1      26.057  37.667  19.305  1.00  0.00     0.210 HD
ENDBRANCH   7   8
TORSDOF 1
ENDMDL
MODEL 16
REMARK VINA RESULT:      -3.6     19.312     20.128
REMARK  1 active torsions:
REMARK  status: ('A' for Active; 'I' for Inactive)
REMARK    1  A    between atoms: C_7  and  O_8 
ROOT
HETATM    1  C   LIG     1       3.007  40.052  31.029  1.00  0.00     0.010 C 
HETATM    2  C   LIG     1       3.014  40.898  32.306  1.00  0.00    -0.019 C 
HETATM    3  C   LIG     1       3.828  40.199  33.413  1.00  0.00     0.007 C 
HETATM    4  C   LIG     1       3.867  41.049  34.689  1.00  0.00     0.032 C 
HETATM    5  C   LIG     1       3.584  42.302  32.023  1.00  0.00     0.007 C 
HETATM    6  C   LIG     1       3.625  43.148  33.303  1.00  0.00     0.032 C 
HETATM    7  C   LIG     1       4.438  42.447  34.406  1.00  0.00     0.118 C 
ENDROOT
BRANCH   7   8
HETATM    8  O   LIG     1       4.396  43.206  35.584  1.00  0.00    -0.396 OA
HETATM    9  H   LIG     1       3.673  43.876  35.468  1.00  0.00     0.210 HD
ENDBRANCH   7   8
TORSDOF 1
ENDMDL
MODEL 17
REMARK VINA RESULT:      -3.6      7.456      8.371
REMARK  1 active torsions:
REMARK  status: ('A' for Active; 'I' for Inactive)
REMARK    1  A    between atoms: C_7  and  O_8 
ROOT
HETATM    1  C   LIG     1      14.552  30.968  15.257  1.00  0.00     0.010 C 
HETATM    2  C   LIG     1      15.874  31.653  14.899  1.00  0.00    -0.019 C 
HETATM    3  C   LIG     1      15.968  31.887  13.378  1.00  0.00     0.007 C 
HETATM    4  C   LIG     1      17.275  32.598  13.010  1.00  0.00     0.032 C 
HETATM    5  C   LIG     1      16.016  32.987  15.658  1.00  0.00     0.007 C 
HETATM    6  C   LIG     1      17.324  33.697  15.284  1.00  0.00     0.032 C 
HETATM    7  C   LIG     1      17.414  33.928  13.765  1.00  0.00     0.118 C 
ENDROOT
BRANCH   7   8
HETATM    8  O   LIG     1      18.650  34.511  13.444  1.00  0.00    -0.396 OA
HETATM    9  H   LIG     1      19.325  34.098  14.043  1.00  0.00     0.210 HD
ENDBRANCH   7   8
TORSDOF 1
ENDMDL
MODEL 18
REMARK VINA RESULT:      -3.6     19.910     20.518
REMARK  1 active torsions:
REMARK  status: ('A' for Active; 'I' for Inactive)
REMARK    1  A    between atoms: C_7  and  O_8 
ROOT
HETATM    1  C   LIG     1       3.353  42.261  32.112  1.00  0.00     0.010 C 
HETATM    2  C   LIG     1       3.397  41.526  33.456  1.00  0.00    -0.019 C 
HETATM    3  C   LIG     1       3.825  40.059  33.256  1.00  0.00     0.007 C 
HETATM    4  C   LIG     1       3.901  39.320  34.598  1.00  0.00     0.032 C 
HETATM    5  C   LIG     1       4.353  42.239  34.432  1.00  0.00     0.007 C 
HETATM    6  C   LIG     1       4.428  41.494  35.771  1.00  0.00     0.032 C 
HETATM    7  C   LIG     1       4.856  40.030  35.569  1.00  0.00     0.118 C 
ENDROOT
BRANCH   7   8
HETATM    8  O   LIG     1       4.845  39.355  36.798  1.00  0.00    -0.396 OA
HETATM    9  H   LIG     1       4.284  39.893  37.415  1.00  0.00     0.210 HD
ENDBRANCH   7   8
TORSDOF 1
ENDMDL
MODEL 19
REMARK VINA RESULT:      -3.5      5.382      6.472
REMARK  1 active torsions:
REMARK  status: ('A' for Active; 'I' for Inactive)
REMARK    1  A    between atoms: C_7  and  O_8 
ROOT
HETATM    1  C   LIG     1      15.676  34.792  21.463  1.00  0.00     0.010 C 
HETATM    2  C   LIG     1      15.805  34.001  20.157  1.00  0.00    -0.019 C 
HETATM    3  C   LIG     1      15.032  32.670  20.252  1.00  0.00     0.007 C 
HETATM    4  C   LIG     1      15.129  31.882  18.940  1.00  0.00     0.032 C 
HETATM    5  C   LIG     1      15.294  34.836  18.966  1.00  0.00     0.007 C 
HETATM    6  C   LIG     1      15.390  34.042  17.656  1.00  0.00     0.032 C 
HETATM    7  C   LIG     1      14.618  32.714  17.754  1.00  0.00     0.118 C 
ENDROOT
BRANCH   7   8
HETATM    8  O   LIG     1      14.784  31.978  16.572  1.00  0.00    -0.396 OA
HETATM    9  H   LIG     1      14.966  32.633  15.849  1.00  0.00     0.210 HD
ENDBRANCH   7   8
TORSDOF 1
ENDMDL
MODEL 20
REMARK VINA RESULT:      -3.3     19.565     20.200
REMARK  1 active torsions:
REMARK  status: ('A' for Active; 'I' for Inactive)
REMARK    1  A    between atoms: C_7  and  O_8 
ROOT
HETATM    1  C   LIG     1      30.185  32.755  38.127  1.00  0.00     0.010 C 
HETATM    2  C   LIG     1      28.982  31.884  37.751  1.00  0.00    -0.019 C 
HETATM    3  C   LIG     1      27.664  32.611  38.082  1.00  0.00     0.007 C 
HETATM    4  C   LIG     1      26.451  31.760  37.684  1.00  0.00     0.032 C 
HETATM    5  C   LIG     1      29.031  31.509  36.257  1.00  0.00     0.007 C 
HETATM    6  C   LIG     1      27.814  30.662  35.862  1.00  0.00     0.032 C 
HETATM    7  C   LIG     1      26.500  31.390  36.194  1.00  0.00     0.118 C 
ENDROOT
BRANCH   7   8
HETATM    8  O   LIG     1      25.407  30.564  35.891  1.00  0.00    -0.396 OA
HETATM    9  H   LIG     1      24.675  31.158  35.584  1.00  0.00     0.210 HD
ENDBRANCH   7   8
TORSDOF 1
ENDMDL
