REMARK  2 active torsions:
REMARK  status: ('A' for Active; 'I' for Inactive)
REMARK    1  A    between atoms: O_1  and  C_2 
REMARK    2  A    between atoms: C_2  and  C_3 
ROOT
HETATM    1  C   LIG     1       1.190  -0.280  -0.063  1.00  0.00    -0.035 A 
HETATM    2  C   LIG     1       0.677   0.848   0.607  1.00  0.00     0.010 A 
HETATM    3  C   LIG     1      -0.702   1.068   0.667  1.00  0.00     0.007 A 
HETATM    4  C   LIG     1      -1.590   0.173   0.052  1.00  0.00    -0.062 A 
HETATM    5  C   LIG     1      -3.071   0.390   0.152  1.00  0.00     0.048 C 
HETATM    6  C   LIG     1      -1.084  -0.962  -0.597  1.00  0.00     0.007 A 
HETATM    7  C   LIG     1       0.295  -1.183  -0.658  1.00  0.00     0.010 A 
ENDROOT
BRANCH   1   8
HETATM    8  C   LIG     1       2.672  -0.563  -0.153  1.00  0.00     0.202 C 
BRANCH   8   9
HETATM    9  O   LIG     1       3.445   0.438   0.455  1.00  0.00    -0.396 OA
HETATM   10  H   LIG     1       3.506   1.184  -0.198  1.00  0.00     0.209 HD
ENDBRANCH   8   9
ENDBRANCH   1   8
TORSDOF 2
