REMARK  0 active torsions:
REMARK  status: ('A' for Active; 'I' for Inactive)
ROOT
HETATM    1  C   LIG     1       2.823  -0.111  -0.442  1.00  0.00     0.049 C 
HETATM    2  C   LIG     1       1.329  -0.009  -0.365  1.00  0.00    -0.044 A 
HETATM    3  C   LIG     1       0.510  -1.104  -0.673  1.00  0.00     0.010 A 
HETATM    4  C   LIG     1      -0.878  -0.982  -0.593  1.00  0.00     0.027 A 
HETATM    5  C   LIG     1      -1.440   0.240  -0.204  1.00  0.00     0.030 A 
HETATM    6  C   LIG     1      -2.924   0.394  -0.112  1.00  0.00     0.070 C 
HETATM    7  N   LIG     1      -0.628   1.292   0.090  1.00  0.00    -0.265 NA
HETATM    8  C   LIG     1       0.726   1.197   0.019  1.00  0.00     0.123 A 
ENDROOT
TORSDOF 0
