MODEL 1
REMARK VINA RESULT:      -6.0      0.000      0.000
REMARK  0 active torsions:
REMARK  status: ('A' for Active; 'I' for Inactive)
ROOT
HETATM    1  C   LIG     1      16.649  38.907  22.498  1.00  0.00     0.010 C 
HETATM    2  C   LIG     1      17.372  37.833  23.316  1.00  0.00    -0.018 C 
HETATM    3  C   LIG     1      16.664  36.473  23.169  1.00  0.00     0.004 C 
HETATM    4  C   LIG     1      17.364  35.394  24.005  1.00  0.00     0.004 C 
HETATM    5  C   LIG     1      17.442  35.805  25.488  1.00  0.00    -0.018 C 
HETATM    6  C   LIG     1      18.166  34.731  26.306  1.00  0.00     0.010 C 
HETATM    7  C   LIG     1      18.151  37.165  25.634  1.00  0.00     0.004 C 
HETATM    8  C   LIG     1      17.450  38.244  24.799  1.00  0.00     0.004 C 
ENDROOT
TORSDOF 0
ENDMDL
MODEL 2
REMARK VINA RESULT:      -6.0      0.029      3.457
REMARK  0 active torsions:
REMARK  status: ('A' for Active; 'I' for Inactive)
ROOT
HETATM    1  C   LIG     1      18.188  34.721  26.321  1.00  0.00     0.010 C 
HETATM    2  C   LIG     1      17.462  35.797  25.508  1.00  0.00    -0.018 C 
HETATM    3  C   LIG     1      17.363  35.384  24.029  1.00  0.00     0.004 C 
HETATM    4  C   LIG     1      16.660  36.466  23.199  1.00  0.00     0.004 C 
HETATM    5  C   LIG     1      17.380  37.822  23.334  1.00  0.00    -0.018 C 
HETATM    6  C   LIG     1      16.654  38.898  22.521  1.00  0.00     0.010 C 
HETATM    7  C   LIG     1      17.478  38.236  24.814  1.00  0.00     0.004 C 
HETATM    8  C   LIG     1      18.181  37.153  25.643  1.00  0.00     0.004 C 
ENDROOT
TORSDOF 0
ENDMDL
MODEL 3
REMARK VINA RESULT:      -5.8      3.108      5.160
REMARK  0 active torsions:
REMARK  status: ('A' for Active; 'I' for Inactive)
ROOT
HETATM    1  C   LIG     1      16.021  36.624  22.244  1.00  0.00     0.010 C 
HETATM    2  C   LIG     1      17.401  37.042  21.726  1.00  0.00    -0.018 C 
HETATM    3  C   LIG     1      17.534  38.576  21.717  1.00  0.00     0.004 C 
HETATM    4  C   LIG     1      18.902  39.008  21.176  1.00  0.00     0.004 C 
HETATM    5  C   LIG     1      19.145  38.438  19.765  1.00  0.00    -0.018 C 
HETATM    6  C   LIG     1      20.525  38.856  19.247  1.00  0.00     0.010 C 
HETATM    7  C   LIG     1      19.013  36.903  19.774  1.00  0.00     0.004 C 
HETATM    8  C   LIG     1      17.644  36.471  20.315  1.00  0.00     0.004 C 
ENDROOT
TORSDOF 0
ENDMDL
MODEL 4
REMARK VINA RESULT:      -5.8      3.080      4.593
REMARK  0 active torsions:
REMARK  status: ('A' for Active; 'I' for Inactive)
ROOT
HETATM    1  C   LIG     1      20.479  38.871  19.307  1.00  0.00     0.010 C 
HETATM    2  C   LIG     1      19.104  38.415  19.805  1.00  0.00    -0.018 C 
HETATM    3  C   LIG     1      18.845  38.937  21.230  1.00  0.00     0.004 C 
HETATM    4  C   LIG     1      17.480  38.465  21.750  1.00  0.00     0.004 C 
HETATM    5  C   LIG     1      17.373  36.929  21.710  1.00  0.00    -0.018 C 
HETATM    6  C   LIG     1      15.998  36.473  22.208  1.00  0.00     0.010 C 
HETATM    7  C   LIG     1      17.631  36.408  20.284  1.00  0.00     0.004 C 
HETATM    8  C   LIG     1      18.996  36.878  19.764  1.00  0.00     0.004 C 
ENDROOT
TORSDOF 0
ENDMDL
MODEL 5
REMARK VINA RESULT:      -5.8      0.461      3.869
REMARK  0 active torsions:
REMARK  status: ('A' for Active; 'I' for Inactive)
ROOT
HETATM    1  C   LIG     1      17.966  34.747  26.478  1.00  0.00     0.010 C 
HETATM    2  C   LIG     1      17.986  35.784  25.351  1.00  0.00    -0.018 C 
HETATM    3  C   LIG     1      17.607  37.175  25.889  1.00  0.00     0.004 C 
HETATM    4  C   LIG     1      17.598  38.218  24.764  1.00  0.00     0.004 C 
HETATM    5  C   LIG     1      16.643  37.800  23.629  1.00  0.00    -0.018 C 
HETATM    6  C   LIG     1      16.663  38.837  22.501  1.00  0.00     0.010 C 
HETATM    7  C   LIG     1      17.024  36.409  23.090  1.00  0.00     0.004 C 
HETATM    8  C   LIG     1      17.032  35.366  24.215  1.00  0.00     0.004 C 
ENDROOT
TORSDOF 0
ENDMDL
MODEL 6
REMARK VINA RESULT:      -5.7      0.517      1.861
REMARK  0 active torsions:
REMARK  status: ('A' for Active; 'I' for Inactive)
ROOT
HETATM    1  C   LIG     1      17.149  38.744  22.183  1.00  0.00     0.010 C 
HETATM    2  C   LIG     1      16.919  37.776  23.347  1.00  0.00    -0.018 C 
HETATM    3  C   LIG     1      17.816  38.145  24.543  1.00  0.00     0.004 C 
HETATM    4  C   LIG     1      17.613  37.167  25.708  1.00  0.00     0.004 C 
HETATM    5  C   LIG     1      17.876  35.715  25.264  1.00  0.00    -0.018 C 
HETATM    6  C   LIG     1      17.646  34.748  26.429  1.00  0.00     0.010 C 
HETATM    7  C   LIG     1      16.978  35.346  24.068  1.00  0.00     0.004 C 
HETATM    8  C   LIG     1      17.182  36.324  22.904  1.00  0.00     0.004 C 
ENDROOT
TORSDOF 0
ENDMDL
MODEL 7
REMARK VINA RESULT:      -5.5      3.037      4.866
REMARK  0 active torsions:
REMARK  status: ('A' for Active; 'I' for Inactive)
ROOT
HETATM    1  C   LIG     1      16.557  36.771  22.916  1.00  0.00     0.010 C 
HETATM    2  C   LIG     1      17.186  37.472  21.707  1.00  0.00    -0.018 C 
HETATM    3  C   LIG     1      18.001  36.473  20.867  1.00  0.00     0.004 C 
HETATM    4  C   LIG     1      18.658  37.168  19.667  1.00  0.00     0.004 C 
HETATM    5  C   LIG     1      19.547  38.340  20.125  1.00  0.00    -0.018 C 
HETATM    6  C   LIG     1      20.176  39.041  18.917  1.00  0.00     0.010 C 
HETATM    7  C   LIG     1      18.731  39.340  20.965  1.00  0.00     0.004 C 
HETATM    8  C   LIG     1      18.075  38.644  22.165  1.00  0.00     0.004 C 
ENDROOT
TORSDOF 0
ENDMDL
MODEL 8
REMARK VINA RESULT:      -5.5      3.046      4.130
REMARK  0 active torsions:
REMARK  status: ('A' for Active; 'I' for Inactive)
ROOT
HETATM    1  C   LIG     1      20.216  38.984  18.936  1.00  0.00     0.010 C 
HETATM    2  C   LIG     1      19.558  38.298  20.137  1.00  0.00    -0.018 C 
HETATM    3  C   LIG     1      18.671  37.128  19.672  1.00  0.00     0.004 C 
HETATM    4  C   LIG     1      17.986  36.448  20.865  1.00  0.00     0.004 C 
HETATM    5  C   LIG     1      17.159  37.462  21.680  1.00  0.00    -0.018 C 
HETATM    6  C   LIG     1      16.501  36.775  22.881  1.00  0.00     0.010 C 
HETATM    7  C   LIG     1      18.046  38.631  22.145  1.00  0.00     0.004 C 
HETATM    8  C   LIG     1      18.731  39.311  20.952  1.00  0.00     0.004 C 
ENDROOT
TORSDOF 0
ENDMDL
MODEL 9
REMARK VINA RESULT:      -5.4      1.427      2.510
REMARK  0 active torsions:
REMARK  status: ('A' for Active; 'I' for Inactive)
ROOT
HETATM    1  C   LIG     1      16.562  35.492  20.502  1.00  0.00     0.010 C 
HETATM    2  C   LIG     1      17.190  36.002  21.803  1.00  0.00    -0.018 C 
HETATM    3  C   LIG     1      16.724  35.150  22.998  1.00  0.00     0.004 C 
HETATM    4  C   LIG     1      17.326  35.666  24.311  1.00  0.00     0.004 C 
HETATM    5  C   LIG     1      16.974  37.149  24.536  1.00  0.00    -0.018 C 
HETATM    6  C   LIG     1      17.601  37.659  25.838  1.00  0.00     0.010 C 
HETATM    7  C   LIG     1      17.441  38.001  23.341  1.00  0.00     0.004 C 
HETATM    8  C   LIG     1      16.838  37.485  22.028  1.00  0.00     0.004 C 
ENDROOT
TORSDOF 0
ENDMDL
MODEL 10
REMARK VINA RESULT:      -5.3      1.351      3.333
REMARK  0 active torsions:
REMARK  status: ('A' for Active; 'I' for Inactive)
ROOT
HETATM    1  C   LIG     1      17.875  37.153  26.069  1.00  0.00     0.010 C 
HETATM    2  C   LIG     1      17.164  36.835  24.750  1.00  0.00    -0.018 C 
HETATM    3  C   LIG     1      17.410  35.370  24.342  1.00  0.00     0.004 C 
HETATM    4  C   LIG     1      16.724  35.046  23.009  1.00  0.00     0.004 C 
HETATM    5  C   LIG     1      17.196  36.003  21.896  1.00  0.00    -0.018 C 
HETATM    6  C   LIG     1      16.485  35.685  20.577  1.00  0.00     0.010 C 
HETATM    7  C   LIG     1      16.949  37.467  22.304  1.00  0.00     0.004 C 
HETATM    8  C   LIG     1      17.636  37.791  23.637  1.00  0.00     0.004 C 
ENDROOT
TORSDOF 0
ENDMDL
MODEL 11
REMARK VINA RESULT:      -5.1      2.748      4.457
REMARK  0 active torsions:
REMARK  status: ('A' for Active; 'I' for Inactive)
ROOT
HETATM    1  C   LIG     1      15.876  34.380  20.716  1.00  0.00     0.010 C 
HETATM    2  C   LIG     1      16.835  35.460  21.225  1.00  0.00    -0.018 C 
HETATM    3  C   LIG     1      16.093  36.460  22.129  1.00  0.00     0.004 C 
HETATM    4  C   LIG     1      17.038  37.562  22.625  1.00  0.00     0.004 C 
HETATM    5  C   LIG     1      17.703  38.294  21.444  1.00  0.00    -0.018 C 
HETATM    6  C   LIG     1      18.663  39.374  21.953  1.00  0.00     0.010 C 
HETATM    7  C   LIG     1      18.447  37.293  20.540  1.00  0.00     0.004 C 
HETATM    8  C   LIG     1      17.501  36.192  20.043  1.00  0.00     0.004 C 
ENDROOT
TORSDOF 0
ENDMDL
MODEL 12
REMARK VINA RESULT:      -5.0      2.247      4.286
REMARK  0 active torsions:
REMARK  status: ('A' for Active; 'I' for Inactive)
ROOT
HETATM    1  C   LIG     1      16.751  37.871  24.584  1.00  0.00     0.010 C 
HETATM    2  C   LIG     1      17.593  37.571  23.340  1.00  0.00    -0.018 C 
HETATM    3  C   LIG     1      17.749  38.835  22.475  1.00  0.00     0.004 C 
HETATM    4  C   LIG     1      18.570  38.541  21.212  1.00  0.00     0.004 C 
HETATM    5  C   LIG     1      17.936  37.401  20.392  1.00  0.00    -0.018 C 
HETATM    6  C   LIG     1      18.778  37.101  19.149  1.00  0.00     0.010 C 
HETATM    7  C   LIG     1      17.780  36.136  21.258  1.00  0.00     0.004 C 
HETATM    8  C   LIG     1      16.958  36.431  22.520  1.00  0.00     0.004 C 
ENDROOT
TORSDOF 0
ENDMDL
MODEL 13
REMARK VINA RESULT:      -5.0      2.822      4.307
REMARK  0 active torsions:
REMARK  status: ('A' for Active; 'I' for Inactive)
ROOT
HETATM    1  C   LIG     1      15.718  34.664  21.537  1.00  0.00     0.010 C 
HETATM    2  C   LIG     1      16.262  36.062  21.231  1.00  0.00    -0.018 C 
HETATM    3  C   LIG     1      17.678  35.973  20.632  1.00  0.00     0.004 C 
HETATM    4  C   LIG     1      18.245  37.369  20.344  1.00  0.00     0.004 C 
HETATM    5  C   LIG     1      18.251  38.237  21.617  1.00  0.00    -0.018 C 
HETATM    6  C   LIG     1      18.795  39.636  21.311  1.00  0.00     0.010 C 
HETATM    7  C   LIG     1      16.835  38.327  22.216  1.00  0.00     0.004 C 
HETATM    8  C   LIG     1      16.269  36.930  22.504  1.00  0.00     0.004 C 
ENDROOT
TORSDOF 0
ENDMDL
MODEL 14
REMARK VINA RESULT:      -4.9      9.443     10.911
REMARK  0 active torsions:
REMARK  status: ('A' for Active; 'I' for Inactive)
ROOT
HETATM    1  C   LIG     1      15.050  33.876  17.217  1.00  0.00     0.010 C 
HETATM    2  C   LIG     1      14.878  32.431  16.738  1.00  0.00    -0.018 C 
HETATM    3  C   LIG     1      15.473  32.253  15.329  1.00  0.00     0.004 C 
HETATM    4  C   LIG     1      15.284  30.816  14.828  1.00  0.00     0.004 C 
HETATM    5  C   LIG     1      13.796  30.416  14.841  1.00  0.00    -0.018 C 
HETATM    6  C   LIG     1      13.624  28.971  14.363  1.00  0.00     0.010 C 
HETATM    7  C   LIG     1      13.201  30.593  16.250  1.00  0.00     0.004 C 
HETATM    8  C   LIG     1      13.390  32.032  16.751  1.00  0.00     0.004 C 
ENDROOT
TORSDOF 0
ENDMDL
MODEL 15
REMARK VINA RESULT:      -4.7      9.401     10.854
REMARK  0 active torsions:
REMARK  status: ('A' for Active; 'I' for Inactive)
ROOT
HETATM    1  C   LIG     1      12.969  30.408  16.342  1.00  0.00     0.010 C 
HETATM    2  C   LIG     1      13.945  31.392  15.690  1.00  0.00    -0.018 C 
HETATM    3  C   LIG     1      14.872  30.660  14.702  1.00  0.00     0.004 C 
HETATM    4  C   LIG     1      15.872  31.631  14.061  1.00  0.00     0.004 C 
HETATM    5  C   LIG     1      16.699  32.364  15.136  1.00  0.00    -0.018 C 
HETATM    6  C   LIG     1      17.675  33.348  14.483  1.00  0.00     0.010 C 
HETATM    7  C   LIG     1      15.771  33.097  16.122  1.00  0.00     0.004 C 
HETATM    8  C   LIG     1      14.771  32.125  16.764  1.00  0.00     0.004 C 
ENDROOT
TORSDOF 0
ENDMDL
MODEL 16
REMARK VINA RESULT:      -4.6      2.330      4.004
REMARK  0 active torsions:
REMARK  status: ('A' for Active; 'I' for Inactive)
ROOT
HETATM    1  C   LIG     1      15.436  33.581  20.332  1.00  0.00     0.010 C 
HETATM    2  C   LIG     1      15.551  34.544  21.518  1.00  0.00    -0.018 C 
HETATM    3  C   LIG     1      14.940  35.912  21.165  1.00  0.00     0.004 C 
HETATM    4  C   LIG     1      15.073  36.894  22.337  1.00  0.00     0.004 C 
HETATM    5  C   LIG     1      16.545  37.053  22.763  1.00  0.00    -0.018 C 
HETATM    6  C   LIG     1      16.660  38.015  23.949  1.00  0.00     0.010 C 
HETATM    7  C   LIG     1      17.155  35.684  23.117  1.00  0.00     0.004 C 
HETATM    8  C   LIG     1      17.023  34.703  21.944  1.00  0.00     0.004 C 
ENDROOT
TORSDOF 0
ENDMDL
MODEL 17
REMARK VINA RESULT:      -4.6      2.879      4.018
REMARK  0 active torsions:
REMARK  status: ('A' for Active; 'I' for Inactive)
ROOT
HETATM    1  C   LIG     1      16.782  38.900  22.711  1.00  0.00     0.010 C 
HETATM    2  C   LIG     1      16.557  37.414  22.417  1.00  0.00    -0.018 C 
HETATM    3  C   LIG     1      17.502  36.935  21.299  1.00  0.00     0.004 C 
HETATM    4  C   LIG     1      17.268  35.453  20.977  1.00  0.00     0.004 C 
HETATM    5  C   LIG     1      15.799  35.195  20.590  1.00  0.00    -0.018 C 
HETATM    6  C   LIG     1      15.574  33.709  20.296  1.00  0.00     0.010 C 
HETATM    7  C   LIG     1      14.855  35.674  21.708  1.00  0.00     0.004 C 
HETATM    8  C   LIG     1      15.088  37.156  22.029  1.00  0.00     0.004 C 
ENDROOT
TORSDOF 0
ENDMDL
MODEL 18
REMARK VINA RESULT:      -3.7     16.272     18.439
REMARK  0 active torsions:
REMARK  status: ('A' for Active; 'I' for Inactive)
ROOT
HETATM    1  C   LIG     1      22.750  22.285  37.559  1.00  0.00     0.010 C 
HETATM    2  C   LIG     1      21.810  22.813  36.471  1.00  0.00    -0.018 C 
HETATM    3  C   LIG     1      20.678  21.806  36.198  1.00  0.00     0.004 C 
HETATM    4  C   LIG     1      19.744  22.312  35.092  1.00  0.00     0.004 C 
HETATM    5  C   LIG     1      20.527  22.609  33.798  1.00  0.00    -0.018 C 
HETATM    6  C   LIG     1      19.586  23.137  32.710  1.00  0.00     0.010 C 
HETATM    7  C   LIG     1      21.658  23.617  34.071  1.00  0.00     0.004 C 
HETATM    8  C   LIG     1      22.593  23.110  35.177  1.00  0.00     0.004 C 
ENDROOT
TORSDOF 0
ENDMDL
