REMARK  0 active torsions:
REMARK  status: ('A' for Active; 'I' for Inactive)
ROOT
HETATM    1  C   LIG     1      -2.421  -0.697  -0.099  1.00  0.00     0.002 A 
HETATM    2  C   LIG     1      -2.425   0.700  -0.128  1.00  0.00     0.001 A 
HETATM    3  C   LIG     1      -1.221   1.409  -0.086  1.00  0.00     0.013 A 
HETATM    4  C   LIG     1      -0.002   0.718  -0.015  1.00  0.00    -0.009 A 
HETATM    5  C   LIG     1       1.217   1.404   0.029  1.00  0.00     0.019 A 
HETATM    6  C   LIG     1       2.413   0.690   0.099  1.00  0.00     0.075 A 
HETATM    7  C   LIG     1       2.383  -0.707   0.126  1.00  0.00     0.245 A 
HETATM    8  O   LIG     1       3.462  -1.355   0.189  1.00  0.00    -0.268 OA
HETATM    9  N   LIG     1       1.192  -1.369   0.083  1.00  0.00    -0.323 N 
HETATM   10  C   LIG     1       0.005  -0.697   0.014  1.00  0.00     0.045 A 
HETATM   11  C   LIG     1      -1.212  -1.396  -0.028  1.00  0.00     0.030 A 
HETATM   12  H   LIG     1       1.196  -2.415   0.105  1.00  0.00     0.169 HD
ENDROOT
TORSDOF 0
