MODEL 1
REMARK VINA RESULT:      -7.8      0.000      0.000
REMARK  0 active torsions:
REMARK  status: ('A' for Active; 'I' for Inactive)
ROOT
HETATM    1  C   LIG     1      18.312  36.160  26.869  1.00  0.00     0.002 A 
HETATM    2  C   LIG     1      18.217  34.907  26.258  1.00  0.00     0.001 A 
HETATM    3  C   LIG     1      17.658  34.786  24.983  1.00  0.00     0.013 A 
HETATM    4  C   LIG     1      17.190  35.925  24.311  1.00  0.00    -0.009 A 
HETATM    5  C   LIG     1      16.625  35.831  23.034  1.00  0.00     0.019 A 
HETATM    6  C   LIG     1      16.168  36.981  22.390  1.00  0.00     0.075 A 
HETATM    7  C   LIG     1      16.278  38.219  23.029  1.00  0.00     0.245 A 
HETATM    8  O   LIG     1      15.866  39.260  22.450  1.00  0.00    -0.268 OA
HETATM    9  N   LIG     1      16.829  38.304  24.273  1.00  0.00    -0.323 N 
HETATM   10  C   LIG     1      17.285  37.195  24.927  1.00  0.00     0.045 A 
HETATM   11  C   LIG     1      17.848  37.302  26.209  1.00  0.00     0.030 A 
HETATM   12  H   LIG     1      16.899  39.242  24.730  1.00  0.00     0.169 HD
ENDROOT
TORSDOF 0
ENDMDL
MODEL 2
REMARK VINA RESULT:      -7.6      2.939      4.555
REMARK  0 active torsions:
REMARK  status: ('A' for Active; 'I' for Inactive)
ROOT
HETATM    1  C   LIG     1      19.646  39.158  19.791  1.00  0.00     0.002 A 
HETATM    2  C   LIG     1      19.696  37.872  19.246  1.00  0.00     0.001 A 
HETATM    3  C   LIG     1      18.884  36.857  19.760  1.00  0.00     0.013 A 
HETATM    4  C   LIG     1      18.015  37.126  20.828  1.00  0.00    -0.009 A 
HETATM    5  C   LIG     1      17.192  36.127  21.361  1.00  0.00     0.019 A 
HETATM    6  C   LIG     1      16.338  36.425  22.422  1.00  0.00     0.075 A 
HETATM    7  C   LIG     1      16.311  37.721  22.945  1.00  0.00     0.245 A 
HETATM    8  O   LIG     1      15.540  37.993  23.904  1.00  0.00    -0.268 OA
HETATM    9  N   LIG     1      17.115  38.689  22.421  1.00  0.00    -0.323 N 
HETATM   10  C   LIG     1      17.961  38.427  21.382  1.00  0.00     0.045 A 
HETATM   11  C   LIG     1      18.783  39.437  20.856  1.00  0.00     0.030 A 
HETATM   12  H   LIG     1      17.076  39.651  22.830  1.00  0.00     0.169 HD
ENDROOT
TORSDOF 0
ENDMDL
MODEL 3
REMARK VINA RESULT:      -7.4      1.597      2.311
REMARK  0 active torsions:
REMARK  status: ('A' for Active; 'I' for Inactive)
ROOT
HETATM    1  C   LIG     1      18.036  35.175  26.403  1.00  0.00     0.002 A 
HETATM    2  C   LIG     1      18.278  36.526  26.669  1.00  0.00     0.001 A 
HETATM    3  C   LIG     1      18.008  37.494  25.698  1.00  0.00     0.013 A 
HETATM    4  C   LIG     1      17.491  37.112  24.451  1.00  0.00    -0.009 A 
HETATM    5  C   LIG     1      17.214  38.062  23.461  1.00  0.00     0.019 A 
HETATM    6  C   LIG     1      16.700  37.652  22.231  1.00  0.00     0.075 A 
HETATM    7  C   LIG     1      16.469  36.294  21.996  1.00  0.00     0.245 A 
HETATM    8  O   LIG     1      16.004  35.921  20.886  1.00  0.00    -0.268 OA
HETATM    9  N   LIG     1      16.742  35.374  22.965  1.00  0.00    -0.323 N 
HETATM   10  C   LIG     1      17.245  35.745  24.179  1.00  0.00     0.045 A 
HETATM   11  C   LIG     1      17.521  34.783  25.164  1.00  0.00     0.030 A 
HETATM   12  H   LIG     1      16.560  34.363  22.765  1.00  0.00     0.169 HD
ENDROOT
TORSDOF 0
ENDMDL
MODEL 4
REMARK VINA RESULT:      -7.3      3.465      4.392
REMARK  0 active torsions:
REMARK  status: ('A' for Active; 'I' for Inactive)
ROOT
HETATM    1  C   LIG     1      16.198  38.126  23.026  1.00  0.00     0.002 A 
HETATM    2  C   LIG     1      16.063  36.804  22.596  1.00  0.00     0.001 A 
HETATM    3  C   LIG     1      16.867  36.312  21.564  1.00  0.00     0.013 A 
HETATM    4  C   LIG     1      17.816  37.148  20.956  1.00  0.00    -0.009 A 
HETATM    5  C   LIG     1      18.634  36.680  19.921  1.00  0.00     0.019 A 
HETATM    6  C   LIG     1      19.568  37.534  19.335  1.00  0.00     0.075 A 
HETATM    7  C   LIG     1      19.679  38.852  19.788  1.00  0.00     0.245 A 
HETATM    8  O   LIG     1      20.523  39.625  19.261  1.00  0.00    -0.268 OA
HETATM    9  N   LIG     1      18.880  39.300  20.797  1.00  0.00    -0.323 N 
HETATM   10  C   LIG     1      17.956  38.488  21.389  1.00  0.00     0.045 A 
HETATM   11  C   LIG     1      17.140  38.968  22.426  1.00  0.00     0.030 A 
HETATM   12  H   LIG     1      18.982  40.291  21.118  1.00  0.00     0.169 HD
ENDROOT
TORSDOF 0
ENDMDL
MODEL 5
REMARK VINA RESULT:      -7.2      3.544      5.127
REMARK  0 active torsions:
REMARK  status: ('A' for Active; 'I' for Inactive)
ROOT
HETATM    1  C   LIG     1      19.834  38.148  19.424  1.00  0.00     0.002 A 
HETATM    2  C   LIG     1      19.618  39.177  20.345  1.00  0.00     0.001 A 
HETATM    3  C   LIG     1      18.614  39.059  21.311  1.00  0.00     0.013 A 
HETATM    4  C   LIG     1      17.819  37.904  21.359  1.00  0.00    -0.009 A 
HETATM    5  C   LIG     1      16.807  37.761  22.315  1.00  0.00     0.019 A 
HETATM    6  C   LIG     1      16.034  36.601  22.339  1.00  0.00     0.075 A 
HETATM    7  C   LIG     1      16.275  35.590  21.405  1.00  0.00     0.245 A 
HETATM    8  O   LIG     1      15.578  34.541  21.424  1.00  0.00    -0.268 OA
HETATM    9  N   LIG     1      17.262  35.736  20.476  1.00  0.00    -0.323 N 
HETATM   10  C   LIG     1      18.036  36.860  20.428  1.00  0.00     0.045 A 
HETATM   11  C   LIG     1      19.048  36.992  19.463  1.00  0.00     0.030 A 
HETATM   12  H   LIG     1      17.423  34.965  19.787  1.00  0.00     0.169 HD
ENDROOT
TORSDOF 0
ENDMDL
MODEL 6
REMARK VINA RESULT:      -6.7      3.206      4.468
REMARK  0 active torsions:
REMARK  status: ('A' for Active; 'I' for Inactive)
ROOT
HETATM    1  C   LIG     1      16.844  35.263  21.957  1.00  0.00     0.002 A 
HETATM    2  C   LIG     1      16.629  36.108  23.049  1.00  0.00     0.001 A 
HETATM    3  C   LIG     1      17.088  37.428  23.020  1.00  0.00     0.013 A 
HETATM    4  C   LIG     1      17.767  37.910  21.891  1.00  0.00    -0.009 A 
HETATM    5  C   LIG     1      18.238  39.226  21.837  1.00  0.00     0.019 A 
HETATM    6  C   LIG     1      18.910  39.677  20.701  1.00  0.00     0.075 A 
HETATM    7  C   LIG     1      19.108  38.807  19.625  1.00  0.00     0.245 A 
HETATM    8  O   LIG     1      19.715  39.212  18.597  1.00  0.00    -0.268 OA
HETATM    9  N   LIG     1      18.648  37.526  19.684  1.00  0.00    -0.323 N 
HETATM   10  C   LIG     1      17.986  37.056  20.783  1.00  0.00     0.045 A 
HETATM   11  C   LIG     1      17.520  35.732  20.827  1.00  0.00     0.030 A 
HETATM   12  H   LIG     1      18.809  36.894  18.866  1.00  0.00     0.169 HD
ENDROOT
TORSDOF 0
ENDMDL
MODEL 7
REMARK VINA RESULT:      -6.6      2.222      3.851
REMARK  0 active torsions:
REMARK  status: ('A' for Active; 'I' for Inactive)
ROOT
HETATM    1  C   LIG     1      17.194  38.462  22.230  1.00  0.00     0.002 A 
HETATM    2  C   LIG     1      16.721  37.264  21.686  1.00  0.00     0.001 A 
HETATM    3  C   LIG     1      16.739  36.091  22.445  1.00  0.00     0.013 A 
HETATM    4  C   LIG     1      17.232  36.112  23.759  1.00  0.00    -0.009 A 
HETATM    5  C   LIG     1      17.261  34.951  24.539  1.00  0.00     0.019 A 
HETATM    6  C   LIG     1      17.757  35.003  25.842  1.00  0.00     0.075 A 
HETATM    7  C   LIG     1      18.221  36.216  26.356  1.00  0.00     0.245 A 
HETATM    8  O   LIG     1      18.669  36.267  27.533  1.00  0.00    -0.268 OA
HETATM    9  N   LIG     1      18.190  37.344  25.590  1.00  0.00    -0.323 N 
HETATM   10  C   LIG     1      17.710  37.324  24.312  1.00  0.00     0.045 A 
HETATM   11  C   LIG     1      17.687  38.495  23.537  1.00  0.00     0.030 A 
HETATM   12  H   LIG     1      18.544  38.240  25.998  1.00  0.00     0.169 HD
ENDROOT
TORSDOF 0
ENDMDL
MODEL 8
REMARK VINA RESULT:      -6.6      2.137      2.802
REMARK  0 active torsions:
REMARK  status: ('A' for Active; 'I' for Inactive)
ROOT
HETATM    1  C   LIG     1      17.924  35.842  26.063  1.00  0.00     0.002 A 
HETATM    2  C   LIG     1      17.714  37.218  25.942  1.00  0.00     0.001 A 
HETATM    3  C   LIG     1      17.244  37.756  24.741  1.00  0.00     0.013 A 
HETATM    4  C   LIG     1      16.980  36.914  23.651  1.00  0.00    -0.009 A 
HETATM    5  C   LIG     1      16.509  37.427  22.437  1.00  0.00     0.019 A 
HETATM    6  C   LIG     1      16.255  36.565  21.370  1.00  0.00     0.075 A 
HETATM    7  C   LIG     1      16.475  35.193  21.524  1.00  0.00     0.245 A 
HETATM    8  O   LIG     1      16.246  34.412  20.562  1.00  0.00    -0.268 OA
HETATM    9  N   LIG     1      16.933  34.700  22.709  1.00  0.00    -0.323 N 
HETATM   10  C   LIG     1      17.191  35.519  23.771  1.00  0.00     0.045 A 
HETATM   11  C   LIG     1      17.664  34.993  24.983  1.00  0.00     0.030 A 
HETATM   12  H   LIG     1      17.090  33.669  22.798  1.00  0.00     0.169 HD
ENDROOT
TORSDOF 0
ENDMDL
MODEL 9
REMARK VINA RESULT:      -6.4      1.532      3.403
REMARK  0 active torsions:
REMARK  status: ('A' for Active; 'I' for Inactive)
ROOT
HETATM    1  C   LIG     1      16.288  36.093  21.265  1.00  0.00     0.002 A 
HETATM    2  C   LIG     1      16.686  34.865  21.802  1.00  0.00     0.001 A 
HETATM    3  C   LIG     1      17.121  34.785  23.128  1.00  0.00     0.013 A 
HETATM    4  C   LIG     1      17.161  35.939  23.925  1.00  0.00    -0.009 A 
HETATM    5  C   LIG     1      17.594  35.886  25.254  1.00  0.00     0.019 A 
HETATM    6  C   LIG     1      17.622  37.049  26.022  1.00  0.00     0.075 A 
HETATM    7  C   LIG     1      17.218  38.261  25.455  1.00  0.00     0.245 A 
HETATM    8  O   LIG     1      17.242  39.315  26.147  1.00  0.00    -0.268 OA
HETATM    9  N   LIG     1      16.797  38.306  24.159  1.00  0.00    -0.323 N 
HETATM   10  C   LIG     1      16.759  37.183  23.383  1.00  0.00     0.045 A 
HETATM   11  C   LIG     1      16.324  37.249  22.050  1.00  0.00     0.030 A 
HETATM   12  H   LIG     1      16.501  39.226  23.758  1.00  0.00     0.169 HD
ENDROOT
TORSDOF 0
ENDMDL
MODEL 10
REMARK VINA RESULT:      -6.3      1.967      2.608
REMARK  0 active torsions:
REMARK  status: ('A' for Active; 'I' for Inactive)
ROOT
HETATM    1  C   LIG     1      17.547  38.626  25.039  1.00  0.00     0.002 A 
HETATM    2  C   LIG     1      17.484  37.473  25.826  1.00  0.00     0.001 A 
HETATM    3  C   LIG     1      17.304  36.222  25.229  1.00  0.00     0.013 A 
HETATM    4  C   LIG     1      17.186  36.120  23.835  1.00  0.00    -0.009 A 
HETATM    5  C   LIG     1      17.004  34.879  23.214  1.00  0.00     0.019 A 
HETATM    6  C   LIG     1      16.890  34.808  21.825  1.00  0.00     0.075 A 
HETATM    7  C   LIG     1      16.957  35.980  21.066  1.00  0.00     0.245 A 
HETATM    8  O   LIG     1      16.855  35.919  19.812  1.00  0.00    -0.268 OA
HETATM    9  N   LIG     1      17.135  37.185  21.678  1.00  0.00    -0.323 N 
HETATM   10  C   LIG     1      17.249  37.285  23.035  1.00  0.00     0.045 A 
HETATM   11  C   LIG     1      17.430  38.536  23.648  1.00  0.00     0.030 A 
HETATM   12  H   LIG     1      17.181  38.048  21.088  1.00  0.00     0.169 HD
ENDROOT
TORSDOF 0
ENDMDL
MODEL 11
REMARK VINA RESULT:      -6.3      2.300      4.099
REMARK  0 active torsions:
REMARK  status: ('A' for Active; 'I' for Inactive)
ROOT
HETATM    1  C   LIG     1      16.392  35.110  21.785  1.00  0.00     0.002 A 
HETATM    2  C   LIG     1      16.038  36.428  21.484  1.00  0.00     0.001 A 
HETATM    3  C   LIG     1      16.253  37.446  22.418  1.00  0.00     0.013 A 
HETATM    4  C   LIG     1      16.828  37.146  23.662  1.00  0.00    -0.009 A 
HETATM    5  C   LIG     1      17.053  38.147  24.614  1.00  0.00     0.019 A 
HETATM    6  C   LIG     1      17.626  37.819  25.843  1.00  0.00     0.075 A 
HETATM    7  C   LIG     1      17.969  36.492  26.113  1.00  0.00     0.245 A 
HETATM    8  O   LIG     1      18.487  36.193  27.222  1.00  0.00    -0.268 OA
HETATM    9  N   LIG     1      17.747  35.522  25.181  1.00  0.00    -0.323 N 
HETATM   10  C   LIG     1      17.187  35.813  23.970  1.00  0.00     0.045 A 
HETATM   11  C   LIG     1      16.964  34.800  23.023  1.00  0.00     0.030 A 
HETATM   12  H   LIG     1      18.012  34.535  25.408  1.00  0.00     0.169 HD
ENDROOT
TORSDOF 0
ENDMDL
MODEL 12
REMARK VINA RESULT:      -6.3      3.106      4.149
REMARK  0 active torsions:
REMARK  status: ('A' for Active; 'I' for Inactive)
ROOT
HETATM    1  C   LIG     1      16.780  37.117  24.009  1.00  0.00     0.002 A 
HETATM    2  C   LIG     1      17.415  38.343  24.222  1.00  0.00     0.001 A 
HETATM    3  C   LIG     1      18.121  38.960  23.186  1.00  0.00     0.013 A 
HETATM    4  C   LIG     1      18.194  38.349  21.925  1.00  0.00    -0.009 A 
HETATM    5  C   LIG     1      18.895  38.946  20.871  1.00  0.00     0.019 A 
HETATM    6  C   LIG     1      18.950  38.314  19.629  1.00  0.00     0.075 A 
HETATM    7  C   LIG     1      18.304  37.088  19.448  1.00  0.00     0.245 A 
HETATM    8  O   LIG     1      18.352  36.516  18.326  1.00  0.00    -0.268 OA
HETATM    9  N   LIG     1      17.623  36.513  20.479  1.00  0.00    -0.323 N 
HETATM   10  C   LIG     1      17.552  37.107  21.706  1.00  0.00     0.045 A 
HETATM   11  C   LIG     1      16.846  36.498  22.757  1.00  0.00     0.030 A 
HETATM   12  H   LIG     1      17.148  35.594  20.318  1.00  0.00     0.169 HD
ENDROOT
TORSDOF 0
ENDMDL
MODEL 13
REMARK VINA RESULT:      -6.2      9.059     10.445
REMARK  0 active torsions:
REMARK  status: ('A' for Active; 'I' for Inactive)
ROOT
HETATM    1  C   LIG     1      14.100  31.758  17.479  1.00  0.00     0.002 A 
HETATM    2  C   LIG     1      13.712  30.805  16.534  1.00  0.00     0.001 A 
HETATM    3  C   LIG     1      14.307  30.785  15.269  1.00  0.00     0.013 A 
HETATM    4  C   LIG     1      15.299  31.723  14.945  1.00  0.00    -0.009 A 
HETATM    5  C   LIG     1      15.910  31.724  13.686  1.00  0.00     0.019 A 
HETATM    6  C   LIG     1      16.894  32.669  13.393  1.00  0.00     0.075 A 
HETATM    7  C   LIG     1      17.260  33.608  14.361  1.00  0.00     0.245 A 
HETATM    8  O   LIG     1      18.148  34.462  14.099  1.00  0.00    -0.268 OA
HETATM    9  N   LIG     1      16.660  33.601  15.585  1.00  0.00    -0.323 N 
HETATM   10  C   LIG     1      15.694  32.689  15.901  1.00  0.00     0.045 A 
HETATM   11  C   LIG     1      15.087  32.698  17.167  1.00  0.00     0.030 A 
HETATM   12  H   LIG     1      16.951  34.315  16.293  1.00  0.00     0.169 HD
ENDROOT
TORSDOF 0
ENDMDL
MODEL 14
REMARK VINA RESULT:      -6.1      9.289     10.980
REMARK  0 active torsions:
REMARK  status: ('A' for Active; 'I' for Inactive)
ROOT
HETATM    1  C   LIG     1      14.649  29.553  13.793  1.00  0.00     0.002 A 
HETATM    2  C   LIG     1      13.570  29.355  14.659  1.00  0.00     0.001 A 
HETATM    3  C   LIG     1      13.305  30.277  15.676  1.00  0.00     0.013 A 
HETATM    4  C   LIG     1      14.124  31.406  15.830  1.00  0.00    -0.009 A 
HETATM    5  C   LIG     1      13.881  32.343  16.840  1.00  0.00     0.019 A 
HETATM    6  C   LIG     1      14.711  33.456  16.969  1.00  0.00     0.075 A 
HETATM    7  C   LIG     1      15.782  33.625  16.087  1.00  0.00     0.245 A 
HETATM    8  O   LIG     1      16.534  34.629  16.201  1.00  0.00    -0.268 OA
HETATM    9  N   LIG     1      16.013  32.708  15.105  1.00  0.00    -0.323 N 
HETATM   10  C   LIG     1      15.217  31.608  14.954  1.00  0.00     0.045 A 
HETATM   11  C   LIG     1      15.472  30.674  13.938  1.00  0.00     0.030 A 
HETATM   12  H   LIG     1      16.822  32.856  14.457  1.00  0.00     0.169 HD
ENDROOT
TORSDOF 0
ENDMDL
MODEL 15
REMARK VINA RESULT:      -6.1      9.226     10.892
REMARK  0 active torsions:
REMARK  status: ('A' for Active; 'I' for Inactive)
ROOT
HETATM    1  C   LIG     1      13.217  29.639  15.027  1.00  0.00     0.002 A 
HETATM    2  C   LIG     1      14.205  29.431  14.061  1.00  0.00     0.001 A 
HETATM    3  C   LIG     1      15.283  30.315  13.955  1.00  0.00     0.013 A 
HETATM    4  C   LIG     1      15.376  31.415  14.820  1.00  0.00    -0.009 A 
HETATM    5  C   LIG     1      16.445  32.315  14.734  1.00  0.00     0.019 A 
HETATM    6  C   LIG     1      16.510  33.400  15.608  1.00  0.00     0.075 A 
HETATM    7  C   LIG     1      15.506  33.579  16.563  1.00  0.00     0.245 A 
HETATM    8  O   LIG     1      15.563  34.558  17.355  1.00  0.00    -0.268 OA
HETATM    9  N   LIG     1      14.468  32.699  16.642  1.00  0.00    -0.323 N 
HETATM   10  C   LIG     1      14.377  31.628  15.800  1.00  0.00     0.045 A 
HETATM   11  C   LIG     1      13.299  30.732  15.894  1.00  0.00     0.030 A 
HETATM   12  H   LIG     1      13.728  32.856  17.365  1.00  0.00     0.169 HD
ENDROOT
TORSDOF 0
ENDMDL
MODEL 16
REMARK VINA RESULT:      -6.1      3.426      4.200
REMARK  0 active torsions:
REMARK  status: ('A' for Active; 'I' for Inactive)
ROOT
HETATM    1  C   LIG     1      17.796  39.322  22.675  1.00  0.00     0.002 A 
HETATM    2  C   LIG     1      18.678  39.141  21.607  1.00  0.00     0.001 A 
HETATM    3  C   LIG     1      18.542  38.038  20.759  1.00  0.00     0.013 A 
HETATM    4  C   LIG     1      17.516  37.107  20.979  1.00  0.00    -0.009 A 
HETATM    5  C   LIG     1      17.358  35.994  20.146  1.00  0.00     0.019 A 
HETATM    6  C   LIG     1      16.329  35.085  20.389  1.00  0.00     0.075 A 
HETATM    7  C   LIG     1      15.462  35.294  21.465  1.00  0.00     0.245 A 
HETATM    8  O   LIG     1      14.531  34.475  21.687  1.00  0.00    -0.268 OA
HETATM    9  N   LIG     1      15.621  36.381  22.273  1.00  0.00    -0.323 N 
HETATM   10  C   LIG     1      16.620  37.287  22.060  1.00  0.00     0.045 A 
HETATM   11  C   LIG     1      16.769  38.400  22.904  1.00  0.00     0.030 A 
HETATM   12  H   LIG     1      14.960  36.515  23.073  1.00  0.00     0.169 HD
ENDROOT
TORSDOF 0
ENDMDL
MODEL 17
REMARK VINA RESULT:      -6.0      2.366      3.950
REMARK  0 active torsions:
REMARK  status: ('A' for Active; 'I' for Inactive)
ROOT
HETATM    1  C   LIG     1      16.247  34.698  21.163  1.00  0.00     0.002 A 
HETATM    2  C   LIG     1      16.836  35.447  20.142  1.00  0.00     0.001 A 
HETATM    3  C   LIG     1      17.392  36.700  20.417  1.00  0.00     0.013 A 
HETATM    4  C   LIG     1      17.362  37.209  21.724  1.00  0.00    -0.009 A 
HETATM    5  C   LIG     1      17.911  38.460  22.026  1.00  0.00     0.019 A 
HETATM    6  C   LIG     1      17.866  38.940  23.335  1.00  0.00     0.075 A 
HETATM    7  C   LIG     1      17.270  38.166  24.334  1.00  0.00     0.245 A 
HETATM    8  O   LIG     1      17.228  38.597  25.518  1.00  0.00    -0.268 OA
HETATM    9  N   LIG     1      16.737  36.948  24.033  1.00  0.00    -0.323 N 
HETATM   10  C   LIG     1      16.766  36.452  22.761  1.00  0.00     0.045 A 
HETATM   11  C   LIG     1      16.210  35.196  22.470  1.00  0.00     0.030 A 
HETATM   12  H   LIG     1      16.296  36.388  24.799  1.00  0.00     0.169 HD
ENDROOT
TORSDOF 0
ENDMDL
MODEL 18
REMARK VINA RESULT:      -5.4      3.399      4.256
REMARK  0 active torsions:
REMARK  status: ('A' for Active; 'I' for Inactive)
ROOT
HETATM    1  C   LIG     1      15.990  34.714  20.507  1.00  0.00     0.002 A 
HETATM    2  C   LIG     1      14.890  35.003  21.318  1.00  0.00     0.001 A 
HETATM    3  C   LIG     1      14.872  36.169  22.090  1.00  0.00     0.013 A 
HETATM    4  C   LIG     1      15.960  37.053  22.051  1.00  0.00    -0.009 A 
HETATM    5  C   LIG     1      15.966  38.226  22.814  1.00  0.00     0.019 A 
HETATM    6  C   LIG     1      17.062  39.087  22.755  1.00  0.00     0.075 A 
HETATM    7  C   LIG     1      18.147  38.769  21.933  1.00  0.00     0.245 A 
HETATM    8  O   LIG     1      19.138  39.544  21.877  1.00  0.00    -0.268 OA
HETATM    9  N   LIG     1      18.134  37.624  21.192  1.00  0.00    -0.323 N 
HETATM   10  C   LIG     1      17.075  36.763  21.230  1.00  0.00     0.045 A 
HETATM   11  C   LIG     1      17.081  35.588  20.460  1.00  0.00     0.030 A 
HETATM   12  H   LIG     1      18.958  37.408  20.585  1.00  0.00     0.169 HD
ENDROOT
TORSDOF 0
ENDMDL
MODEL 19
REMARK VINA RESULT:      -5.1      5.882      7.770
REMARK  0 active torsions:
REMARK  status: ('A' for Active; 'I' for Inactive)
ROOT
HETATM    1  C   LIG     1      14.704  32.578  16.013  1.00  0.00     0.002 A 
HETATM    2  C   LIG     1      14.319  31.447  16.738  1.00  0.00     0.001 A 
HETATM    3  C   LIG     1      14.403  31.442  18.133  1.00  0.00     0.013 A 
HETATM    4  C   LIG     1      14.876  32.576  18.811  1.00  0.00    -0.009 A 
HETATM    5  C   LIG     1      14.972  32.597  20.207  1.00  0.00     0.019 A 
HETATM    6  C   LIG     1      15.446  33.738  20.854  1.00  0.00     0.075 A 
HETATM    7  C   LIG     1      15.823  34.852  20.100  1.00  0.00     0.245 A 
HETATM    8  O   LIG     1      16.251  35.885  20.681  1.00  0.00    -0.268 OA
HETATM    9  N   LIG     1      15.728  34.826  18.740  1.00  0.00    -0.323 N 
HETATM   10  C   LIG     1      15.267  33.722  18.079  1.00  0.00     0.045 A 
HETATM   11  C   LIG     1      15.178  33.713  16.678  1.00  0.00     0.030 A 
HETATM   12  H   LIG     1      16.017  35.672  18.198  1.00  0.00     0.169 HD
ENDROOT
TORSDOF 0
ENDMDL
MODEL 20
REMARK VINA RESULT:      -4.9      6.548      7.902
REMARK  0 active torsions:
REMARK  status: ('A' for Active; 'I' for Inactive)
ROOT
HETATM    1  C   LIG     1      15.673  34.049  20.974  1.00  0.00     0.002 A 
HETATM    2  C   LIG     1      16.025  35.068  20.085  1.00  0.00     0.001 A 
HETATM    3  C   LIG     1      15.779  34.926  18.716  1.00  0.00     0.013 A 
HETATM    4  C   LIG     1      15.177  33.756  18.230  1.00  0.00    -0.009 A 
HETATM    5  C   LIG     1      14.921  33.588  16.864  1.00  0.00     0.019 A 
HETATM    6  C   LIG     1      14.321  32.414  16.409  1.00  0.00     0.075 A 
HETATM    7  C   LIG     1      13.981  31.413  17.324  1.00  0.00     0.245 A 
HETATM    8  O   LIG     1      13.439  30.352  16.916  1.00  0.00    -0.268 OA
HETATM    9  N   LIG     1      14.233  31.583  18.653  1.00  0.00    -0.323 N 
HETATM   10  C   LIG     1      14.820  32.722  19.127  1.00  0.00     0.045 A 
HETATM   11  C   LIG     1      15.073  32.878  20.499  1.00  0.00     0.030 A 
HETATM   12  H   LIG     1      13.970  30.819  19.317  1.00  0.00     0.169 HD
ENDROOT
TORSDOF 0
ENDMDL
