REMARK  8 active torsions:
REMARK  status: ('A' for Active; 'I' for Inactive)
REMARK    1  A    between atoms: C_2  and  C_3 
REMARK    2  A    between atoms: C_2  and  O_10 
REMARK    3  A    between atoms: C_8  and  N_9 
REMARK    4  A    between atoms: O_10  and  C_11 
REMARK    5  A    between atoms: C_11  and  C_12 
REMARK    6  A    between atoms: C_12  and  N_13 
REMARK    7  A    between atoms: N_13  and  C_14 
REMARK    8  A    between atoms: N_13  and  C_16 
ROOT
HETATM    1  O   LIG     1       1.244   0.198  -1.585  1.00  0.00    -0.259 OA
HETATM    2  C   LIG     1       1.580  -0.352  -0.500  1.00  0.00     0.293 C 
ENDROOT
BRANCH   2   3
HETATM    3  C   LIG     1       2.932  -0.127   0.058  1.00  0.00     0.039 A 
HETATM    4  C   LIG     1       3.856   0.698  -0.609  1.00  0.00     0.020 A 
HETATM    5  C   LIG     1       5.132   0.908  -0.077  1.00  0.00     0.030 A 
HETATM    6  C   LIG     1       5.503   0.299   1.129  1.00  0.00     0.025 A 
HETATM    7  C   LIG     1       4.587  -0.523   1.798  1.00  0.00     0.030 A 
HETATM    8  C   LIG     1       3.311  -0.735   1.267  1.00  0.00     0.020 A 
BRANCH   6   9
HETATM    9  N   LIG     1       6.808   0.515   1.672  1.00  0.00    -0.399 N 
HETATM   10  H   LIG     1       7.094   0.065   2.570  1.00  0.00     0.156 HD
HETATM   11  H   LIG     1       7.498   1.126   1.181  1.00  0.00     0.156 HD
ENDBRANCH   6   9
ENDBRANCH   2   3
BRANCH   2  12
HETATM   12  O   LIG     1       0.677  -1.183   0.177  1.00  0.00    -0.316 OA
BRANCH  12  13
HETATM   13  C   LIG     1      -0.662  -1.407  -0.259  1.00  0.00     0.209 C 
BRANCH  13  14
HETATM   14  C   LIG     1      -1.543  -0.199   0.067  1.00  0.00     0.299 C 
BRANCH  14  15
HETATM   15  N   LIG     1      -2.941  -0.477  -0.335  1.00  0.00     0.089 N 
BRANCH  15  16
HETATM   16  C   LIG     1      -3.232  -0.028  -1.721  1.00  0.00     0.268 C 
HETATM   17  C   LIG     1      -3.473   1.483  -1.864  1.00  0.00     0.037 C 
ENDBRANCH  15  16
BRANCH  15  18
HETATM   18  C   LIG     1      -3.918  -0.026   0.682  1.00  0.00     0.268 C 
HETATM   19  C   LIG     1      -5.318  -0.579   0.412  1.00  0.00     0.037 C 
ENDBRANCH  15  18
ENDBRANCH  14  15
ENDBRANCH  13  14
ENDBRANCH  12  13
ENDBRANCH   2  12
TORSDOF 8
