REMARK  1 active torsions:
REMARK  status: ('A' for Active; 'I' for Inactive)
REMARK    1  A    between atoms: C_4  and  O_5 
ROOT
HETATM    1  C   LIG     1      -2.184  -0.754  -0.281  1.00  0.00     0.050 C 
HETATM    2  C   LIG     1      -0.831  -0.126  -0.075  1.00  0.00    -0.038 A 
HETATM    3  C   LIG     1       0.304  -0.949  -0.167  1.00  0.00     0.044 A 
HETATM    4  C   LIG     1       1.587  -0.419   0.015  1.00  0.00     0.066 A 
HETATM    5  C   LIG     1       1.744   0.941   0.291  1.00  0.00     0.038 A 
HETATM    6  C   LIG     1       0.625   1.771   0.384  1.00  0.00     0.027 A 
HETATM    7  C   LIG     1      -0.663   1.251   0.204  1.00  0.00     0.040 A 
HETATM    8 CL   LIG     1      -2.024   2.360   0.337  1.00  0.00    -0.084 Cl
ENDROOT
BRANCH   4   9
HETATM    9  O   LIG     1       2.713  -1.235  -0.075  1.00  0.00    -0.361 OA
HETATM   10  H   LIG     1       2.634  -2.226  -0.273  1.00  0.00     0.217 HD
ENDBRANCH   4   9
TORSDOF 1
