MODEL 1
REMARK VINA RESULT:      -6.5      0.000      0.000
REMARK  1 active torsions:
REMARK  status: ('A' for Active; 'I' for Inactive)
REMARK    1  A    between atoms: C_4  and  O_5 
ROOT
HETATM    1  C   LIG     1      17.255  39.139  22.667  1.00  0.00     0.050 C 
HETATM    2  C   LIG     1      17.993  38.517  21.511  1.00  0.00    -0.038 A 
HETATM    3  C   LIG     1      18.943  39.299  20.832  1.00  0.00     0.044 A 
HETATM    4  C   LIG     1      19.659  38.772  19.750  1.00  0.00     0.066 A 
HETATM    5  C   LIG     1      19.429  37.458  19.339  1.00  0.00     0.038 A 
HETATM    6  C   LIG     1      18.489  36.669  20.005  1.00  0.00     0.027 A 
HETATM    7  C   LIG     1      17.767  37.186  21.088  1.00  0.00     0.040 A 
HETATM    8 CL   LIG     1      16.598  36.130  21.877  1.00  0.00    -0.084 Cl
ENDROOT
BRANCH   4   9
HETATM    9  O   LIG     1      20.600  39.547  19.076  1.00  0.00    -0.361 OA
HETATM   10  H   LIG     1      21.591  39.464  19.271  1.00  0.00     0.217 HD
ENDBRANCH   4   9
TORSDOF 1
ENDMDL
MODEL 2
REMARK VINA RESULT:      -6.4      2.877      3.683
REMARK  1 active torsions:
REMARK  status: ('A' for Active; 'I' for Inactive)
REMARK    1  A    between atoms: C_4  and  O_5 
ROOT
HETATM    1  C   LIG     1      18.949  39.570  20.836  1.00  0.00     0.050 C 
HETATM    2  C   LIG     1      18.028  38.462  21.273  1.00  0.00    -0.038 A 
HETATM    3  C   LIG     1      17.058  38.750  22.248  1.00  0.00     0.044 A 
HETATM    4  C   LIG     1      16.175  37.758  22.692  1.00  0.00     0.066 A 
HETATM    5  C   LIG     1      16.256  36.468  22.162  1.00  0.00     0.038 A 
HETATM    6  C   LIG     1      17.214  36.168  21.191  1.00  0.00     0.027 A 
HETATM    7  C   LIG     1      18.102  37.153  20.740  1.00  0.00     0.040 A 
HETATM    8 CL   LIG     1      19.282  36.698  19.515  1.00  0.00    -0.084 Cl
ENDROOT
BRANCH   4   9
HETATM    9  O   LIG     1      15.214  38.042  23.660  1.00  0.00    -0.361 OA
HETATM   10  H   LIG     1      14.265  37.696  23.581  1.00  0.00     0.217 HD
ENDBRANCH   4   9
TORSDOF 1
ENDMDL
MODEL 3
REMARK VINA RESULT:      -5.9      3.420      4.337
REMARK  1 active torsions:
REMARK  status: ('A' for Active; 'I' for Inactive)
REMARK    1  A    between atoms: C_4  and  O_5 
ROOT
HETATM    1  C   LIG     1      17.304  34.911  25.310  1.00  0.00     0.050 C 
HETATM    2  C   LIG     1      17.203  35.804  24.102  1.00  0.00    -0.038 A 
HETATM    3  C   LIG     1      17.082  35.201  22.838  1.00  0.00     0.044 A 
HETATM    4  C   LIG     1      16.984  35.983  21.681  1.00  0.00     0.066 A 
HETATM    5  C   LIG     1      17.006  37.376  21.779  1.00  0.00     0.038 A 
HETATM    6  C   LIG     1      17.123  37.988  23.028  1.00  0.00     0.027 A 
HETATM    7  C   LIG     1      17.223  37.216  24.193  1.00  0.00     0.040 A 
HETATM    8 CL   LIG     1      17.369  38.061  25.730  1.00  0.00    -0.084 Cl
ENDROOT
BRANCH   4   9
HETATM    9  O   LIG     1      16.866  35.385  20.427  1.00  0.00    -0.361 OA
HETATM   10  H   LIG     1      16.069  34.806  20.190  1.00  0.00     0.217 HD
ENDBRANCH   4   9
TORSDOF 1
ENDMDL
MODEL 4
REMARK VINA RESULT:      -5.9      4.338      5.496
REMARK  1 active torsions:
REMARK  status: ('A' for Active; 'I' for Inactive)
REMARK    1  A    between atoms: C_4  and  O_5 
ROOT
HETATM    1  C   LIG     1      16.536  35.783  21.842  1.00  0.00     0.050 C 
HETATM    2  C   LIG     1      16.953  36.221  23.221  1.00  0.00    -0.038 A 
HETATM    3  C   LIG     1      17.231  35.229  24.177  1.00  0.00     0.044 A 
HETATM    4  C   LIG     1      17.623  35.578  25.475  1.00  0.00     0.066 A 
HETATM    5  C   LIG     1      17.740  36.925  25.826  1.00  0.00     0.038 A 
HETATM    6  C   LIG     1      17.468  37.921  24.886  1.00  0.00     0.027 A 
HETATM    7  C   LIG     1      17.075  37.583  23.585  1.00  0.00     0.040 A 
HETATM    8 CL   LIG     1      16.749  38.894  22.457  1.00  0.00    -0.084 Cl
ENDROOT
BRANCH   4   9
HETATM    9  O   LIG     1      17.898  34.595  26.424  1.00  0.00    -0.361 OA
HETATM   10  H   LIG     1      18.082  34.831  27.392  1.00  0.00     0.217 HD
ENDBRANCH   4   9
TORSDOF 1
ENDMDL
MODEL 5
REMARK VINA RESULT:      -5.8      2.899      4.028
REMARK  1 active torsions:
REMARK  status: ('A' for Active; 'I' for Inactive)
REMARK    1  A    between atoms: C_4  and  O_5 
ROOT
HETATM    1  C   LIG     1      16.677  35.094  20.850  1.00  0.00     0.050 C 
HETATM    2  C   LIG     1      17.076  36.409  21.465  1.00  0.00    -0.038 A 
HETATM    3  C   LIG     1      16.539  36.747  22.718  1.00  0.00     0.044 A 
HETATM    4  C   LIG     1      16.876  37.957  23.337  1.00  0.00     0.066 A 
HETATM    5  C   LIG     1      17.754  38.839  22.704  1.00  0.00     0.038 A 
HETATM    6  C   LIG     1      18.296  38.517  21.459  1.00  0.00     0.027 A 
HETATM    7  C   LIG     1      17.966  37.309  20.831  1.00  0.00     0.040 A 
HETATM    8 CL   LIG     1      18.689  36.973  19.261  1.00  0.00    -0.084 Cl
ENDROOT
BRANCH   4   9
HETATM    9  O   LIG     1      16.343  38.292  24.580  1.00  0.00    -0.361 OA
HETATM   10  H   LIG     1      15.442  37.940  24.882  1.00  0.00     0.217 HD
ENDBRANCH   4   9
TORSDOF 1
ENDMDL
MODEL 6
REMARK VINA RESULT:      -5.8      0.966      2.254
REMARK  1 active torsions:
REMARK  status: ('A' for Active; 'I' for Inactive)
REMARK    1  A    between atoms: C_4  and  O_5 
ROOT
HETATM    1  C   LIG     1      17.279  35.817  20.520  1.00  0.00     0.050 C 
HETATM    2  C   LIG     1      17.887  37.175  20.754  1.00  0.00    -0.038 A 
HETATM    3  C   LIG     1      18.911  37.602  19.891  1.00  0.00     0.044 A 
HETATM    4  C   LIG     1      19.512  38.855  20.061  1.00  0.00     0.066 A 
HETATM    5  C   LIG     1      19.092  39.691  21.098  1.00  0.00     0.038 A 
HETATM    6  C   LIG     1      18.075  39.280  21.962  1.00  0.00     0.027 A 
HETATM    7  C   LIG     1      17.467  38.029  21.801  1.00  0.00     0.040 A 
HETATM    8 CL   LIG     1      16.192  37.582  22.930  1.00  0.00    -0.084 Cl
ENDROOT
BRANCH   4   9
HETATM    9  O   LIG     1      20.528  39.278  19.207  1.00  0.00    -0.361 OA
HETATM   10  H   LIG     1      20.340  39.900  18.428  1.00  0.00     0.217 HD
ENDBRANCH   4   9
TORSDOF 1
ENDMDL
MODEL 7
REMARK VINA RESULT:      -5.8      3.888      4.778
REMARK  1 active torsions:
REMARK  status: ('A' for Active; 'I' for Inactive)
REMARK    1  A    between atoms: C_4  and  O_5 
ROOT
HETATM    1  C   LIG     1      17.102  38.669  22.487  1.00  0.00     0.050 C 
HETATM    2  C   LIG     1      17.288  37.525  23.448  1.00  0.00    -0.038 A 
HETATM    3  C   LIG     1      17.881  37.792  24.693  1.00  0.00     0.044 A 
HETATM    4  C   LIG     1      18.078  36.767  25.626  1.00  0.00     0.066 A 
HETATM    5  C   LIG     1      17.683  35.463  25.318  1.00  0.00     0.038 A 
HETATM    6  C   LIG     1      17.091  35.183  24.085  1.00  0.00     0.027 A 
HETATM    7  C   LIG     1      16.889  36.201  23.145  1.00  0.00     0.040 A 
HETATM    8 CL   LIG     1      16.138  35.770  21.612  1.00  0.00    -0.084 Cl
ENDROOT
BRANCH   4   9
HETATM    9  O   LIG     1      18.668  37.032  26.860  1.00  0.00    -0.361 OA
HETATM   10  H   LIG     1      18.953  37.969  27.121  1.00  0.00     0.217 HD
ENDBRANCH   4   9
TORSDOF 1
ENDMDL
MODEL 8
REMARK VINA RESULT:      -5.6      2.830      3.846
REMARK  1 active torsions:
REMARK  status: ('A' for Active; 'I' for Inactive)
REMARK    1  A    between atoms: C_4  and  O_5 
ROOT
HETATM    1  C   LIG     1      18.508  39.123  20.697  1.00  0.00     0.050 C 
HETATM    2  C   LIG     1      17.920  38.319  21.826  1.00  0.00    -0.038 A 
HETATM    3  C   LIG     1      17.867  38.906  23.102  1.00  0.00     0.044 A 
HETATM    4  C   LIG     1      17.331  38.204  24.189  1.00  0.00     0.066 A 
HETATM    5  C   LIG     1      16.843  36.908  24.007  1.00  0.00     0.038 A 
HETATM    6  C   LIG     1      16.889  36.313  22.744  1.00  0.00     0.027 A 
HETATM    7  C   LIG     1      17.423  37.006  21.651  1.00  0.00     0.040 A 
HETATM    8 CL   LIG     1      17.446  36.189  20.091  1.00  0.00    -0.084 Cl
ENDROOT
BRANCH   4   9
HETATM    9  O   LIG     1      17.279  38.785  25.454  1.00  0.00    -0.361 OA
HETATM   10  H   LIG     1      16.947  39.734  25.588  1.00  0.00     0.217 HD
ENDBRANCH   4   9
TORSDOF 1
ENDMDL
MODEL 9
REMARK VINA RESULT:      -5.6      3.139      4.323
REMARK  1 active torsions:
REMARK  status: ('A' for Active; 'I' for Inactive)
REMARK    1  A    between atoms: C_4  and  O_5 
ROOT
HETATM    1  C   LIG     1      19.131  36.891  19.473  1.00  0.00     0.050 C 
HETATM    2  C   LIG     1      18.106  36.993  20.571  1.00  0.00    -0.038 A 
HETATM    3  C   LIG     1      17.317  35.864  20.849  1.00  0.00     0.044 A 
HETATM    4  C   LIG     1      16.349  35.901  21.860  1.00  0.00     0.066 A 
HETATM    5  C   LIG     1      16.163  37.070  22.601  1.00  0.00     0.038 A 
HETATM    6  C   LIG     1      16.942  38.199  22.337  1.00  0.00     0.027 A 
HETATM    7  C   LIG     1      17.913  38.173  21.328  1.00  0.00     0.040 A 
HETATM    8 CL   LIG     1      18.854  39.635  21.054  1.00  0.00    -0.084 Cl
ENDROOT
BRANCH   4   9
HETATM    9  O   LIG     1      15.565  34.783  22.135  1.00  0.00    -0.361 OA
HETATM   10  H   LIG     1      15.233  34.587  23.072  1.00  0.00     0.217 HD
ENDBRANCH   4   9
TORSDOF 1
ENDMDL
MODEL 10
REMARK VINA RESULT:      -5.5      8.287      9.593
REMARK  1 active torsions:
REMARK  status: ('A' for Active; 'I' for Inactive)
REMARK    1  A    between atoms: C_4  and  O_5 
ROOT
HETATM    1  C   LIG     1      13.731  29.744  14.476  1.00  0.00     0.050 C 
HETATM    2  C   LIG     1      14.314  30.804  15.373  1.00  0.00    -0.038 A 
HETATM    3  C   LIG     1      13.855  30.879  16.699  1.00  0.00     0.044 A 
HETATM    4  C   LIG     1      14.362  31.844  17.577  1.00  0.00     0.066 A 
HETATM    5  C   LIG     1      15.334  32.744  17.134  1.00  0.00     0.038 A 
HETATM    6  C   LIG     1      15.801  32.680  15.819  1.00  0.00     0.027 A 
HETATM    7  C   LIG     1      15.300  31.719  14.932  1.00  0.00     0.040 A 
HETATM    8 CL   LIG     1      15.937  31.702  13.291  1.00  0.00    -0.084 Cl
ENDROOT
BRANCH   4   9
HETATM    9  O   LIG     1      13.907  31.919  18.891  1.00  0.00    -0.361 OA
HETATM   10  H   LIG     1      14.068  31.167  19.551  1.00  0.00     0.217 HD
ENDBRANCH   4   9
TORSDOF 1
ENDMDL
MODEL 11
REMARK VINA RESULT:      -5.4      3.300      3.990
REMARK  1 active torsions:
REMARK  status: ('A' for Active; 'I' for Inactive)
REMARK    1  A    between atoms: C_4  and  O_5 
ROOT
HETATM    1  C   LIG     1      17.122  39.260  22.762  1.00  0.00     0.050 C 
HETATM    2  C   LIG     1      17.069  37.757  22.832  1.00  0.00    -0.038 A 
HETATM    3  C   LIG     1      16.911  37.041  21.633  1.00  0.00     0.044 A 
HETATM    4  C   LIG     1      16.855  35.642  21.639  1.00  0.00     0.066 A 
HETATM    5  C   LIG     1      16.957  34.948  22.846  1.00  0.00     0.038 A 
HETATM    6  C   LIG     1      17.115  35.646  24.045  1.00  0.00     0.027 A 
HETATM    7  C   LIG     1      17.172  37.045  24.051  1.00  0.00     0.040 A 
HETATM    8 CL   LIG     1      17.373  37.854  25.602  1.00  0.00    -0.084 Cl
ENDROOT
BRANCH   4   9
HETATM    9  O   LIG     1      16.697  34.932  20.450  1.00  0.00    -0.361 OA
HETATM   10  H   LIG     1      17.023  35.302  19.565  1.00  0.00     0.217 HD
ENDBRANCH   4   9
TORSDOF 1
ENDMDL
MODEL 12
REMARK VINA RESULT:      -5.4      9.496     10.585
REMARK  1 active torsions:
REMARK  status: ('A' for Active; 'I' for Inactive)
REMARK    1  A    between atoms: C_4  and  O_5 
ROOT
HETATM    1  C   LIG     1      13.674  32.161  17.117  1.00  0.00     0.050 C 
HETATM    2  C   LIG     1      14.080  31.334  15.926  1.00  0.00    -0.038 A 
HETATM    3  C   LIG     1      13.219  30.305  15.508  1.00  0.00     0.044 A 
HETATM    4  C   LIG     1      13.545  29.505  14.406  1.00  0.00     0.066 A 
HETATM    5  C   LIG     1      14.737  29.729  13.713  1.00  0.00     0.038 A 
HETATM    6  C   LIG     1      15.601  30.749  14.117  1.00  0.00     0.027 A 
HETATM    7  C   LIG     1      15.285  31.555  15.218  1.00  0.00     0.040 A 
HETATM    8 CL   LIG     1      16.424  32.820  15.666  1.00  0.00    -0.084 Cl
ENDROOT
BRANCH   4   9
HETATM    9  O   LIG     1      12.692  28.484  13.991  1.00  0.00    -0.361 OA
HETATM   10  H   LIG     1      11.781  28.683  13.595  1.00  0.00     0.217 HD
ENDBRANCH   4   9
TORSDOF 1
ENDMDL
MODEL 13
REMARK VINA RESULT:      -5.4      7.906      9.173
REMARK  1 active torsions:
REMARK  status: ('A' for Active; 'I' for Inactive)
REMARK    1  A    between atoms: C_4  and  O_5 
ROOT
HETATM    1  C   LIG     1      16.016  31.799  13.744  1.00  0.00     0.050 C 
HETATM    2  C   LIG     1      15.291  31.791  15.063  1.00  0.00    -0.038 A 
HETATM    3  C   LIG     1      15.608  32.788  16.002  1.00  0.00     0.044 A 
HETATM    4  C   LIG     1      14.964  32.829  17.244  1.00  0.00     0.066 A 
HETATM    5  C   LIG     1      13.997  31.872  17.558  1.00  0.00     0.038 A 
HETATM    6  C   LIG     1      13.671  30.877  16.634  1.00  0.00     0.027 A 
HETATM    7  C   LIG     1      14.309  30.826  15.388  1.00  0.00     0.040 A 
HETATM    8 CL   LIG     1      13.844  29.541  14.278  1.00  0.00    -0.084 Cl
ENDROOT
BRANCH   4   9
HETATM    9  O   LIG     1      15.280  33.817  18.176  1.00  0.00    -0.361 OA
HETATM   10  H   LIG     1      16.144  34.343  18.118  1.00  0.00     0.217 HD
ENDBRANCH   4   9
TORSDOF 1
ENDMDL
MODEL 14
REMARK VINA RESULT:      -5.3      3.010      3.723
REMARK  1 active torsions:
REMARK  status: ('A' for Active; 'I' for Inactive)
REMARK    1  A    between atoms: C_4  and  O_5 
ROOT
HETATM    1  C   LIG     1      17.956  37.648  26.202  1.00  0.00     0.050 C 
HETATM    2  C   LIG     1      17.626  37.255  24.787  1.00  0.00    -0.038 A 
HETATM    3  C   LIG     1      17.686  38.245  23.792  1.00  0.00     0.044 A 
HETATM    4  C   LIG     1      17.390  37.937  22.459  1.00  0.00     0.066 A 
HETATM    5  C   LIG     1      17.031  36.633  22.111  1.00  0.00     0.038 A 
HETATM    6  C   LIG     1      16.968  35.638  23.089  1.00  0.00     0.027 A 
HETATM    7  C   LIG     1      17.262  35.936  24.425  1.00  0.00     0.040 A 
HETATM    8 CL   LIG     1      17.161  34.629  25.601  1.00  0.00    -0.084 Cl
ENDROOT
BRANCH   4   9
HETATM    9  O   LIG     1      17.448  38.918  21.472  1.00  0.00    -0.361 OA
HETATM   10  H   LIG     1      18.270  39.499  21.350  1.00  0.00     0.217 HD
ENDBRANCH   4   9
TORSDOF 1
ENDMDL
MODEL 15
REMARK VINA RESULT:      -5.3      8.619      9.800
REMARK  1 active torsions:
REMARK  status: ('A' for Active; 'I' for Inactive)
REMARK    1  A    between atoms: C_4  and  O_5 
ROOT
HETATM    1  C   LIG     1      16.941  32.795  14.965  1.00  0.00     0.050 C 
HETATM    2  C   LIG     1      15.692  32.007  15.259  1.00  0.00    -0.038 A 
HETATM    3  C   LIG     1      15.366  30.938  14.408  1.00  0.00     0.044 A 
HETATM    4  C   LIG     1      14.217  30.171  14.633  1.00  0.00     0.066 A 
HETATM    5  C   LIG     1      13.384  30.469  15.714  1.00  0.00     0.038 A 
HETATM    6  C   LIG     1      13.696  31.528  16.569  1.00  0.00     0.027 A 
HETATM    7  C   LIG     1      14.843  32.302  16.352  1.00  0.00     0.040 A 
HETATM    8 CL   LIG     1      15.170  33.620  17.473  1.00  0.00    -0.084 Cl
ENDROOT
BRANCH   4   9
HETATM    9  O   LIG     1      13.892  29.111  13.788  1.00  0.00    -0.361 OA
HETATM   10  H   LIG     1      13.022  28.601  13.889  1.00  0.00     0.217 HD
ENDBRANCH   4   9
TORSDOF 1
ENDMDL
MODEL 16
REMARK VINA RESULT:      -5.2      2.825      3.964
REMARK  1 active torsions:
REMARK  status: ('A' for Active; 'I' for Inactive)
REMARK    1  A    between atoms: C_4  and  O_5 
ROOT
HETATM    1  C   LIG     1      16.443  34.910  22.231  1.00  0.00     0.050 C 
HETATM    2  C   LIG     1      16.982  36.133  22.926  1.00  0.00    -0.038 A 
HETATM    3  C   LIG     1      17.210  37.287  22.157  1.00  0.00     0.044 A 
HETATM    4  C   LIG     1      17.709  38.453  22.750  1.00  0.00     0.066 A 
HETATM    5  C   LIG     1      17.984  38.473  24.119  1.00  0.00     0.038 A 
HETATM    6  C   LIG     1      17.762  37.334  24.895  1.00  0.00     0.027 A 
HETATM    7  C   LIG     1      17.263  36.163  24.312  1.00  0.00     0.040 A 
HETATM    8 CL   LIG     1      17.009  34.768  25.356  1.00  0.00    -0.084 Cl
ENDROOT
BRANCH   4   9
HETATM    9  O   LIG     1      17.936  39.597  21.988  1.00  0.00    -0.361 OA
HETATM   10  H   LIG     1      17.302  39.874  21.247  1.00  0.00     0.217 HD
ENDBRANCH   4   9
TORSDOF 1
ENDMDL
MODEL 17
REMARK VINA RESULT:      -5.1      7.969      9.054
REMARK  1 active torsions:
REMARK  status: ('A' for Active; 'I' for Inactive)
REMARK    1  A    between atoms: C_4  and  O_5 
ROOT
HETATM    1  C   LIG     1      12.939  30.620  16.479  1.00  0.00     0.050 C 
HETATM    2  C   LIG     1      14.148  31.330  15.930  1.00  0.00    -0.038 A 
HETATM    3  C   LIG     1      14.504  32.567  16.493  1.00  0.00     0.044 A 
HETATM    4  C   LIG     1      15.619  33.271  16.022  1.00  0.00     0.066 A 
HETATM    5  C   LIG     1      16.387  32.742  14.983  1.00  0.00     0.038 A 
HETATM    6  C   LIG     1      16.046  31.512  14.416  1.00  0.00     0.027 A 
HETATM    7  C   LIG     1      14.933  30.800  14.878  1.00  0.00     0.040 A 
HETATM    8 CL   LIG     1      14.566  29.258  14.112  1.00  0.00    -0.084 Cl
ENDROOT
BRANCH   4   9
HETATM    9  O   LIG     1      15.971  34.499  16.579  1.00  0.00    -0.361 OA
HETATM   10  H   LIG     1      16.941  34.784  16.661  1.00  0.00     0.217 HD
ENDBRANCH   4   9
TORSDOF 1
ENDMDL
MODEL 18
REMARK VINA RESULT:      -5.1      8.283      9.287
REMARK  1 active torsions:
REMARK  status: ('A' for Active; 'I' for Inactive)
REMARK    1  A    between atoms: C_4  and  O_5 
ROOT
HETATM    1  C   LIG     1      14.968  32.832  17.224  1.00  0.00     0.050 C 
HETATM    2  C   LIG     1      15.097  32.113  15.907  1.00  0.00    -0.038 A 
HETATM    3  C   LIG     1      16.063  32.567  14.994  1.00  0.00     0.044 A 
HETATM    4  C   LIG     1      16.227  31.935  13.755  1.00  0.00     0.066 A 
HETATM    5  C   LIG     1      15.424  30.843  13.420  1.00  0.00     0.038 A 
HETATM    6  C   LIG     1      14.460  30.381  14.319  1.00  0.00     0.027 A 
HETATM    7  C   LIG     1      14.288  31.005  15.561  1.00  0.00     0.040 A 
HETATM    8 CL   LIG     1      13.052  30.365  16.639  1.00  0.00    -0.084 Cl
ENDROOT
BRANCH   4   9
HETATM    9  O   LIG     1      17.185  32.386  12.849  1.00  0.00    -0.361 OA
HETATM   10  H   LIG     1      16.956  32.552  11.876  1.00  0.00     0.217 HD
ENDBRANCH   4   9
TORSDOF 1
ENDMDL
MODEL 19
REMARK VINA RESULT:      -4.9      3.272      3.931
REMARK  1 active torsions:
REMARK  status: ('A' for Active; 'I' for Inactive)
REMARK    1  A    between atoms: C_4  and  O_5 
ROOT
HETATM    1  C   LIG     1      17.031  38.661  23.690  1.00  0.00     0.050 C 
HETATM    2  C   LIG     1      17.032  37.628  22.595  1.00  0.00    -0.038 A 
HETATM    3  C   LIG     1      16.160  36.533  22.714  1.00  0.00     0.044 A 
HETATM    4  C   LIG     1      16.119  35.542  21.725  1.00  0.00     0.066 A 
HETATM    5  C   LIG     1      16.951  35.641  20.608  1.00  0.00     0.038 A 
HETATM    6  C   LIG     1      17.822  36.724  20.476  1.00  0.00     0.027 A 
HETATM    7  C   LIG     1      17.871  37.721  21.459  1.00  0.00     0.040 A 
HETATM    8 CL   LIG     1      18.995  39.055  21.222  1.00  0.00    -0.084 Cl
ENDROOT
BRANCH   4   9
HETATM    9  O   LIG     1      15.255  34.455  21.844  1.00  0.00    -0.361 OA
HETATM   10  H   LIG     1      15.551  33.590  22.280  1.00  0.00     0.217 HD
ENDBRANCH   4   9
TORSDOF 1
ENDMDL
MODEL 20
REMARK VINA RESULT:      -4.8      1.624      2.904
REMARK  1 active torsions:
REMARK  status: ('A' for Active; 'I' for Inactive)
REMARK    1  A    between atoms: C_4  and  O_5 
ROOT
HETATM    1  C   LIG     1      18.623  36.551  19.098  1.00  0.00     0.050 C 
HETATM    2  C   LIG     1      18.153  37.157  20.394  1.00  0.00    -0.038 A 
HETATM    3  C   LIG     1      18.626  38.433  20.741  1.00  0.00     0.044 A 
HETATM    4  C   LIG     1      18.222  39.045  21.934  1.00  0.00     0.066 A 
HETATM    5  C   LIG     1      17.339  38.382  22.790  1.00  0.00     0.038 A 
HETATM    6  C   LIG     1      16.860  37.113  22.457  1.00  0.00     0.027 A 
HETATM    7  C   LIG     1      17.258  36.492  21.267  1.00  0.00     0.040 A 
HETATM    8 CL   LIG     1      16.612  34.893  20.917  1.00  0.00    -0.084 Cl
ENDROOT
BRANCH   4   9
HETATM    9  O   LIG     1      18.691  40.310  22.280  1.00  0.00    -0.361 OA
HETATM   10  H   LIG     1      18.211  41.152  21.983  1.00  0.00     0.217 HD
ENDBRANCH   4   9
TORSDOF 1
ENDMDL
