REMARK  2 active torsions:
REMARK  status: ('A' for Active; 'I' for Inactive)
REMARK    1  A    between atoms: C_2  and  C_4 
REMARK    2  A    between atoms: C_2  and  O_3 
ROOT
HETATM    1  C   LIG     1       0.518  -0.142   0.318  1.00  0.00     0.055 A 
HETATM    2  C   LIG     1      -0.144  -1.331   0.673  1.00  0.00     0.134 A 
HETATM    3  N   LIG     1      -1.438  -1.534   0.306  1.00  0.00    -0.272 NA
HETATM    4  C   LIG     1      -2.135  -0.606  -0.401  1.00  0.00     0.116 A 
HETATM    5  C   LIG     1      -1.526   0.594  -0.767  1.00  0.00     0.020 A 
HETATM    6  C   LIG     1      -0.198   0.828  -0.404  1.00  0.00     0.021 A 
ENDROOT
BRANCH   1   7
HETATM    7  C   LIG     1       1.928   0.077   0.724  1.00  0.00     0.177 C 
HETATM    8  O   LIG     1       2.416  -0.592   1.674  1.00  0.00    -0.646 OA
BRANCH   7   9
HETATM    9  O   LIG     1       2.747   0.998   0.072  1.00  0.00    -0.773 OA
HETATM   10  H   LIG     1       2.456   1.495  -0.760  1.00  0.00     0.167 HD
ENDBRANCH   7   9
ENDBRANCH   1   7
TORSDOF 2
