MODEL 1
REMARK VINA RESULT:      -5.7      0.000      0.000
REMARK  2 active torsions:
REMARK  status: ('A' for Active; 'I' for Inactive)
REMARK    1  A    between atoms: C_2  and  C_4 
REMARK    2  A    between atoms: C_2  and  O_3 
ROOT
HETATM    1  C   LIG     1      17.036  36.850  24.289  1.00  0.00     0.055 A 
HETATM    2  C   LIG     1      17.524  37.660  25.330  1.00  0.00     0.134 A 
HETATM    3  N   LIG     1      18.090  37.098  26.432  1.00  0.00    -0.272 NA
HETATM    4  C   LIG     1      18.198  35.751  26.572  1.00  0.00     0.116 A 
HETATM    5  C   LIG     1      17.719  34.905  25.573  1.00  0.00     0.020 A 
HETATM    6  C   LIG     1      17.134  35.455  24.430  1.00  0.00     0.021 A 
ENDROOT
BRANCH   1   7
HETATM    7  C   LIG     1      16.416  37.467  23.091  1.00  0.00     0.177 C 
HETATM    8  O   LIG     1      16.992  37.380  21.974  1.00  0.00    -0.646 OA
BRANCH   7   9
HETATM    9  O   LIG     1      15.193  38.134  23.157  1.00  0.00    -0.773 OA
HETATM   10  H   LIG     1      14.819  38.505  24.021  1.00  0.00     0.167 HD
ENDBRANCH   7   9
ENDBRANCH   1   7
TORSDOF 2
ENDMDL
MODEL 2
REMARK VINA RESULT:      -5.6      3.410      4.600
REMARK  2 active torsions:
REMARK  status: ('A' for Active; 'I' for Inactive)
REMARK    1  A    between atoms: C_2  and  C_4 
REMARK    2  A    between atoms: C_2  and  O_3 
ROOT
HETATM    1  C   LIG     1      17.441  38.176  22.001  1.00  0.00     0.055 A 
HETATM    2  C   LIG     1      17.487  36.982  21.260  1.00  0.00     0.134 A 
HETATM    3  N   LIG     1      18.332  36.862  20.201  1.00  0.00    -0.272 NA
HETATM    4  C   LIG     1      19.147  37.879  19.817  1.00  0.00     0.116 A 
HETATM    5  C   LIG     1      19.129  39.088  20.513  1.00  0.00     0.020 A 
HETATM    6  C   LIG     1      18.272  39.238  21.605  1.00  0.00     0.021 A 
ENDROOT
BRANCH   1   7
HETATM    7  C   LIG     1      16.515  38.304  23.153  1.00  0.00     0.177 C 
HETATM    8  O   LIG     1      16.970  38.595  24.292  1.00  0.00    -0.646 OA
BRANCH   7   9
HETATM    9  O   LIG     1      15.139  38.128  23.014  1.00  0.00    -0.773 OA
HETATM   10  H   LIG     1      14.607  37.496  23.599  1.00  0.00     0.167 HD
ENDBRANCH   7   9
ENDBRANCH   1   7
TORSDOF 2
ENDMDL
MODEL 3
REMARK VINA RESULT:      -5.4      4.421      5.484
REMARK  2 active torsions:
REMARK  status: ('A' for Active; 'I' for Inactive)
REMARK    1  A    between atoms: C_2  and  C_4 
REMARK    2  A    between atoms: C_2  and  O_3 
ROOT
HETATM    1  C   LIG     1      18.765  38.359  19.924  1.00  0.00     0.055 A 
HETATM    2  C   LIG     1      18.509  36.984  19.778  1.00  0.00     0.134 A 
HETATM    3  N   LIG     1      17.785  36.315  20.716  1.00  0.00    -0.272 NA
HETATM    4  C   LIG     1      17.294  36.938  21.819  1.00  0.00     0.116 A 
HETATM    5  C   LIG     1      17.530  38.299  22.014  1.00  0.00     0.020 A 
HETATM    6  C   LIG     1      18.270  39.010  21.067  1.00  0.00     0.021 A 
ENDROOT
BRANCH   1   7
HETATM    7  C   LIG     1      19.558  39.084  18.901  1.00  0.00     0.177 C 
HETATM    8  O   LIG     1      18.996  39.496  17.851  1.00  0.00    -0.646 OA
BRANCH   7   9
HETATM    9  O   LIG     1      20.918  39.341  19.071  1.00  0.00    -0.773 OA
HETATM   10  H   LIG     1      21.263  40.110  19.630  1.00  0.00     0.167 HD
ENDBRANCH   7   9
ENDBRANCH   1   7
TORSDOF 2
ENDMDL
MODEL 4
REMARK VINA RESULT:      -5.2      2.759      3.602
REMARK  2 active torsions:
REMARK  status: ('A' for Active; 'I' for Inactive)
REMARK    1  A    between atoms: C_2  and  C_4 
REMARK    2  A    between atoms: C_2  and  O_3 
ROOT
HETATM    1  C   LIG     1      17.307  36.627  24.888  1.00  0.00     0.055 A 
HETATM    2  C   LIG     1      17.183  38.025  24.975  1.00  0.00     0.134 A 
HETATM    3  N   LIG     1      16.872  38.759  23.872  1.00  0.00    -0.272 NA
HETATM    4  C   LIG     1      16.678  38.179  22.659  1.00  0.00     0.116 A 
HETATM    5  C   LIG     1      16.801  36.797  22.519  1.00  0.00     0.020 A 
HETATM    6  C   LIG     1      17.119  36.020  23.634  1.00  0.00     0.021 A 
ENDROOT
BRANCH   1   7
HETATM    7  C   LIG     1      17.651  35.832  26.092  1.00  0.00     0.177 C 
HETATM    8  O   LIG     1      18.551  36.239  26.874  1.00  0.00    -0.646 OA
BRANCH   7   9
HETATM    9  O   LIG     1      16.993  34.642  26.400  1.00  0.00    -0.773 OA
HETATM   10  H   LIG     1      16.288  34.235  25.799  1.00  0.00     0.167 HD
ENDBRANCH   7   9
ENDBRANCH   1   7
TORSDOF 2
ENDMDL
MODEL 5
REMARK VINA RESULT:      -5.2     10.041     10.904
REMARK  2 active torsions:
REMARK  status: ('A' for Active; 'I' for Inactive)
REMARK    1  A    between atoms: C_2  and  C_4 
REMARK    2  A    between atoms: C_2  and  O_3 
ROOT
HETATM    1  C   LIG     1      14.901  31.746  15.982  1.00  0.00     0.055 A 
HETATM    2  C   LIG     1      15.923  32.151  15.105  1.00  0.00     0.134 A 
HETATM    3  N   LIG     1      16.091  31.525  13.909  1.00  0.00    -0.272 NA
HETATM    4  C   LIG     1      15.296  30.493  13.524  1.00  0.00     0.116 A 
HETATM    5  C   LIG     1      14.276  30.046  14.364  1.00  0.00     0.020 A 
HETATM    6  C   LIG     1      14.081  30.672  15.597  1.00  0.00     0.021 A 
ENDROOT
BRANCH   1   7
HETATM    7  C   LIG     1      14.724  32.428  17.287  1.00  0.00     0.177 C 
HETATM    8  O   LIG     1      15.407  33.453  17.555  1.00  0.00    -0.646 OA
BRANCH   7   9
HETATM    9  O   LIG     1      13.804  31.979  18.234  1.00  0.00    -0.773 OA
HETATM   10  H   LIG     1      14.081  31.493  19.077  1.00  0.00     0.167 HD
ENDBRANCH   7   9
ENDBRANCH   1   7
TORSDOF 2
ENDMDL
MODEL 6
REMARK VINA RESULT:      -5.2     10.336     11.217
REMARK  2 active torsions:
REMARK  status: ('A' for Active; 'I' for Inactive)
REMARK    1  A    between atoms: C_2  and  C_4 
REMARK    2  A    between atoms: C_2  and  O_3 
ROOT
HETATM    1  C   LIG     1      14.492  31.325  15.737  1.00  0.00     0.055 A 
HETATM    2  C   LIG     1      15.275  32.492  15.796  1.00  0.00     0.134 A 
HETATM    3  N   LIG     1      16.080  32.834  14.755  1.00  0.00    -0.272 NA
HETATM    4  C   LIG     1      16.166  32.068  13.636  1.00  0.00     0.116 A 
HETATM    5  C   LIG     1      15.419  30.895  13.534  1.00  0.00     0.020 A 
HETATM    6  C   LIG     1      14.582  30.521  14.588  1.00  0.00     0.021 A 
ENDROOT
BRANCH   1   7
HETATM    7  C   LIG     1      13.618  30.954  16.877  1.00  0.00     0.177 C 
HETATM    8  O   LIG     1      13.970  31.237  18.053  1.00  0.00    -0.646 OA
BRANCH   7   9
HETATM    9  O   LIG     1      12.397  30.308  16.688  1.00  0.00    -0.773 OA
HETATM   10  H   LIG     1      11.699  30.235  17.416  1.00  0.00     0.167 HD
ENDBRANCH   7   9
ENDBRANCH   1   7
TORSDOF 2
ENDMDL
MODEL 7
REMARK VINA RESULT:      -5.1      4.302      5.125
REMARK  2 active torsions:
REMARK  status: ('A' for Active; 'I' for Inactive)
REMARK    1  A    between atoms: C_2  and  C_4 
REMARK    2  A    between atoms: C_2  and  O_3 
ROOT
HETATM    1  C   LIG     1      17.926  36.918  20.704  1.00  0.00     0.055 A 
HETATM    2  C   LIG     1      18.888  36.952  19.678  1.00  0.00     0.134 A 
HETATM    3  N   LIG     1      19.664  38.055  19.500  1.00  0.00    -0.272 NA
HETATM    4  C   LIG     1      19.537  39.155  20.288  1.00  0.00     0.116 A 
HETATM    5  C   LIG     1      18.589  39.174  21.311  1.00  0.00     0.020 A 
HETATM    6  C   LIG     1      17.780  38.055  21.517  1.00  0.00     0.021 A 
ENDROOT
BRANCH   1   7
HETATM    7  C   LIG     1      17.078  35.715  20.892  1.00  0.00     0.177 C 
HETATM    8  O   LIG     1      16.407  35.266  19.926  1.00  0.00    -0.646 OA
BRANCH   7   9
HETATM    9  O   LIG     1      17.011  35.047  22.114  1.00  0.00    -0.773 OA
HETATM   10  H   LIG     1      17.202  35.502  22.998  1.00  0.00     0.167 HD
ENDBRANCH   7   9
ENDBRANCH   1   7
TORSDOF 2
ENDMDL
MODEL 8
REMARK VINA RESULT:      -5.1      9.084      9.988
REMARK  2 active torsions:
REMARK  status: ('A' for Active; 'I' for Inactive)
REMARK    1  A    between atoms: C_2  and  C_4 
REMARK    2  A    between atoms: C_2  and  O_3 
ROOT
HETATM    1  C   LIG     1      14.741  32.639  16.480  1.00  0.00     0.055 A 
HETATM    2  C   LIG     1      13.558  32.166  17.074  1.00  0.00     0.134 A 
HETATM    3  N   LIG     1      12.974  31.021  16.628  1.00  0.00    -0.272 NA
HETATM    4  C   LIG     1      13.499  30.304  15.599  1.00  0.00     0.116 A 
HETATM    5  C   LIG     1      14.665  30.739  14.970  1.00  0.00     0.020 A 
HETATM    6  C   LIG     1      15.286  31.911  15.409  1.00  0.00     0.021 A 
ENDROOT
BRANCH   1   7
HETATM    7  C   LIG     1      15.372  33.891  16.967  1.00  0.00     0.177 C 
HETATM    8  O   LIG     1      16.025  34.614  16.167  1.00  0.00    -0.646 OA
BRANCH   7   9
HETATM    9  O   LIG     1      15.253  34.307  18.292  1.00  0.00    -0.773 OA
HETATM   10  H   LIG     1      14.840  33.729  19.012  1.00  0.00     0.167 HD
ENDBRANCH   7   9
ENDBRANCH   1   7
TORSDOF 2
ENDMDL
MODEL 9
REMARK VINA RESULT:      -5.0      2.719      3.934
REMARK  2 active torsions:
REMARK  status: ('A' for Active; 'I' for Inactive)
REMARK    1  A    between atoms: C_2  and  C_4 
REMARK    2  A    between atoms: C_2  and  O_3 
ROOT
HETATM    1  C   LIG     1      17.325  37.406  23.748  1.00  0.00     0.055 A 
HETATM    2  C   LIG     1      16.981  36.157  23.199  1.00  0.00     0.134 A 
HETATM    3  N   LIG     1      17.080  35.943  21.860  1.00  0.00    -0.272 NA
HETATM    4  C   LIG     1      17.499  36.916  21.009  1.00  0.00     0.116 A 
HETATM    5  C   LIG     1      17.841  38.175  21.503  1.00  0.00     0.020 A 
HETATM    6  C   LIG     1      17.750  38.421  22.874  1.00  0.00     0.021 A 
ENDROOT
BRANCH   1   7
HETATM    7  C   LIG     1      17.212  37.636  25.209  1.00  0.00     0.177 C 
HETATM    8  O   LIG     1      16.934  38.787  25.641  1.00  0.00    -0.646 OA
BRANCH   7   9
HETATM    9  O   LIG     1      17.390  36.606  26.132  1.00  0.00    -0.773 OA
HETATM   10  H   LIG     1      18.281  36.414  26.571  1.00  0.00     0.167 HD
ENDBRANCH   7   9
ENDBRANCH   1   7
TORSDOF 2
ENDMDL
MODEL 10
REMARK VINA RESULT:      -5.0      9.889     10.716
REMARK  2 active torsions:
REMARK  status: ('A' for Active; 'I' for Inactive)
REMARK    1  A    between atoms: C_2  and  C_4 
REMARK    2  A    between atoms: C_2  and  O_3 
ROOT
HETATM    1  C   LIG     1      15.288  31.721  15.158  1.00  0.00     0.055 A 
HETATM    2  C   LIG     1      15.890  32.636  16.040  1.00  0.00     0.134 A 
HETATM    3  N   LIG     1      15.435  32.763  17.316  1.00  0.00    -0.272 NA
HETATM    4  C   LIG     1      14.390  32.028  17.779  1.00  0.00     0.116 A 
HETATM    5  C   LIG     1      13.752  31.116  16.939  1.00  0.00     0.020 A 
HETATM    6  C   LIG     1      14.199  30.964  15.625  1.00  0.00     0.021 A 
ENDROOT
BRANCH   1   7
HETATM    7  C   LIG     1      15.785  31.589  13.766  1.00  0.00     0.177 C 
HETATM    8  O   LIG     1      15.859  30.448  13.235  1.00  0.00    -0.646 OA
BRANCH   7   9
HETATM    9  O   LIG     1      16.162  32.698  13.011  1.00  0.00    -0.773 OA
HETATM   10  H   LIG     1      16.389  32.637  12.027  1.00  0.00     0.167 HD
ENDBRANCH   7   9
ENDBRANCH   1   7
TORSDOF 2
ENDMDL
MODEL 11
REMARK VINA RESULT:      -5.0      2.792      3.566
REMARK  2 active torsions:
REMARK  status: ('A' for Active; 'I' for Inactive)
REMARK    1  A    between atoms: C_2  and  C_4 
REMARK    2  A    between atoms: C_2  and  O_3 
ROOT
HETATM    1  C   LIG     1      17.181  36.725  23.560  1.00  0.00     0.055 A 
HETATM    2  C   LIG     1      17.406  37.680  22.552  1.00  0.00     0.134 A 
HETATM    3  N   LIG     1      17.395  37.313  21.242  1.00  0.00    -0.272 NA
HETATM    4  C   LIG     1      17.178  36.026  20.862  1.00  0.00     0.116 A 
HETATM    5  C   LIG     1      16.962  35.041  21.825  1.00  0.00     0.020 A 
HETATM    6  C   LIG     1      16.966  35.391  23.177  1.00  0.00     0.021 A 
ENDROOT
BRANCH   1   7
HETATM    7  C   LIG     1      17.198  37.130  24.987  1.00  0.00     0.177 C 
HETATM    8  O   LIG     1      17.574  36.307  25.865  1.00  0.00    -0.646 OA
BRANCH   7   9
HETATM    9  O   LIG     1      16.822  38.409  25.394  1.00  0.00    -0.773 OA
HETATM   10  H   LIG     1      15.872  38.644  25.652  1.00  0.00     0.167 HD
ENDBRANCH   7   9
ENDBRANCH   1   7
TORSDOF 2
ENDMDL
MODEL 12
REMARK VINA RESULT:      -5.0      9.493     10.438
REMARK  2 active torsions:
REMARK  status: ('A' for Active; 'I' for Inactive)
REMARK    1  A    between atoms: C_2  and  C_4 
REMARK    2  A    between atoms: C_2  and  O_3 
ROOT
HETATM    1  C   LIG     1      15.259  32.226  15.843  1.00  0.00     0.055 A 
HETATM    2  C   LIG     1      14.370  32.491  16.900  1.00  0.00     0.134 A 
HETATM    3  N   LIG     1      13.267  31.717  17.082  1.00  0.00    -0.272 NA
HETATM    4  C   LIG     1      12.980  30.675  16.257  1.00  0.00     0.116 A 
HETATM    5  C   LIG     1      13.825  30.379  15.188  1.00  0.00     0.020 A 
HETATM    6  C   LIG     1      14.965  31.157  14.979  1.00  0.00     0.021 A 
ENDROOT
BRANCH   1   7
HETATM    7  C   LIG     1      16.459  33.076  15.646  1.00  0.00     0.177 C 
HETATM    8  O   LIG     1      16.380  34.320  15.828  1.00  0.00    -0.646 OA
BRANCH   7   9
HETATM    9  O   LIG     1      17.691  32.536  15.276  1.00  0.00    -0.773 OA
HETATM   10  H   LIG     1      17.774  31.707  14.703  1.00  0.00     0.167 HD
ENDBRANCH   7   9
ENDBRANCH   1   7
TORSDOF 2
ENDMDL
MODEL 13
REMARK VINA RESULT:      -5.0      3.781      4.354
REMARK  2 active torsions:
REMARK  status: ('A' for Active; 'I' for Inactive)
REMARK    1  A    between atoms: C_2  and  C_4 
REMARK    2  A    between atoms: C_2  and  O_3 
ROOT
HETATM    1  C   LIG     1      16.332  35.987  21.283  1.00  0.00     0.055 A 
HETATM    2  C   LIG     1      17.491  36.268  20.536  1.00  0.00     0.134 A 
HETATM    3  N   LIG     1      18.211  37.395  20.782  1.00  0.00    -0.272 NA
HETATM    4  C   LIG     1      17.842  38.286  21.739  1.00  0.00     0.116 A 
HETATM    5  C   LIG     1      16.694  38.058  22.498  1.00  0.00     0.020 A 
HETATM    6  C   LIG     1      15.936  36.908  22.267  1.00  0.00     0.021 A 
ENDROOT
BRANCH   1   7
HETATM    7  C   LIG     1      15.547  34.759  21.008  1.00  0.00     0.177 C 
HETATM    8  O   LIG     1      16.029  33.861  20.267  1.00  0.00    -0.646 OA
BRANCH   7   9
HETATM    9  O   LIG     1      14.283  34.554  21.561  1.00  0.00    -0.773 OA
HETATM   10  H   LIG     1      13.706  35.313  21.901  1.00  0.00     0.167 HD
ENDBRANCH   7   9
ENDBRANCH   1   7
TORSDOF 2
ENDMDL
MODEL 14
REMARK VINA RESULT:      -5.0     10.888     11.691
REMARK  2 active torsions:
REMARK  status: ('A' for Active; 'I' for Inactive)
REMARK    1  A    between atoms: C_2  and  C_4 
REMARK    2  A    between atoms: C_2  and  O_3 
ROOT
HETATM    1  C   LIG     1      14.116  30.465  15.148  1.00  0.00     0.055 A 
HETATM    2  C   LIG     1      15.228  31.299  14.937  1.00  0.00     0.134 A 
HETATM    3  N   LIG     1      15.445  32.375  15.741  1.00  0.00    -0.272 NA
HETATM    4  C   LIG     1      14.603  32.687  16.761  1.00  0.00     0.116 A 
HETATM    5  C   LIG     1      13.479  31.897  17.004  1.00  0.00     0.020 A 
HETATM    6  C   LIG     1      13.234  30.786  16.194  1.00  0.00     0.021 A 
ENDROOT
BRANCH   1   7
HETATM    7  C   LIG     1      13.881  29.295  14.267  1.00  0.00     0.177 C 
HETATM    8  O   LIG     1      14.863  28.645  13.816  1.00  0.00    -0.646 OA
BRANCH   7   9
HETATM    9  O   LIG     1      12.596  28.875  13.927  1.00  0.00    -0.773 OA
HETATM   10  H   LIG     1      12.397  28.350  13.086  1.00  0.00     0.167 HD
ENDBRANCH   7   9
ENDBRANCH   1   7
TORSDOF 2
ENDMDL
MODEL 15
REMARK VINA RESULT:      -4.9      2.603      3.397
REMARK  2 active torsions:
REMARK  status: ('A' for Active; 'I' for Inactive)
REMARK    1  A    between atoms: C_2  and  C_4 
REMARK    2  A    between atoms: C_2  and  O_3 
ROOT
HETATM    1  C   LIG     1      17.205  36.742  21.804  1.00  0.00     0.055 A 
HETATM    2  C   LIG     1      17.015  35.984  22.973  1.00  0.00     0.134 A 
HETATM    3  N   LIG     1      16.951  36.596  24.187  1.00  0.00    -0.272 NA
HETATM    4  C   LIG     1      17.073  37.943  24.316  1.00  0.00     0.116 A 
HETATM    5  C   LIG     1      17.273  38.737  23.187  1.00  0.00     0.020 A 
HETATM    6  C   LIG     1      17.343  38.135  21.929  1.00  0.00     0.021 A 
ENDROOT
BRANCH   1   7
HETATM    7  C   LIG     1      17.279  36.071  20.483  1.00  0.00     0.177 C 
HETATM    8  O   LIG     1      18.190  36.387  19.671  1.00  0.00    -0.646 OA
BRANCH   7   9
HETATM    9  O   LIG     1      16.373  35.078  20.110  1.00  0.00    -0.773 OA
HETATM   10  H   LIG     1      15.531  35.276  19.586  1.00  0.00     0.167 HD
ENDBRANCH   7   9
ENDBRANCH   1   7
TORSDOF 2
ENDMDL
MODEL 16
REMARK VINA RESULT:      -4.7     10.681     11.580
REMARK  2 active torsions:
REMARK  status: ('A' for Active; 'I' for Inactive)
REMARK    1  A    between atoms: C_2  and  C_4 
REMARK    2  A    between atoms: C_2  and  O_3 
ROOT
HETATM    1  C   LIG     1      14.480  31.111  15.252  1.00  0.00     0.055 A 
HETATM    2  C   LIG     1      15.145  30.833  14.044  1.00  0.00     0.134 A 
HETATM    3  N   LIG     1      16.262  31.528  13.698  1.00  0.00    -0.272 NA
HETATM    4  C   LIG     1      16.767  32.510  14.489  1.00  0.00     0.116 A 
HETATM    5  C   LIG     1      16.137  32.831  15.691  1.00  0.00     0.020 A 
HETATM    6  C   LIG     1      14.990  32.132  16.072  1.00  0.00     0.021 A 
ENDROOT
BRANCH   1   7
HETATM    7  C   LIG     1      13.260  30.353  15.624  1.00  0.00     0.177 C 
HETATM    8  O   LIG     1      12.740  30.525  16.759  1.00  0.00    -0.646 OA
BRANCH   7   9
HETATM    9  O   LIG     1      12.652  29.459  14.744  1.00  0.00    -0.773 OA
HETATM   10  H   LIG     1      12.930  29.372  13.775  1.00  0.00     0.167 HD
ENDBRANCH   7   9
ENDBRANCH   1   7
TORSDOF 2
ENDMDL
MODEL 17
REMARK VINA RESULT:      -4.3     12.243     13.069
REMARK  2 active torsions:
REMARK  status: ('A' for Active; 'I' for Inactive)
REMARK    1  A    between atoms: C_2  and  C_4 
REMARK    2  A    between atoms: C_2  and  O_3 
ROOT
HETATM    1  C   LIG     1      14.276  29.347  14.261  1.00  0.00     0.055 A 
HETATM    2  C   LIG     1      15.471  29.899  13.766  1.00  0.00     0.134 A 
HETATM    3  N   LIG     1      15.950  31.068  14.271  1.00  0.00    -0.272 NA
HETATM    4  C   LIG     1      15.298  31.743  15.254  1.00  0.00     0.116 A 
HETATM    5  C   LIG     1      14.103  31.242  15.770  1.00  0.00     0.020 A 
HETATM    6  C   LIG     1      13.590  30.043  15.270  1.00  0.00     0.021 A 
ENDROOT
BRANCH   1   7
HETATM    7  C   LIG     1      13.756  28.074  13.705  1.00  0.00     0.177 C 
HETATM    8  O   LIG     1      12.585  27.701  13.985  1.00  0.00    -0.646 OA
BRANCH   7   9
HETATM    9  O   LIG     1      14.521  27.273  12.858  1.00  0.00    -0.773 OA
HETATM   10  H   LIG     1      14.176  26.407  12.465  1.00  0.00     0.167 HD
ENDBRANCH   7   9
ENDBRANCH   1   7
TORSDOF 2
ENDMDL
MODEL 18
REMARK VINA RESULT:      -4.3     12.251     13.418
REMARK  2 active torsions:
REMARK  status: ('A' for Active; 'I' for Inactive)
REMARK    1  A    between atoms: C_2  and  C_4 
REMARK    2  A    between atoms: C_2  and  O_3 
ROOT
HETATM    1  C   LIG     1      18.962  34.288  12.064  1.00  0.00     0.055 A 
HETATM    2  C   LIG     1      20.297  34.055  12.440  1.00  0.00     0.134 A 
HETATM    3  N   LIG     1      21.318  34.434  11.624  1.00  0.00    -0.272 NA
HETATM    4  C   LIG     1      21.091  35.036  10.427  1.00  0.00     0.116 A 
HETATM    5  C   LIG     1      19.784  35.279  10.005  1.00  0.00     0.020 A 
HETATM    6  C   LIG     1      18.718  34.901  10.823  1.00  0.00     0.021 A 
ENDROOT
BRANCH   1   7
HETATM    7  C   LIG     1      17.852  33.869  12.955  1.00  0.00     0.177 C 
HETATM    8  O   LIG     1      17.405  34.673  13.816  1.00  0.00    -0.646 OA
BRANCH   7   9
HETATM    9  O   LIG     1      17.269  32.607  12.860  1.00  0.00    -0.773 OA
HETATM   10  H   LIG     1      17.800  31.775  12.636  1.00  0.00     0.167 HD
ENDBRANCH   7   9
ENDBRANCH   1   7
TORSDOF 2
ENDMDL
MODEL 19
REMARK VINA RESULT:      -3.3     15.653     16.345
REMARK  2 active torsions:
REMARK  status: ('A' for Active; 'I' for Inactive)
REMARK    1  A    between atoms: C_2  and  C_4 
REMARK    2  A    between atoms: C_2  and  O_3 
ROOT
HETATM    1  C   LIG     1      26.708  28.618  34.582  1.00  0.00     0.055 A 
HETATM    2  C   LIG     1      27.137  27.842  35.674  1.00  0.00     0.134 A 
HETATM    3  N   LIG     1      27.047  28.328  36.941  1.00  0.00    -0.272 NA
HETATM    4  C   LIG     1      26.554  29.568  37.198  1.00  0.00     0.116 A 
HETATM    5  C   LIG     1      26.127  30.380  36.148  1.00  0.00     0.020 A 
HETATM    6  C   LIG     1      26.207  29.906  34.838  1.00  0.00     0.021 A 
ENDROOT
BRANCH   1   7
HETATM    7  C   LIG     1      26.812  28.086  33.201  1.00  0.00     0.177 C 
HETATM    8  O   LIG     1      27.877  28.248  32.547  1.00  0.00    -0.646 OA
BRANCH   7   9
HETATM    9  O   LIG     1      25.765  27.389  32.600  1.00  0.00    -0.773 OA
HETATM   10  H   LIG     1      25.415  26.511  32.960  1.00  0.00     0.167 HD
ENDBRANCH   7   9
ENDBRANCH   1   7
TORSDOF 2
ENDMDL
MODEL 20
REMARK VINA RESULT:      -3.2     16.047     16.640
REMARK  2 active torsions:
REMARK  status: ('A' for Active; 'I' for Inactive)
REMARK    1  A    between atoms: C_2  and  C_4 
REMARK    2  A    between atoms: C_2  and  O_3 
ROOT
HETATM    1  C   LIG     1      26.675  30.240  36.123  1.00  0.00     0.055 A 
HETATM    2  C   LIG     1      26.928  28.878  35.882  1.00  0.00     0.134 A 
HETATM    3  N   LIG     1      27.554  28.487  34.739  1.00  0.00    -0.272 NA
HETATM    4  C   LIG     1      27.945  29.382  33.795  1.00  0.00     0.116 A 
HETATM    5  C   LIG     1      27.706  30.743  33.983  1.00  0.00     0.020 A 
HETATM    6  C   LIG     1      27.066  31.173  35.148  1.00  0.00     0.021 A 
ENDROOT
BRANCH   1   7
HETATM    7  C   LIG     1      25.988  30.662  37.369  1.00  0.00     0.177 C 
HETATM    8  O   LIG     1      26.139  31.838  37.798  1.00  0.00    -0.646 OA
BRANCH   7   9
HETATM    9  O   LIG     1      25.160  29.797  38.083  1.00  0.00    -0.773 OA
HETATM   10  H   LIG     1      25.332  28.802  38.143  1.00  0.00     0.167 HD
ENDBRANCH   7   9
ENDBRANCH   1   7
TORSDOF 2
ENDMDL
