REMARK  7 active torsions:
REMARK  status: ('A' for Active; 'I' for Inactive)
REMARK    1  A    between atoms: O_1  and  C_2 
REMARK    2  A    between atoms: C_2  and  CA_3 
REMARK    3  A    between atoms: CA_3  and  C_5 
REMARK    4  A    between atoms: CA_3  and  N_4 
REMARK    5  A    between atoms: C_5  and  C_6 
REMARK    6  A    between atoms: C_9  and  O_10 
REMARK    7  A    between atoms: C_11  and  O_12 
ROOT
HETATM    1  C   LIG     1       0.263   0.038  -0.646  1.00  0.00    -0.053 A 
HETATM    2  C   LIG     1       0.776  -1.112  -1.268  1.00  0.00     0.010 A 
HETATM    3  C   LIG     1       2.134  -1.424  -1.162  1.00  0.00     0.040 A 
HETATM    4  C   LIG     1       2.996  -0.591  -0.437  1.00  0.00     0.098 A 
HETATM    5  C   LIG     1       2.494   0.561   0.182  1.00  0.00     0.099 A 
HETATM    6  C   LIG     1       1.131   0.874   0.076  1.00  0.00     0.046 A 
ENDROOT
BRANCH   1   7
HETATM    7  C   LIG     1      -1.202   0.378  -0.757  1.00  0.00     0.085 C 
BRANCH   7   8
HETATM    8  CA  LIG     1      -1.939   0.213   0.590  1.00  0.00     0.318 C 
BRANCH   8   9
HETATM    9  C   LIG     1      -3.358   0.688   0.465  1.00  0.00     0.174 C 
HETATM   10  OXT LIG     1      -4.189   0.035  -0.223  1.00  0.00    -0.648 OA
BRANCH   9  11
HETATM   11  O   LIG     1      -3.751   1.866   1.091  1.00  0.00    -0.775 OA
HETATM   12  H   LIG     1      -4.702   2.206   1.010  1.00  0.00     0.167 HD
ENDBRANCH   9  11
ENDBRANCH   8   9
BRANCH   8  13
HETATM   13  N   LIG     1      -1.925  -1.178   1.053  1.00  0.00     0.093 N 
HETATM   14  H1  LIG     1      -2.211  -1.812   0.271  1.00  0.00     0.314 HD
HETATM   15  H2  LIG     1      -0.949  -1.435   1.325  1.00  0.00     0.314 HD
ENDBRANCH   8  13
ENDBRANCH   7   8
ENDBRANCH   1   7
BRANCH   5  16
HETATM   16  O   LIG     1       3.354   1.389   0.900  1.00  0.00    -0.358 OA
HETATM   17  H   LIG     1       3.021   2.229   1.359  1.00  0.00     0.217 HD
ENDBRANCH   5  16
BRANCH   4  18
HETATM   18  O   LIG     1       4.351  -0.900  -0.329  1.00  0.00    -0.358 OA
HETATM   19  H   LIG     1       4.742  -1.726  -0.766  1.00  0.00     0.217 HD
ENDBRANCH   4  18
TORSDOF 7
