MODEL 1
REMARK VINA RESULT:      -7.2      0.000      0.000
REMARK  7 active torsions:
REMARK  status: ('A' for Active; 'I' for Inactive)
REMARK    1  A    between atoms: O_1  and  C_2 
REMARK    2  A    between atoms: C_2  and  CA_3 
REMARK    3  A    between atoms: CA_3  and  C_5 
REMARK    4  A    between atoms: CA_3  and  N_4 
REMARK    5  A    between atoms: C_5  and  C_6 
REMARK    6  A    between atoms: C_9  and  O_10 
REMARK    7  A    between atoms: C_11  and  O_12 
ROOT
HETATM    1  C   LIG     1      17.667  36.653  21.083  1.00  0.00    -0.053 A 
HETATM    2  C   LIG     1      18.391  36.400  19.907  1.00  0.00     0.010 A 
HETATM    3  C   LIG     1      19.224  37.384  19.366  1.00  0.00     0.040 A 
HETATM    4  C   LIG     1      19.340  38.632  19.991  1.00  0.00     0.098 A 
HETATM    5  C   LIG     1      18.617  38.895  21.162  1.00  0.00     0.099 A 
HETATM    6  C   LIG     1      17.782  37.908  21.704  1.00  0.00     0.046 A 
ENDROOT
BRANCH   1   7
HETATM    7  C   LIG     1      16.768  35.594  21.670  1.00  0.00     0.085 C 
BRANCH   7   8
HETATM    8  CA  LIG     1      15.523  35.338  20.792  1.00  0.00     0.318 C 
BRANCH   8   9
HETATM    9  C   LIG     1      15.226  33.867  20.733  1.00  0.00     0.174 C 
HETATM   10  OXT LIG     1      15.933  33.104  20.020  1.00  0.00    -0.648 OA
BRANCH   9  11
HETATM   11  O   LIG     1      14.151  33.349  21.447  1.00  0.00    -0.775 OA
HETATM   12  H   LIG     1      13.337  32.983  20.969  1.00  0.00     0.167 HD
ENDBRANCH   9  11
ENDBRANCH   8   9
BRANCH   8  13
HETATM   13  N   LIG     1      14.347  36.058  21.290  1.00  0.00     0.093 N 
HETATM   14  H1  LIG     1      14.013  36.732  20.562  1.00  0.00     0.314 HD
HETATM   15  H2  LIG     1      13.577  35.372  21.460  1.00  0.00     0.314 HD
ENDBRANCH   8  13
ENDBRANCH   7   8
ENDBRANCH   1   7
BRANCH   5  16
HETATM   16  O   LIG     1      18.732  40.139  21.779  1.00  0.00    -0.358 OA
HETATM   17  H   LIG     1      19.633  40.511  22.058  1.00  0.00     0.217 HD
ENDBRANCH   5  16
BRANCH   4  18
HETATM   18  O   LIG     1      20.170  39.615  19.455  1.00  0.00    -0.358 OA
HETATM   19  H   LIG     1      19.819  40.306  18.802  1.00  0.00     0.217 HD
ENDBRANCH   4  18
TORSDOF 7
ENDMDL
MODEL 2
REMARK VINA RESULT:      -7.1      3.030      3.821
REMARK  7 active torsions:
REMARK  status: ('A' for Active; 'I' for Inactive)
REMARK    1  A    between atoms: O_1  and  C_2 
REMARK    2  A    between atoms: C_2  and  CA_3 
REMARK    3  A    between atoms: CA_3  and  C_5 
REMARK    4  A    between atoms: CA_3  and  N_4 
REMARK    5  A    between atoms: C_5  and  C_6 
REMARK    6  A    between atoms: C_9  and  O_10 
REMARK    7  A    between atoms: C_11  and  O_12 
ROOT
HETATM    1  C   LIG     1      16.936  35.840  22.750  1.00  0.00    -0.053 A 
HETATM    2  C   LIG     1      16.831  37.202  22.426  1.00  0.00     0.010 A 
HETATM    3  C   LIG     1      16.948  38.175  23.422  1.00  0.00     0.040 A 
HETATM    4  C   LIG     1      17.169  37.799  24.754  1.00  0.00     0.098 A 
HETATM    5  C   LIG     1      17.269  36.442  25.087  1.00  0.00     0.099 A 
HETATM    6  C   LIG     1      17.152  35.466  24.087  1.00  0.00     0.046 A 
ENDROOT
BRANCH   1   7
HETATM    7  C   LIG     1      16.811  34.787  21.677  1.00  0.00     0.085 C 
BRANCH   7   8
HETATM    8  CA  LIG     1      15.528  34.967  20.836  1.00  0.00     0.318 C 
BRANCH   8   9
HETATM    9  C   LIG     1      15.576  34.080  19.625  1.00  0.00     0.174 C 
HETATM   10  OXT LIG     1      15.795  32.845  19.749  1.00  0.00    -0.648 OA
BRANCH   9  11
HETATM   11  O   LIG     1      15.402  34.629  18.359  1.00  0.00    -0.775 OA
HETATM   12  H   LIG     1      14.622  35.245  18.162  1.00  0.00     0.167 HD
ENDBRANCH   9  11
ENDBRANCH   8   9
BRANCH   8  13
HETATM   13  N   LIG     1      14.320  34.673  21.613  1.00  0.00     0.093 N 
HETATM   14  H1  LIG     1      13.579  35.378  21.391  1.00  0.00     0.314 HD
HETATM   15  H2  LIG     1      13.956  33.735  21.331  1.00  0.00     0.314 HD
ENDBRANCH   8  13
ENDBRANCH   7   8
ENDBRANCH   1   7
BRANCH   5  16
HETATM   16  O   LIG     1      17.486  36.071  26.412  1.00  0.00    -0.358 OA
HETATM   17  H   LIG     1      18.339  36.319  26.900  1.00  0.00     0.217 HD
ENDBRANCH   5  16
BRANCH   4  18
HETATM   18  O   LIG     1      17.287  38.767  25.750  1.00  0.00    -0.358 OA
HETATM   19  H   LIG     1      16.548  39.437  25.928  1.00  0.00     0.217 HD
ENDBRANCH   4  18
TORSDOF 7
ENDMDL
MODEL 3
REMARK VINA RESULT:      -7.0      2.738      3.577
REMARK  7 active torsions:
REMARK  status: ('A' for Active; 'I' for Inactive)
REMARK    1  A    between atoms: O_1  and  C_2 
REMARK    2  A    between atoms: C_2  and  CA_3 
REMARK    3  A    between atoms: CA_3  and  C_5 
REMARK    4  A    between atoms: CA_3  and  N_4 
REMARK    5  A    between atoms: C_5  and  C_6 
REMARK    6  A    between atoms: C_9  and  O_10 
REMARK    7  A    between atoms: C_11  and  O_12 
ROOT
HETATM    1  C   LIG     1      16.839  35.702  22.821  1.00  0.00    -0.053 A 
HETATM    2  C   LIG     1      17.210  35.354  24.130  1.00  0.00     0.010 A 
HETATM    3  C   LIG     1      17.348  36.342  25.110  1.00  0.00     0.040 A 
HETATM    4  C   LIG     1      17.121  37.687  24.793  1.00  0.00     0.098 A 
HETATM    5  C   LIG     1      16.756  38.044  23.489  1.00  0.00     0.099 A 
HETATM    6  C   LIG     1      16.617  37.053  22.506  1.00  0.00     0.046 A 
ENDROOT
BRANCH   1   7
HETATM    7  C   LIG     1      16.688  34.640  21.762  1.00  0.00     0.085 C 
BRANCH   7   8
HETATM    8  CA  LIG     1      15.421  34.853  20.904  1.00  0.00     0.318 C 
BRANCH   8   9
HETATM    9  C   LIG     1      15.616  34.265  19.537  1.00  0.00     0.174 C 
HETATM   10  OXT LIG     1      15.742  35.017  18.533  1.00  0.00    -0.648 OA
BRANCH   9  11
HETATM   11  O   LIG     1      15.635  32.884  19.374  1.00  0.00    -0.775 OA
HETATM   12  H   LIG     1      15.086  32.281  19.976  1.00  0.00     0.167 HD
ENDBRANCH   9  11
ENDBRANCH   8   9
BRANCH   8  13
HETATM   13  N   LIG     1      14.234  34.261  21.529  1.00  0.00     0.093 N 
HETATM   14  H1  LIG     1      14.484  33.341  21.960  1.00  0.00     0.314 HD
HETATM   15  H2  LIG     1      13.906  34.889  22.298  1.00  0.00     0.314 HD
ENDBRANCH   8  13
ENDBRANCH   7   8
ENDBRANCH   1   7
BRANCH   5  16
HETATM   16  O   LIG     1      16.534  39.384  23.177  1.00  0.00    -0.358 OA
HETATM   17  H   LIG     1      16.569  39.718  22.221  1.00  0.00     0.217 HD
ENDBRANCH   5  16
BRANCH   4  18
HETATM   18  O   LIG     1      17.258  38.674  25.768  1.00  0.00    -0.358 OA
HETATM   19  H   LIG     1      17.934  38.588  26.517  1.00  0.00     0.217 HD
ENDBRANCH   4  18
TORSDOF 7
ENDMDL
MODEL 4
REMARK VINA RESULT:      -6.9      3.276      4.080
REMARK  7 active torsions:
REMARK  status: ('A' for Active; 'I' for Inactive)
REMARK    1  A    between atoms: O_1  and  C_2 
REMARK    2  A    between atoms: C_2  and  CA_3 
REMARK    3  A    between atoms: CA_3  and  C_5 
REMARK    4  A    between atoms: CA_3  and  N_4 
REMARK    5  A    between atoms: C_5  and  C_6 
REMARK    6  A    between atoms: C_9  and  O_10 
REMARK    7  A    between atoms: C_11  and  O_12 
ROOT
HETATM    1  C   LIG     1      16.488  36.284  23.213  1.00  0.00    -0.053 A 
HETATM    2  C   LIG     1      17.005  35.114  23.791  1.00  0.00     0.010 A 
HETATM    3  C   LIG     1      17.627  35.162  25.042  1.00  0.00     0.040 A 
HETATM    4  C   LIG     1      17.743  36.378  25.727  1.00  0.00     0.098 A 
HETATM    5  C   LIG     1      17.234  37.551  25.155  1.00  0.00     0.099 A 
HETATM    6  C   LIG     1      16.610  37.503  23.900  1.00  0.00     0.046 A 
ENDROOT
BRANCH   1   7
HETATM    7  C   LIG     1      15.815  36.236  21.864  1.00  0.00     0.085 C 
BRANCH   7   8
HETATM    8  CA  LIG     1      16.336  35.070  20.997  1.00  0.00     0.318 C 
BRANCH   8   9
HETATM    9  C   LIG     1      15.272  34.020  20.848  1.00  0.00     0.174 C 
HETATM   10  OXT LIG     1      15.437  33.056  20.052  1.00  0.00    -0.648 OA
BRANCH   9  11
HETATM   11  O   LIG     1      14.090  34.125  21.573  1.00  0.00    -0.775 OA
HETATM   12  H   LIG     1      13.332  33.469  21.429  1.00  0.00     0.167 HD
ENDBRANCH   9  11
ENDBRANCH   8   9
BRANCH   8  13
HETATM   13  N   LIG     1      16.767  35.525  19.671  1.00  0.00     0.093 N 
HETATM   14  H1  LIG     1      16.445  34.845  18.944  1.00  0.00     0.314 HD
HETATM   15  H2  LIG     1      16.313  36.444  19.464  1.00  0.00     0.314 HD
ENDBRANCH   8  13
ENDBRANCH   7   8
ENDBRANCH   1   7
BRANCH   5  16
HETATM   16  O   LIG     1      17.353  38.759  25.838  1.00  0.00    -0.358 OA
HETATM   17  H   LIG     1      18.215  39.025  26.300  1.00  0.00     0.217 HD
ENDBRANCH   5  16
BRANCH   4  18
HETATM   18  O   LIG     1      18.363  36.429  26.975  1.00  0.00    -0.358 OA
HETATM   19  H   LIG     1      19.357  36.264  27.079  1.00  0.00     0.217 HD
ENDBRANCH   4  18
TORSDOF 7
ENDMDL
MODEL 5
REMARK VINA RESULT:      -6.8      1.316      1.736
REMARK  7 active torsions:
REMARK  status: ('A' for Active; 'I' for Inactive)
REMARK    1  A    between atoms: O_1  and  C_2 
REMARK    2  A    between atoms: C_2  and  CA_3 
REMARK    3  A    between atoms: CA_3  and  C_5 
REMARK    4  A    between atoms: CA_3  and  N_4 
REMARK    5  A    between atoms: C_5  and  C_6 
REMARK    6  A    between atoms: C_9  and  O_10 
REMARK    7  A    between atoms: C_11  and  O_12 
ROOT
HETATM    1  C   LIG     1      17.110  36.163  21.535  1.00  0.00    -0.053 A 
HETATM    2  C   LIG     1      18.046  36.445  20.526  1.00  0.00     0.010 A 
HETATM    3  C   LIG     1      18.596  37.724  20.413  1.00  0.00     0.040 A 
HETATM    4  C   LIG     1      18.216  38.738  21.302  1.00  0.00     0.098 A 
HETATM    5  C   LIG     1      17.279  38.467  22.308  1.00  0.00     0.099 A 
HETATM    6  C   LIG     1      16.727  37.183  22.422  1.00  0.00     0.046 A 
ENDROOT
BRANCH   1   7
HETATM    7  C   LIG     1      16.515  34.783  21.661  1.00  0.00     0.085 C 
BRANCH   7   8
HETATM    8  CA  LIG     1      15.217  34.633  20.838  1.00  0.00     0.318 C 
BRANCH   8   9
HETATM    9  C   LIG     1      15.482  33.834  19.594  1.00  0.00     0.174 C 
HETATM   10  OXT LIG     1      15.755  32.606  19.674  1.00  0.00    -0.648 OA
BRANCH   9  11
HETATM   11  O   LIG     1      15.450  34.457  18.351  1.00  0.00    -0.775 OA
HETATM   12  H   LIG     1      15.296  33.922  17.505  1.00  0.00     0.167 HD
ENDBRANCH   9  11
ENDBRANCH   8   9
BRANCH   8  13
HETATM   13  N   LIG     1      14.149  33.996  21.613  1.00  0.00     0.093 N 
HETATM   14  H1  LIG     1      13.413  33.631  20.965  1.00  0.00     0.314 HD
HETATM   15  H2  LIG     1      14.546  33.179  22.130  1.00  0.00     0.314 HD
ENDBRANCH   8  13
ENDBRANCH   7   8
ENDBRANCH   1   7
BRANCH   5  16
HETATM   16  O   LIG     1      16.901  39.478  23.189  1.00  0.00    -0.358 OA
HETATM   17  H   LIG     1      16.070  39.397  23.763  1.00  0.00     0.217 HD
ENDBRANCH   5  16
BRANCH   4  18
HETATM   18  O   LIG     1      18.763  40.015  21.192  1.00  0.00    -0.358 OA
HETATM   19  H   LIG     1      19.140  40.501  21.997  1.00  0.00     0.217 HD
ENDBRANCH   4  18
TORSDOF 7
ENDMDL
MODEL 6
REMARK VINA RESULT:      -6.7      2.713      3.223
REMARK  7 active torsions:
REMARK  status: ('A' for Active; 'I' for Inactive)
REMARK    1  A    between atoms: O_1  and  C_2 
REMARK    2  A    between atoms: C_2  and  CA_3 
REMARK    3  A    between atoms: CA_3  and  C_5 
REMARK    4  A    between atoms: CA_3  and  N_4 
REMARK    5  A    between atoms: C_5  and  C_6 
REMARK    6  A    between atoms: C_9  and  O_10 
REMARK    7  A    between atoms: C_11  and  O_12 
ROOT
HETATM    1  C   LIG     1      17.697  37.056  21.253  1.00  0.00    -0.053 A 
HETATM    2  C   LIG     1      18.229  36.444  20.107  1.00  0.00     0.010 A 
HETATM    3  C   LIG     1      19.031  37.174  19.226  1.00  0.00     0.040 A 
HETATM    4  C   LIG     1      19.309  38.524  19.477  1.00  0.00     0.098 A 
HETATM    5  C   LIG     1      18.778  39.144  20.615  1.00  0.00     0.099 A 
HETATM    6  C   LIG     1      17.973  38.412  21.499  1.00  0.00     0.046 A 
ENDROOT
BRANCH   1   7
HETATM    7  C   LIG     1      16.831  36.272  22.207  1.00  0.00     0.085 C 
BRANCH   7   8
HETATM    8  CA  LIG     1      17.251  36.483  23.678  1.00  0.00     0.318 C 
BRANCH   8   9
HETATM    9  C   LIG     1      16.442  37.590  24.292  1.00  0.00     0.174 C 
HETATM   10  OXT LIG     1      16.833  38.148  25.354  1.00  0.00    -0.648 OA
BRANCH   9  11
HETATM   11  O   LIG     1      15.246  37.983  23.702  1.00  0.00    -0.775 OA
HETATM   12  H   LIG     1      15.146  38.005  22.694  1.00  0.00     0.167 HD
ENDBRANCH   9  11
ENDBRANCH   8   9
BRANCH   8  13
HETATM   13  N   LIG     1      17.094  35.261  24.471  1.00  0.00     0.093 N 
HETATM   14  H1  LIG     1      17.479  35.413  25.432  1.00  0.00     0.314 HD
HETATM   15  H2  LIG     1      16.075  35.049  24.571  1.00  0.00     0.314 HD
ENDBRANCH   8  13
ENDBRANCH   7   8
ENDBRANCH   1   7
BRANCH   5  16
HETATM   16  O   LIG     1      19.054  40.488  20.860  1.00  0.00    -0.358 OA
HETATM   17  H   LIG     1      19.805  40.770  21.480  1.00  0.00     0.217 HD
ENDBRANCH   5  16
BRANCH   4  18
HETATM   18  O   LIG     1      20.110  39.254  18.600  1.00  0.00    -0.358 OA
HETATM   19  H   LIG     1      21.035  39.571  18.867  1.00  0.00     0.217 HD
ENDBRANCH   4  18
TORSDOF 7
ENDMDL
MODEL 7
REMARK VINA RESULT:      -6.6      6.079      9.183
REMARK  7 active torsions:
REMARK  status: ('A' for Active; 'I' for Inactive)
REMARK    1  A    between atoms: O_1  and  C_2 
REMARK    2  A    between atoms: C_2  and  CA_3 
REMARK    3  A    between atoms: CA_3  and  C_5 
REMARK    4  A    between atoms: CA_3  and  N_4 
REMARK    5  A    between atoms: C_5  and  C_6 
REMARK    6  A    between atoms: C_9  and  O_10 
REMARK    7  A    between atoms: C_11  and  O_12 
ROOT
HETATM    1  C   LIG     1      14.088  31.267  15.833  1.00  0.00    -0.053 A 
HETATM    2  C   LIG     1      15.380  31.258  15.282  1.00  0.00     0.010 A 
HETATM    3  C   LIG     1      15.723  30.317  14.308  1.00  0.00     0.040 A 
HETATM    4  C   LIG     1      14.783  29.373  13.874  1.00  0.00     0.098 A 
HETATM    5  C   LIG     1      13.494  29.371  14.423  1.00  0.00     0.099 A 
HETATM    6  C   LIG     1      13.149  30.315  15.400  1.00  0.00     0.046 A 
ENDROOT
BRANCH   1   7
HETATM    7  C   LIG     1      13.713  32.281  16.885  1.00  0.00     0.085 C 
BRANCH   7   8
HETATM    8  CA  LIG     1      14.890  32.596  17.833  1.00  0.00     0.318 C 
BRANCH   8   9
HETATM    9  C   LIG     1      15.286  34.039  17.704  1.00  0.00     0.174 C 
HETATM   10  OXT LIG     1      15.521  34.535  16.569  1.00  0.00    -0.648 OA
BRANCH   9  11
HETATM   11  O   LIG     1      15.417  34.824  18.844  1.00  0.00    -0.775 OA
HETATM   12  H   LIG     1      16.312  35.228  19.098  1.00  0.00     0.167 HD
ENDBRANCH   9  11
ENDBRANCH   8   9
BRANCH   8  13
HETATM   13  N   LIG     1      14.561  32.299  19.230  1.00  0.00     0.093 N 
HETATM   14  H1  LIG     1      14.363  31.277  19.335  1.00  0.00     0.314 HD
HETATM   15  H2  LIG     1      15.388  32.522  19.828  1.00  0.00     0.314 HD
ENDBRANCH   8  13
ENDBRANCH   7   8
ENDBRANCH   1   7
BRANCH   5  16
HETATM   16  O   LIG     1      12.562  28.429  13.992  1.00  0.00    -0.358 OA
HETATM   17  H   LIG     1      12.849  27.535  13.612  1.00  0.00     0.217 HD
ENDBRANCH   5  16
BRANCH   4  18
HETATM   18  O   LIG     1      15.123  28.433  12.902  1.00  0.00    -0.358 OA
HETATM   19  H   LIG     1      14.734  28.475  11.967  1.00  0.00     0.217 HD
ENDBRANCH   4  18
TORSDOF 7
ENDMDL
MODEL 8
REMARK VINA RESULT:      -6.5      3.305      5.220
REMARK  7 active torsions:
REMARK  status: ('A' for Active; 'I' for Inactive)
REMARK    1  A    between atoms: O_1  and  C_2 
REMARK    2  A    between atoms: C_2  and  CA_3 
REMARK    3  A    between atoms: CA_3  and  C_5 
REMARK    4  A    between atoms: CA_3  and  N_4 
REMARK    5  A    between atoms: C_5  and  C_6 
REMARK    6  A    between atoms: C_9  and  O_10 
REMARK    7  A    between atoms: C_11  and  O_12 
ROOT
HETATM    1  C   LIG     1      17.260  37.339  22.731  1.00  0.00    -0.053 A 
HETATM    2  C   LIG     1      17.079  35.952  22.602  1.00  0.00     0.010 A 
HETATM    3  C   LIG     1      17.047  35.137  23.736  1.00  0.00     0.040 A 
HETATM    4  C   LIG     1      17.198  35.695  25.012  1.00  0.00     0.098 A 
HETATM    5  C   LIG     1      17.385  37.076  25.150  1.00  0.00     0.099 A 
HETATM    6  C   LIG     1      17.417  37.895  24.012  1.00  0.00     0.046 A 
ENDROOT
BRANCH   1   7
HETATM    7  C   LIG     1      17.295  38.223  21.510  1.00  0.00     0.085 C 
BRANCH   7   8
HETATM    8  CA  LIG     1      18.732  38.428  20.983  1.00  0.00     0.318 C 
BRANCH   8   9
HETATM    9  C   LIG     1      18.881  37.796  19.629  1.00  0.00     0.174 C 
HETATM   10  OXT LIG     1      19.028  38.517  18.604  1.00  0.00    -0.648 OA
BRANCH   9  11
HETATM   11  O   LIG     1      18.833  36.412  19.501  1.00  0.00    -0.775 OA
HETATM   12  H   LIG     1      18.063  35.960  19.023  1.00  0.00     0.167 HD
ENDBRANCH   9  11
ENDBRANCH   8   9
BRANCH   8  13
HETATM   13  N   LIG     1      19.087  39.848  20.906  1.00  0.00     0.093 N 
HETATM   14  H1  LIG     1      18.761  40.340  21.770  1.00  0.00     0.314 HD
HETATM   15  H2  LIG     1      20.128  39.935  20.868  1.00  0.00     0.314 HD
ENDBRANCH   8  13
ENDBRANCH   7   8
ENDBRANCH   1   7
BRANCH   5  16
HETATM   16  O   LIG     1      17.537  37.628  26.420  1.00  0.00    -0.358 OA
HETATM   17  H   LIG     1      17.437  38.624  26.581  1.00  0.00     0.217 HD
ENDBRANCH   5  16
BRANCH   4  18
HETATM   18  O   LIG     1      17.166  34.884  26.146  1.00  0.00    -0.358 OA
HETATM   19  H   LIG     1      17.024  35.273  27.070  1.00  0.00     0.217 HD
ENDBRANCH   4  18
TORSDOF 7
ENDMDL
MODEL 9
REMARK VINA RESULT:      -6.5      5.896      9.143
REMARK  7 active torsions:
REMARK  status: ('A' for Active; 'I' for Inactive)
REMARK    1  A    between atoms: O_1  and  C_2 
REMARK    2  A    between atoms: C_2  and  CA_3 
REMARK    3  A    between atoms: CA_3  and  C_5 
REMARK    4  A    between atoms: CA_3  and  N_4 
REMARK    5  A    between atoms: C_5  and  C_6 
REMARK    6  A    between atoms: C_9  and  O_10 
REMARK    7  A    between atoms: C_11  and  O_12 
ROOT
HETATM    1  C   LIG     1      14.858  31.374  15.709  1.00  0.00    -0.053 A 
HETATM    2  C   LIG     1      13.508  31.168  16.037  1.00  0.00     0.010 A 
HETATM    3  C   LIG     1      12.765  30.185  15.378  1.00  0.00     0.040 A 
HETATM    4  C   LIG     1      13.358  29.400  14.382  1.00  0.00     0.098 A 
HETATM    5  C   LIG     1      14.703  29.602  14.044  1.00  0.00     0.099 A 
HETATM    6  C   LIG     1      15.449  30.587  14.706  1.00  0.00     0.046 A 
ENDROOT
BRANCH   1   7
HETATM    7  C   LIG     1      15.664  32.432  16.419  1.00  0.00     0.085 C 
BRANCH   7   8
HETATM    8  CA  LIG     1      14.840  33.158  17.505  1.00  0.00     0.318 C 
BRANCH   8   9
HETATM    9  C   LIG     1      15.049  32.500  18.839  1.00  0.00     0.174 C 
HETATM   10  OXT LIG     1      15.960  32.904  19.611  1.00  0.00    -0.648 OA
BRANCH   9  11
HETATM   11  O   LIG     1      14.249  31.426  19.214  1.00  0.00    -0.775 OA
HETATM   12  H   LIG     1      14.044  31.246  20.189  1.00  0.00     0.167 HD
ENDBRANCH   9  11
ENDBRANCH   8   9
BRANCH   8  13
HETATM   13  N   LIG     1      15.189  34.579  17.597  1.00  0.00     0.093 N 
HETATM   14  H1  LIG     1      15.331  34.969  16.636  1.00  0.00     0.314 HD
HETATM   15  H2  LIG     1      14.392  35.096  18.032  1.00  0.00     0.314 HD
ENDBRANCH   8  13
ENDBRANCH   7   8
ENDBRANCH   1   7
BRANCH   5  16
HETATM   16  O   LIG     1      15.290  28.821  13.051  1.00  0.00    -0.358 OA
HETATM   17  H   LIG     1      15.414  29.168  12.107  1.00  0.00     0.217 HD
ENDBRANCH   5  16
BRANCH   4  18
HETATM   18  O   LIG     1      12.620  28.418  13.722  1.00  0.00    -0.358 OA
HETATM   19  H   LIG     1      12.703  27.439  13.967  1.00  0.00     0.217 HD
ENDBRANCH   4  18
TORSDOF 7
ENDMDL
MODEL 10
REMARK VINA RESULT:      -6.2      5.017      7.791
REMARK  7 active torsions:
REMARK  status: ('A' for Active; 'I' for Inactive)
REMARK    1  A    between atoms: O_1  and  C_2 
REMARK    2  A    between atoms: C_2  and  CA_3 
REMARK    3  A    between atoms: CA_3  and  C_5 
REMARK    4  A    between atoms: CA_3  and  N_4 
REMARK    5  A    between atoms: C_5  and  C_6 
REMARK    6  A    between atoms: C_9  and  O_10 
REMARK    7  A    between atoms: C_11  and  O_12 
ROOT
HETATM    1  C   LIG     1      14.688  32.225  16.675  1.00  0.00    -0.053 A 
HETATM    2  C   LIG     1      13.791  31.171  16.436  1.00  0.00     0.010 A 
HETATM    3  C   LIG     1      13.928  30.374  15.296  1.00  0.00     0.040 A 
HETATM    4  C   LIG     1      14.958  30.622  14.380  1.00  0.00     0.098 A 
HETATM    5  C   LIG     1      15.854  31.675  14.608  1.00  0.00     0.099 A 
HETATM    6  C   LIG     1      15.718  32.474  15.752  1.00  0.00     0.046 A 
ENDROOT
BRANCH   1   7
HETATM    7  C   LIG     1      14.545  33.086  17.905  1.00  0.00     0.085 C 
BRANCH   7   8
HETATM    8  CA  LIG     1      15.196  32.437  19.146  1.00  0.00     0.318 C 
BRANCH   8   9
HETATM    9  C   LIG     1      15.305  33.441  20.257  1.00  0.00     0.174 C 
HETATM   10  OXT LIG     1      16.287  34.231  20.307  1.00  0.00    -0.648 OA
BRANCH   9  11
HETATM   11  O   LIG     1      14.331  33.483  21.249  1.00  0.00    -0.775 OA
HETATM   12  H   LIG     1      13.881  32.635  21.573  1.00  0.00     0.167 HD
ENDBRANCH   9  11
ENDBRANCH   8   9
BRANCH   8  13
HETATM   13  N   LIG     1      14.442  31.269  19.610  1.00  0.00     0.093 N 
HETATM   14  H1  LIG     1      14.934  30.834  20.425  1.00  0.00     0.314 HD
HETATM   15  H2  LIG     1      13.502  31.582  19.941  1.00  0.00     0.314 HD
ENDBRANCH   8  13
ENDBRANCH   7   8
ENDBRANCH   1   7
BRANCH   5  16
HETATM   16  O   LIG     1      16.877  31.921  13.694  1.00  0.00    -0.358 OA
HETATM   17  H   LIG     1      17.757  31.421  13.737  1.00  0.00     0.217 HD
ENDBRANCH   5  16
BRANCH   4  18
HETATM   18  O   LIG     1      15.097  29.829  13.242  1.00  0.00    -0.358 OA
HETATM   19  H   LIG     1      15.984  29.406  12.997  1.00  0.00     0.217 HD
ENDBRANCH   4  18
TORSDOF 7
ENDMDL
MODEL 11
REMARK VINA RESULT:      -6.1      3.206      3.749
REMARK  7 active torsions:
REMARK  status: ('A' for Active; 'I' for Inactive)
REMARK    1  A    between atoms: O_1  and  C_2 
REMARK    2  A    between atoms: C_2  and  CA_3 
REMARK    3  A    between atoms: CA_3  and  C_5 
REMARK    4  A    between atoms: CA_3  and  N_4 
REMARK    5  A    between atoms: C_5  and  C_6 
REMARK    6  A    between atoms: C_9  and  O_10 
REMARK    7  A    between atoms: C_11  and  O_12 
ROOT
HETATM    1  C   LIG     1      17.132  37.496  22.646  1.00  0.00    -0.053 A 
HETATM    2  C   LIG     1      17.221  36.379  21.798  1.00  0.00     0.010 A 
HETATM    3  C   LIG     1      17.921  36.465  20.592  1.00  0.00     0.040 A 
HETATM    4  C   LIG     1      18.538  37.665  20.216  1.00  0.00     0.098 A 
HETATM    5  C   LIG     1      18.450  38.785  21.053  1.00  0.00     0.099 A 
HETATM    6  C   LIG     1      17.747  38.700  22.264  1.00  0.00     0.046 A 
ENDROOT
BRANCH   1   7
HETATM    7  C   LIG     1      16.379  37.408  23.949  1.00  0.00     0.085 C 
BRANCH   7   8
HETATM    8  CA  LIG     1      17.329  37.304  25.162  1.00  0.00     0.318 C 
BRANCH   8   9
HETATM    9  C   LIG     1      17.633  35.864  25.459  1.00  0.00     0.174 C 
HETATM   10  OXT LIG     1      18.480  35.562  26.343  1.00  0.00    -0.648 OA
BRANCH   9  11
HETATM   11  O   LIG     1      16.995  34.859  24.740  1.00  0.00    -0.775 OA
HETATM   12  H   LIG     1      15.986  34.844  24.649  1.00  0.00     0.167 HD
ENDBRANCH   9  11
ENDBRANCH   8   9
BRANCH   8  13
HETATM   13  N   LIG     1      18.580  38.035  24.940  1.00  0.00     0.093 N 
HETATM   14  H1  LIG     1      18.369  39.040  24.740  1.00  0.00     0.314 HD
HETATM   15  H2  LIG     1      19.152  38.002  25.814  1.00  0.00     0.314 HD
ENDBRANCH   8  13
ENDBRANCH   7   8
ENDBRANCH   1   7
BRANCH   5  16
HETATM   16  O   LIG     1      19.061  39.979  20.675  1.00  0.00    -0.358 OA
HETATM   17  H   LIG     1      19.984  40.231  21.010  1.00  0.00     0.217 HD
ENDBRANCH   5  16
BRANCH   4  18
HETATM   18  O   LIG     1      19.237  37.753  19.013  1.00  0.00    -0.358 OA
HETATM   19  H   LIG     1      20.245  37.855  18.994  1.00  0.00     0.217 HD
ENDBRANCH   4  18
TORSDOF 7
ENDMDL
MODEL 12
REMARK VINA RESULT:      -5.9      7.127      9.037
REMARK  7 active torsions:
REMARK  status: ('A' for Active; 'I' for Inactive)
REMARK    1  A    between atoms: O_1  and  C_2 
REMARK    2  A    between atoms: C_2  and  CA_3 
REMARK    3  A    between atoms: CA_3  and  C_5 
REMARK    4  A    between atoms: CA_3  and  N_4 
REMARK    5  A    between atoms: C_5  and  C_6 
REMARK    6  A    between atoms: C_9  and  O_10 
REMARK    7  A    between atoms: C_11  and  O_12 
ROOT
HETATM    1  C   LIG     1      14.818  30.967  14.851  1.00  0.00    -0.053 A 
HETATM    2  C   LIG     1      14.034  30.820  16.007  1.00  0.00     0.010 A 
HETATM    3  C   LIG     1      14.144  31.740  17.053  1.00  0.00     0.040 A 
HETATM    4  C   LIG     1      15.038  32.814  16.960  1.00  0.00     0.098 A 
HETATM    5  C   LIG     1      15.828  32.965  15.813  1.00  0.00     0.099 A 
HETATM    6  C   LIG     1      15.718  32.042  14.762  1.00  0.00     0.046 A 
ENDROOT
BRANCH   1   7
HETATM    7  C   LIG     1      14.703  29.977  13.718  1.00  0.00     0.085 C 
BRANCH   7   8
HETATM    8  CA  LIG     1      14.437  28.544  14.227  1.00  0.00     0.318 C 
BRANCH   8   9
HETATM    9  C   LIG     1      13.035  28.126  13.886  1.00  0.00     0.174 C 
HETATM   10  OXT LIG     1      12.746  26.903  13.774  1.00  0.00    -0.648 OA
BRANCH   9  11
HETATM   11  O   LIG     1      12.059  29.092  13.669  1.00  0.00    -0.775 OA
HETATM   12  H   LIG     1      11.081  28.836  13.594  1.00  0.00     0.167 HD
ENDBRANCH   9  11
ENDBRANCH   8   9
BRANCH   8  13
HETATM   13  N   LIG     1      15.388  27.580  13.664  1.00  0.00     0.093 N 
HETATM   14  H1  LIG     1      15.063  26.606  13.866  1.00  0.00     0.314 HD
HETATM   15  H2  LIG     1      15.412  27.694  12.625  1.00  0.00     0.314 HD
ENDBRANCH   8  13
ENDBRANCH   7   8
ENDBRANCH   1   7
BRANCH   5  16
HETATM   16  O   LIG     1      16.718  34.032  15.723  1.00  0.00    -0.358 OA
HETATM   17  H   LIG     1      17.409  34.209  16.444  1.00  0.00     0.217 HD
ENDBRANCH   5  16
BRANCH   4  18
HETATM   18  O   LIG     1      15.149  33.733  18.002  1.00  0.00    -0.358 OA
HETATM   19  H   LIG     1      15.711  34.571  17.911  1.00  0.00     0.217 HD
ENDBRANCH   4  18
TORSDOF 7
ENDMDL
MODEL 13
REMARK VINA RESULT:      -5.9      7.187      9.555
REMARK  7 active torsions:
REMARK  status: ('A' for Active; 'I' for Inactive)
REMARK    1  A    between atoms: O_1  and  C_2 
REMARK    2  A    between atoms: C_2  and  CA_3 
REMARK    3  A    between atoms: CA_3  and  C_5 
REMARK    4  A    between atoms: CA_3  and  N_4 
REMARK    5  A    between atoms: C_5  and  C_6 
REMARK    6  A    between atoms: C_9  and  O_10 
REMARK    7  A    between atoms: C_11  and  O_12 
ROOT
HETATM    1  C   LIG     1      16.039  32.054  15.124  1.00  0.00    -0.053 A 
HETATM    2  C   LIG     1      15.411  32.485  16.305  1.00  0.00     0.010 A 
HETATM    3  C   LIG     1      14.226  31.881  16.733  1.00  0.00     0.040 A 
HETATM    4  C   LIG     1      13.652  30.843  15.988  1.00  0.00     0.098 A 
HETATM    5  C   LIG     1      14.268  30.411  14.806  1.00  0.00     0.099 A 
HETATM    6  C   LIG     1      15.457  31.017  14.376  1.00  0.00     0.046 A 
ENDROOT
BRANCH   1   7
HETATM    7  C   LIG     1      17.318  32.702  14.658  1.00  0.00     0.085 C 
BRANCH   7   8
HETATM    8  CA  LIG     1      17.175  33.323  13.251  1.00  0.00     0.318 C 
BRANCH   8   9
HETATM    9  C   LIG     1      17.237  34.821  13.338  1.00  0.00     0.174 C 
HETATM   10  OXT LIG     1      17.249  35.518  12.287  1.00  0.00    -0.648 OA
BRANCH   9  11
HETATM   11  O   LIG     1      17.307  35.440  14.581  1.00  0.00    -0.775 OA
HETATM   12  H   LIG     1      17.948  36.208  14.745  1.00  0.00     0.167 HD
ENDBRANCH   9  11
ENDBRANCH   8   9
BRANCH   8  13
HETATM   13  N   LIG     1      18.211  32.839  12.334  1.00  0.00     0.093 N 
HETATM   14  H1  LIG     1      17.763  32.341  11.529  1.00  0.00     0.314 HD
HETATM   15  H2  LIG     1      18.730  33.660  11.946  1.00  0.00     0.314 HD
ENDBRANCH   8  13
ENDBRANCH   7   8
ENDBRANCH   1   7
BRANCH   5  16
HETATM   16  O   LIG     1      13.693  29.381  14.065  1.00  0.00    -0.358 OA
HETATM   17  H   LIG     1      13.195  28.620  14.513  1.00  0.00     0.217 HD
ENDBRANCH   5  16
BRANCH   4  18
HETATM   18  O   LIG     1      12.470  30.239  16.413  1.00  0.00    -0.358 OA
HETATM   19  H   LIG     1      12.065  29.458  15.911  1.00  0.00     0.217 HD
ENDBRANCH   4  18
TORSDOF 7
ENDMDL
MODEL 14
REMARK VINA RESULT:      -5.8      6.954      9.922
REMARK  7 active torsions:
REMARK  status: ('A' for Active; 'I' for Inactive)
REMARK    1  A    between atoms: O_1  and  C_2 
REMARK    2  A    between atoms: C_2  and  CA_3 
REMARK    3  A    between atoms: CA_3  and  C_5 
REMARK    4  A    between atoms: CA_3  and  N_4 
REMARK    5  A    between atoms: C_5  and  C_6 
REMARK    6  A    between atoms: C_9  and  O_10 
REMARK    7  A    between atoms: C_11  and  O_12 
ROOT
HETATM    1  C   LIG     1      15.209  31.679  15.259  1.00  0.00    -0.053 A 
HETATM    2  C   LIG     1      13.950  31.476  15.849  1.00  0.00     0.010 A 
HETATM    3  C   LIG     1      13.159  30.391  15.464  1.00  0.00     0.040 A 
HETATM    4  C   LIG     1      13.612  29.498  14.484  1.00  0.00     0.098 A 
HETATM    5  C   LIG     1      14.863  29.697  13.886  1.00  0.00     0.099 A 
HETATM    6  C   LIG     1      15.658  30.785  14.273  1.00  0.00     0.046 A 
ENDROOT
BRANCH   1   7
HETATM    7  C   LIG     1      16.066  32.849  15.673  1.00  0.00     0.085 C 
BRANCH   7   8
HETATM    8  CA  LIG     1      17.243  33.078  14.699  1.00  0.00     0.318 C 
BRANCH   8   9
HETATM    9  C   LIG     1      17.299  34.520  14.285  1.00  0.00     0.174 C 
HETATM   10  OXT LIG     1      17.186  35.434  15.147  1.00  0.00    -0.648 OA
BRANCH   9  11
HETATM   11  O   LIG     1      17.451  34.849  12.942  1.00  0.00    -0.775 OA
HETATM   12  H   LIG     1      17.914  35.707  12.666  1.00  0.00     0.167 HD
ENDBRANCH   9  11
ENDBRANCH   8   9
BRANCH   8  13
HETATM   13  N   LIG     1      18.526  32.686  15.290  1.00  0.00     0.093 N 
HETATM   14  H1  LIG     1      19.289  33.291  14.908  1.00  0.00     0.314 HD
HETATM   15  H2  LIG     1      18.485  32.845  16.323  1.00  0.00     0.314 HD
ENDBRANCH   8  13
ENDBRANCH   7   8
ENDBRANCH   1   7
BRANCH   5  16
HETATM   16  O   LIG     1      15.310  28.809  12.910  1.00  0.00    -0.358 OA
HETATM   17  H   LIG     1      15.247  29.030  11.923  1.00  0.00     0.217 HD
ENDBRANCH   5  16
BRANCH   4  18
HETATM   18  O   LIG     1      12.825  28.414  14.098  1.00  0.00    -0.358 OA
HETATM   19  H   LIG     1      13.237  27.564  13.733  1.00  0.00     0.217 HD
ENDBRANCH   4  18
TORSDOF 7
ENDMDL
MODEL 15
REMARK VINA RESULT:      -5.8      5.509      7.233
REMARK  7 active torsions:
REMARK  status: ('A' for Active; 'I' for Inactive)
REMARK    1  A    between atoms: O_1  and  C_2 
REMARK    2  A    between atoms: C_2  and  CA_3 
REMARK    3  A    between atoms: CA_3  and  C_5 
REMARK    4  A    between atoms: CA_3  and  N_4 
REMARK    5  A    between atoms: C_5  and  C_6 
REMARK    6  A    between atoms: C_9  and  O_10 
REMARK    7  A    between atoms: C_11  and  O_12 
ROOT
HETATM    1  C   LIG     1      15.852  33.319  15.905  1.00  0.00    -0.053 A 
HETATM    2  C   LIG     1      16.879  34.195  15.517  1.00  0.00     0.010 A 
HETATM    3  C   LIG     1      17.586  33.973  14.333  1.00  0.00     0.040 A 
HETATM    4  C   LIG     1      17.278  32.871  13.523  1.00  0.00     0.098 A 
HETATM    5  C   LIG     1      16.260  31.989  13.905  1.00  0.00     0.099 A 
HETATM    6  C   LIG     1      15.550  32.213  15.093  1.00  0.00     0.046 A 
ENDROOT
BRANCH   1   7
HETATM    7  C   LIG     1      15.086  33.556  17.182  1.00  0.00     0.085 C 
BRANCH   7   8
HETATM    8  CA  LIG     1      14.717  32.235  17.891  1.00  0.00     0.318 C 
BRANCH   8   9
HETATM    9  C   LIG     1      15.001  32.339  19.362  1.00  0.00     0.174 C 
HETATM   10  OXT LIG     1      15.877  33.142  19.785  1.00  0.00    -0.648 OA
BRANCH   9  11
HETATM   11  O   LIG     1      14.312  31.530  20.259  1.00  0.00    -0.775 OA
HETATM   12  H   LIG     1      13.365  31.228  20.065  1.00  0.00     0.167 HD
ENDBRANCH   9  11
ENDBRANCH   8   9
BRANCH   8  13
HETATM   13  N   LIG     1      13.310  31.880  17.686  1.00  0.00     0.093 N 
HETATM   14  H1  LIG     1      13.246  30.933  17.244  1.00  0.00     0.314 HD
HETATM   15  H2  LIG     1      12.835  31.826  18.615  1.00  0.00     0.314 HD
ENDBRANCH   8  13
ENDBRANCH   7   8
ENDBRANCH   1   7
BRANCH   5  16
HETATM   16  O   LIG     1      15.958  30.893  13.099  1.00  0.00    -0.358 OA
HETATM   17  H   LIG     1      15.846  29.964  13.488  1.00  0.00     0.217 HD
ENDBRANCH   5  16
BRANCH   4  18
HETATM   18  O   LIG     1      17.981  32.647  12.340  1.00  0.00    -0.358 OA
HETATM   19  H   LIG     1      17.785  33.177  11.499  1.00  0.00     0.217 HD
ENDBRANCH   4  18
TORSDOF 7
ENDMDL
MODEL 16
REMARK VINA RESULT:      -5.7      6.335      8.533
REMARK  7 active torsions:
REMARK  status: ('A' for Active; 'I' for Inactive)
REMARK    1  A    between atoms: O_1  and  C_2 
REMARK    2  A    between atoms: C_2  and  CA_3 
REMARK    3  A    between atoms: CA_3  and  C_5 
REMARK    4  A    between atoms: CA_3  and  N_4 
REMARK    5  A    between atoms: C_5  and  C_6 
REMARK    6  A    between atoms: C_9  and  O_10 
REMARK    7  A    between atoms: C_11  and  O_12 
ROOT
HETATM    1  C   LIG     1      14.142  31.250  16.063  1.00  0.00    -0.053 A 
HETATM    2  C   LIG     1      14.890  32.382  15.700  1.00  0.00     0.010 A 
HETATM    3  C   LIG     1      15.381  33.246  16.682  1.00  0.00     0.040 A 
HETATM    4  C   LIG     1      15.130  32.993  18.037  1.00  0.00     0.098 A 
HETATM    5  C   LIG     1      14.380  31.869  18.408  1.00  0.00     0.099 A 
HETATM    6  C   LIG     1      13.887  31.002  17.422  1.00  0.00     0.046 A 
ENDROOT
BRANCH   1   7
HETATM    7  C   LIG     1      13.610  30.314  15.007  1.00  0.00     0.085 C 
BRANCH   7   8
HETATM    8  CA  LIG     1      14.736  29.494  14.340  1.00  0.00     0.318 C 
BRANCH   8   9
HETATM    9  C   LIG     1      14.205  28.168  13.876  1.00  0.00     0.174 C 
HETATM   10  OXT LIG     1      14.996  27.271  13.475  1.00  0.00    -0.648 OA
BRANCH   9  11
HETATM   11  O   LIG     1      12.834  27.937  13.867  1.00  0.00    -0.775 OA
HETATM   12  H   LIG     1      12.433  27.208  13.289  1.00  0.00     0.167 HD
ENDBRANCH   9  11
ENDBRANCH   8   9
BRANCH   8  13
HETATM   13  N   LIG     1      15.334  30.208  13.207  1.00  0.00     0.093 N 
HETATM   14  H1  LIG     1      14.797  31.087  13.023  1.00  0.00     0.314 HD
HETATM   15  H2  LIG     1      16.311  30.482  13.457  1.00  0.00     0.314 HD
ENDBRANCH   8  13
ENDBRANCH   7   8
ENDBRANCH   1   7
BRANCH   5  16
HETATM   16  O   LIG     1      14.128  31.622  19.755  1.00  0.00    -0.358 OA
HETATM   17  H   LIG     1      14.024  30.678  20.111  1.00  0.00     0.217 HD
ENDBRANCH   5  16
BRANCH   4  18
HETATM   18  O   LIG     1      15.619  33.853  19.019  1.00  0.00    -0.358 OA
HETATM   19  H   LIG     1      15.076  34.079  19.843  1.00  0.00     0.217 HD
ENDBRANCH   4  18
TORSDOF 7
ENDMDL
MODEL 17
REMARK VINA RESULT:      -5.6      6.877      9.204
REMARK  7 active torsions:
REMARK  status: ('A' for Active; 'I' for Inactive)
REMARK    1  A    between atoms: O_1  and  C_2 
REMARK    2  A    between atoms: C_2  and  CA_3 
REMARK    3  A    between atoms: CA_3  and  C_5 
REMARK    4  A    between atoms: CA_3  and  N_4 
REMARK    5  A    between atoms: C_5  and  C_6 
REMARK    6  A    between atoms: C_9  and  O_10 
REMARK    7  A    between atoms: C_11  and  O_12 
ROOT
HETATM    1  C   LIG     1      15.400  31.333  14.418  1.00  0.00    -0.053 A 
HETATM    2  C   LIG     1      14.583  30.260  14.027  1.00  0.00     0.010 A 
HETATM    3  C   LIG     1      13.495  29.878  14.816  1.00  0.00     0.040 A 
HETATM    4  C   LIG     1      13.212  30.560  16.006  1.00  0.00     0.098 A 
HETATM    5  C   LIG     1      14.024  31.628  16.407  1.00  0.00     0.099 A 
HETATM    6  C   LIG     1      15.116  32.012  15.615  1.00  0.00     0.046 A 
ENDROOT
BRANCH   1   7
HETATM    7  C   LIG     1      16.575  31.749  13.569  1.00  0.00     0.085 C 
BRANCH   7   8
HETATM    8  CA  LIG     1      16.757  33.282  13.543  1.00  0.00     0.318 C 
BRANCH   8   9
HETATM    9  C   LIG     1      17.522  33.733  14.754  1.00  0.00     0.174 C 
HETATM   10  OXT LIG     1      18.466  33.030  15.207  1.00  0.00    -0.648 OA
BRANCH   9  11
HETATM   11  O   LIG     1      17.172  34.917  15.392  1.00  0.00    -0.775 OA
HETATM   12  H   LIG     1      16.200  35.182  15.501  1.00  0.00     0.167 HD
ENDBRANCH   9  11
ENDBRANCH   8   9
BRANCH   8  13
HETATM   13  N   LIG     1      17.449  33.729  12.330  1.00  0.00     0.093 N 
HETATM   14  H1  LIG     1      18.364  33.229  12.243  1.00  0.00     0.314 HD
HETATM   15  H2  LIG     1      16.871  33.475  11.497  1.00  0.00     0.314 HD
ENDBRANCH   8  13
ENDBRANCH   7   8
ENDBRANCH   1   7
BRANCH   5  16
HETATM   16  O   LIG     1      13.742  32.304  17.593  1.00  0.00    -0.358 OA
HETATM   17  H   LIG     1      12.915  32.881  17.690  1.00  0.00     0.217 HD
ENDBRANCH   5  16
BRANCH   4  18
HETATM   18  O   LIG     1      12.127  30.182  16.796  1.00  0.00    -0.358 OA
HETATM   19  H   LIG     1      12.157  30.254  17.806  1.00  0.00     0.217 HD
ENDBRANCH   4  18
TORSDOF 7
ENDMDL
MODEL 18
REMARK VINA RESULT:      -5.3      6.413      8.731
REMARK  7 active torsions:
REMARK  status: ('A' for Active; 'I' for Inactive)
REMARK    1  A    between atoms: O_1  and  C_2 
REMARK    2  A    between atoms: C_2  and  CA_3 
REMARK    3  A    between atoms: CA_3  and  C_5 
REMARK    4  A    between atoms: CA_3  and  N_4 
REMARK    5  A    between atoms: C_5  and  C_6 
REMARK    6  A    between atoms: C_9  and  O_10 
REMARK    7  A    between atoms: C_11  and  O_12 
ROOT
HETATM    1  C   LIG     1      15.921  32.292  14.655  1.00  0.00    -0.053 A 
HETATM    2  C   LIG     1      15.056  31.186  14.630  1.00  0.00     0.010 A 
HETATM    3  C   LIG     1      14.247  30.898  15.733  1.00  0.00     0.040 A 
HETATM    4  C   LIG     1      14.295  31.709  16.875  1.00  0.00     0.098 A 
HETATM    5  C   LIG     1      15.158  32.811  16.911  1.00  0.00     0.099 A 
HETATM    6  C   LIG     1      15.969  33.100  15.804  1.00  0.00     0.046 A 
ENDROOT
BRANCH   1   7
HETATM    7  C   LIG     1      16.794  32.607  13.467  1.00  0.00     0.085 C 
BRANCH   7   8
HETATM    8  CA  LIG     1      18.033  33.440  13.863  1.00  0.00     0.318 C 
BRANCH   8   9
HETATM    9  C   LIG     1      18.994  33.517  12.712  1.00  0.00     0.174 C 
HETATM   10  OXT LIG     1      18.936  32.672  11.777  1.00  0.00    -0.648 OA
BRANCH   9  11
HETATM   11  O   LIG     1      19.968  34.510  12.688  1.00  0.00    -0.775 OA
HETATM   12  H   LIG     1      20.675  34.562  13.412  1.00  0.00     0.167 HD
ENDBRANCH   9  11
ENDBRANCH   8   9
BRANCH   8  13
HETATM   13  N   LIG     1      17.666  34.794  14.289  1.00  0.00     0.093 N 
HETATM   14  H1  LIG     1      16.767  34.764  14.824  1.00  0.00     0.314 HD
HETATM   15  H2  LIG     1      18.404  35.158  14.933  1.00  0.00     0.314 HD
ENDBRANCH   8  13
ENDBRANCH   7   8
ENDBRANCH   1   7
BRANCH   5  16
HETATM   16  O   LIG     1      15.205  33.614  18.048  1.00  0.00    -0.358 OA
HETATM   17  H   LIG     1      15.989  34.230  18.230  1.00  0.00     0.217 HD
ENDBRANCH   5  16
BRANCH   4  18
HETATM   18  O   LIG     1      13.489  31.425  17.976  1.00  0.00    -0.358 OA
HETATM   19  H   LIG     1      13.316  30.472  18.274  1.00  0.00     0.217 HD
ENDBRANCH   4  18
TORSDOF 7
ENDMDL
MODEL 19
REMARK VINA RESULT:      -5.3      2.703      5.318
REMARK  7 active torsions:
REMARK  status: ('A' for Active; 'I' for Inactive)
REMARK    1  A    between atoms: O_1  and  C_2 
REMARK    2  A    between atoms: C_2  and  CA_3 
REMARK    3  A    between atoms: CA_3  and  C_5 
REMARK    4  A    between atoms: CA_3  and  N_4 
REMARK    5  A    between atoms: C_5  and  C_6 
REMARK    6  A    between atoms: C_9  and  O_10 
REMARK    7  A    between atoms: C_11  and  O_12 
ROOT
HETATM    1  C   LIG     1      18.117  37.428  20.715  1.00  0.00    -0.053 A 
HETATM    2  C   LIG     1      18.113  38.537  21.577  1.00  0.00     0.010 A 
HETATM    3  C   LIG     1      17.098  38.689  22.525  1.00  0.00     0.040 A 
HETATM    4  C   LIG     1      16.074  37.737  22.623  1.00  0.00     0.098 A 
HETATM    5  C   LIG     1      16.068  36.631  21.764  1.00  0.00     0.099 A 
HETATM    6  C   LIG     1      17.087  36.478  20.812  1.00  0.00     0.046 A 
ENDROOT
BRANCH   1   7
HETATM    7  C   LIG     1      19.211  37.260  19.691  1.00  0.00     0.085 C 
BRANCH   7   8
HETATM    8  CA  LIG     1      19.716  38.617  19.154  1.00  0.00     0.318 C 
BRANCH   8   9
HETATM    9  C   LIG     1      18.819  39.103  18.052  1.00  0.00     0.174 C 
HETATM   10  OXT LIG     1      18.354  40.275  18.082  1.00  0.00    -0.648 OA
BRANCH   9  11
HETATM   11  O   LIG     1      18.482  38.250  17.007  1.00  0.00    -0.775 OA
HETATM   12  H   LIG     1      18.470  37.245  17.139  1.00  0.00     0.167 HD
ENDBRANCH   9  11
ENDBRANCH   8   9
BRANCH   8  13
HETATM   13  N   LIG     1      19.789  39.629  20.212  1.00  0.00     0.093 N 
HETATM   14  H1  LIG     1      19.299  39.279  21.068  1.00  0.00     0.314 HD
HETATM   15  H2  LIG     1      20.792  39.784  20.464  1.00  0.00     0.314 HD
ENDBRANCH   8  13
ENDBRANCH   7   8
ENDBRANCH   1   7
BRANCH   5  16
HETATM   16  O   LIG     1      15.047  35.688  21.861  1.00  0.00    -0.358 OA
HETATM   17  H   LIG     1      15.114  34.897  22.491  1.00  0.00     0.217 HD
ENDBRANCH   5  16
BRANCH   4  18
HETATM   18  O   LIG     1      15.061  37.886  23.568  1.00  0.00    -0.358 OA
HETATM   19  H   LIG     1      14.086  37.754  23.325  1.00  0.00     0.217 HD
ENDBRANCH   4  18
TORSDOF 7
ENDMDL
MODEL 20
REMARK VINA RESULT:      -5.1      6.913      9.356
REMARK  7 active torsions:
REMARK  status: ('A' for Active; 'I' for Inactive)
REMARK    1  A    between atoms: O_1  and  C_2 
REMARK    2  A    between atoms: C_2  and  CA_3 
REMARK    3  A    between atoms: CA_3  and  C_5 
REMARK    4  A    between atoms: CA_3  and  N_4 
REMARK    5  A    between atoms: C_5  and  C_6 
REMARK    6  A    between atoms: C_9  and  O_10 
REMARK    7  A    between atoms: C_11  and  O_12 
ROOT
HETATM    1  C   LIG     1      15.885  32.057  14.501  1.00  0.00    -0.053 A 
HETATM    2  C   LIG     1      16.132  32.925  15.577  1.00  0.00     0.010 A 
HETATM    3  C   LIG     1      15.355  32.850  16.736  1.00  0.00     0.040 A 
HETATM    4  C   LIG     1      14.320  31.911  16.833  1.00  0.00     0.098 A 
HETATM    5  C   LIG     1      14.063  31.045  15.763  1.00  0.00     0.099 A 
HETATM    6  C   LIG     1      14.843  31.120  14.600  1.00  0.00     0.046 A 
ENDROOT
BRANCH   1   7
HETATM    7  C   LIG     1      16.722  32.134  13.249  1.00  0.00     0.085 C 
BRANCH   7   8
HETATM    8  CA  LIG     1      17.473  33.478  13.135  1.00  0.00     0.318 C 
BRANCH   8   9
HETATM    9  C   LIG     1      18.824  33.266  12.515  1.00  0.00     0.174 C 
HETATM   10  OXT LIG     1      19.832  33.879  12.960  1.00  0.00    -0.648 OA
BRANCH   9  11
HETATM   11  O   LIG     1      18.960  32.406  11.430  1.00  0.00    -0.775 OA
HETATM   12  H   LIG     1      18.539  31.485  11.440  1.00  0.00     0.167 HD
ENDBRANCH   9  11
ENDBRANCH   8   9
BRANCH   8  13
HETATM   13  N   LIG     1      16.720  34.460  12.348  1.00  0.00     0.093 N 
HETATM   14  H1  LIG     1      15.908  33.990  11.883  1.00  0.00     0.314 HD
HETATM   15  H2  LIG     1      16.335  35.187  12.992  1.00  0.00     0.314 HD
ENDBRANCH   8  13
ENDBRANCH   7   8
ENDBRANCH   1   7
BRANCH   5  16
HETATM   16  O   LIG     1      13.032  30.114  15.861  1.00  0.00    -0.358 OA
HETATM   17  H   LIG     1      12.232  30.141  15.240  1.00  0.00     0.217 HD
ENDBRANCH   5  16
BRANCH   4  18
HETATM   18  O   LIG     1      13.544  31.834  17.988  1.00  0.00    -0.358 OA
HETATM   19  H   LIG     1      12.821  31.132  18.094  1.00  0.00     0.217 HD
ENDBRANCH   4  18
TORSDOF 7
ENDMDL
