MODEL 1
REMARK VINA RESULT:      -3.2      0.000      0.000
REMARK  0 active torsions:
REMARK  status: ('A' for Active; 'I' for Inactive)
ROOT
HETATM    1 BR   LIG     1      17.881  35.025  26.047  1.00  0.00    -0.063 Br
HETATM    2  C   LIG     1      17.974  36.930  26.245  1.00  0.00     0.063 C 
HETATM    3  C   LIG     1      17.590  37.778  25.286  1.00  0.00     0.063 C 
HETATM    4 BR   LIG     1      16.900  37.193  23.596  1.00  0.00    -0.063 Br
ENDROOT
TORSDOF 0
ENDMDL
MODEL 2
REMARK VINA RESULT:      -3.1      0.106      2.595
REMARK  0 active torsions:
REMARK  status: ('A' for Active; 'I' for Inactive)
ROOT
HETATM    1 BR   LIG     1      16.921  37.133  23.510  1.00  0.00    -0.063 Br
HETATM    2  C   LIG     1      17.661  37.746  25.170  1.00  0.00     0.063 C 
HETATM    3  C   LIG     1      18.007  36.918  26.160  1.00  0.00     0.063 C 
HETATM    4 BR   LIG     1      17.805  35.015  26.041  1.00  0.00    -0.063 Br
ENDROOT
TORSDOF 0
ENDMDL
MODEL 3
REMARK VINA RESULT:      -2.9      4.537      5.373
REMARK  0 active torsions:
REMARK  status: ('A' for Active; 'I' for Inactive)
ROOT
HETATM    1 BR   LIG     1      19.040  37.161  19.484  1.00  0.00    -0.063 Br
HETATM    2  C   LIG     1      19.375  38.911  20.191  1.00  0.00     0.063 C 
HETATM    3  C   LIG     1      18.720  39.404  21.247  1.00  0.00     0.063 C 
HETATM    4 BR   LIG     1      17.366  38.421  22.183  1.00  0.00    -0.063 Br
ENDROOT
TORSDOF 0
ENDMDL
MODEL 4
REMARK VINA RESULT:      -2.8      4.178      4.864
REMARK  0 active torsions:
REMARK  status: ('A' for Active; 'I' for Inactive)
ROOT
HETATM    1 BR   LIG     1      17.832  38.877  22.154  1.00  0.00    -0.063 Br
HETATM    2  C   LIG     1      17.184  37.119  21.746  1.00  0.00     0.063 C 
HETATM    3  C   LIG     1      17.646  36.396  20.721  1.00  0.00     0.063 C 
HETATM    4 BR   LIG     1      19.012  37.028  19.535  1.00  0.00    -0.063 Br
ENDROOT
TORSDOF 0
ENDMDL
MODEL 5
REMARK VINA RESULT:      -2.8      4.184      4.942
REMARK  0 active torsions:
REMARK  status: ('A' for Active; 'I' for Inactive)
ROOT
HETATM    1 BR   LIG     1      18.966  37.037  19.519  1.00  0.00    -0.063 Br
HETATM    2  C   LIG     1      17.638  36.349  20.720  1.00  0.00     0.063 C 
HETATM    3  C   LIG     1      17.142  37.059  21.737  1.00  0.00     0.063 C 
HETATM    4 BR   LIG     1      17.697  38.854  22.119  1.00  0.00    -0.063 Br
ENDROOT
TORSDOF 0
ENDMDL
MODEL 6
REMARK VINA RESULT:      -2.8      2.562      3.804
REMARK  0 active torsions:
REMARK  status: ('A' for Active; 'I' for Inactive)
ROOT
HETATM    1 BR   LIG     1      18.189  39.050  21.908  1.00  0.00    -0.063 Br
HETATM    2  C   LIG     1      17.148  37.473  22.233  1.00  0.00     0.063 C 
HETATM    3  C   LIG     1      16.841  37.046  23.462  1.00  0.00     0.063 C 
HETATM    4 BR   LIG     1      17.404  37.961  25.050  1.00  0.00    -0.063 Br
ENDROOT
TORSDOF 0
ENDMDL
MODEL 7
REMARK VINA RESULT:      -2.8      2.568      3.026
REMARK  0 active torsions:
REMARK  status: ('A' for Active; 'I' for Inactive)
ROOT
HETATM    1 BR   LIG     1      17.404  37.963  25.041  1.00  0.00    -0.063 Br
HETATM    2  C   LIG     1      16.830  37.051  23.455  1.00  0.00     0.063 C 
HETATM    3  C   LIG     1      17.160  37.457  22.225  1.00  0.00     0.063 C 
HETATM    4 BR   LIG     1      18.248  39.001  21.897  1.00  0.00    -0.063 Br
ENDROOT
TORSDOF 0
ENDMDL
MODEL 8
REMARK VINA RESULT:      -2.7      4.181      4.710
REMARK  0 active torsions:
REMARK  status: ('A' for Active; 'I' for Inactive)
ROOT
HETATM    1 BR   LIG     1      17.499  36.324  20.878  1.00  0.00    -0.063 Br
HETATM    2  C   LIG     1      17.521  37.991  21.826  1.00  0.00     0.063 C 
HETATM    3  C   LIG     1      18.317  39.009  21.485  1.00  0.00     0.063 C 
HETATM    4 BR   LIG     1      19.534  38.927  20.006  1.00  0.00    -0.063 Br
ENDROOT
TORSDOF 0
ENDMDL
MODEL 9
REMARK VINA RESULT:      -2.6      2.980      3.136
REMARK  0 active torsions:
REMARK  status: ('A' for Active; 'I' for Inactive)
ROOT
HETATM    1 BR   LIG     1      16.812  35.867  21.988  1.00  0.00    -0.063 Br
HETATM    2  C   LIG     1      16.858  37.083  23.470  1.00  0.00     0.063 C 
HETATM    3  C   LIG     1      17.414  38.296  23.395  1.00  0.00     0.063 C 
HETATM    4 BR   LIG     1      18.234  38.968  21.798  1.00  0.00    -0.063 Br
ENDROOT
TORSDOF 0
ENDMDL
MODEL 10
REMARK VINA RESULT:      -2.6      9.165      9.659
REMARK  0 active torsions:
REMARK  status: ('A' for Active; 'I' for Inactive)
ROOT
HETATM    1 BR   LIG     1      13.511  31.029  16.591  1.00  0.00    -0.063 Br
HETATM    2  C   LIG     1      14.590  32.571  16.962  1.00  0.00     0.063 C 
HETATM    3  C   LIG     1      15.132  32.804  18.161  1.00  0.00     0.063 C 
HETATM    4 BR   LIG     1      14.899  31.627  19.655  1.00  0.00    -0.063 Br
ENDROOT
TORSDOF 0
ENDMDL
MODEL 11
REMARK VINA RESULT:      -2.6      9.046      9.293
REMARK  0 active torsions:
REMARK  status: ('A' for Active; 'I' for Inactive)
ROOT
HETATM    1 BR   LIG     1      14.891  31.533  19.797  1.00  0.00    -0.063 Br
HETATM    2  C   LIG     1      15.163  32.778  18.365  1.00  0.00     0.063 C 
HETATM    3  C   LIG     1      14.651  32.601  17.143  1.00  0.00     0.063 C 
HETATM    4 BR   LIG     1      13.581  31.081  16.674  1.00  0.00    -0.063 Br
ENDROOT
TORSDOF 0
ENDMDL
MODEL 12
REMARK VINA RESULT:      -2.5     12.520     12.648
REMARK  0 active torsions:
REMARK  status: ('A' for Active; 'I' for Inactive)
ROOT
HETATM    1 BR   LIG     1      16.062  32.060  14.777  1.00  0.00    -0.063 Br
HETATM    2  C   LIG     1      15.258  30.484  14.038  1.00  0.00     0.063 C 
HETATM    3  C   LIG     1      14.129  29.953  14.518  1.00  0.00     0.063 C 
HETATM    4 BR   LIG     1      13.175  30.703  16.002  1.00  0.00    -0.063 Br
ENDROOT
TORSDOF 0
ENDMDL
MODEL 13
REMARK VINA RESULT:      -2.5     11.789     12.237
REMARK  0 active torsions:
REMARK  status: ('A' for Active; 'I' for Inactive)
ROOT
HETATM    1 BR   LIG     1      15.180  30.373  14.239  1.00  0.00    -0.063 Br
HETATM    2  C   LIG     1      13.418  30.092  14.941  1.00  0.00     0.063 C 
HETATM    3  C   LIG     1      12.979  30.682  16.057  1.00  0.00     0.063 C 
HETATM    4 BR   LIG     1      14.058  31.882  17.092  1.00  0.00    -0.063 Br
ENDROOT
TORSDOF 0
ENDMDL
MODEL 14
REMARK VINA RESULT:      -2.5     10.445     10.718
REMARK  0 active torsions:
REMARK  status: ('A' for Active; 'I' for Inactive)
ROOT
HETATM    1 BR   LIG     1      13.153  30.726  16.053  1.00  0.00    -0.063 Br
HETATM    2  C   LIG     1      13.860  32.142  17.135  1.00  0.00     0.063 C 
HETATM    3  C   LIG     1      14.996  32.782  16.839  1.00  0.00     0.063 C 
HETATM    4 BR   LIG     1      16.056  32.361  15.299  1.00  0.00    -0.063 Br
ENDROOT
TORSDOF 0
ENDMDL
MODEL 15
REMARK VINA RESULT:      -2.5     10.399     10.761
REMARK  0 active torsions:
REMARK  status: ('A' for Active; 'I' for Inactive)
ROOT
HETATM    1 BR   LIG     1      16.039  32.422  15.340  1.00  0.00    -0.063 Br
HETATM    2  C   LIG     1      14.962  32.802  16.880  1.00  0.00     0.063 C 
HETATM    3  C   LIG     1      13.838  32.135  17.161  1.00  0.00     0.063 C 
HETATM    4 BR   LIG     1      13.166  30.719  16.059  1.00  0.00    -0.063 Br
ENDROOT
TORSDOF 0
ENDMDL
MODEL 16
REMARK VINA RESULT:      -2.5     11.129     11.557
REMARK  0 active torsions:
REMARK  status: ('A' for Active; 'I' for Inactive)
ROOT
HETATM    1 BR   LIG     1      13.700  31.621  16.861  1.00  0.00    -0.063 Br
HETATM    2  C   LIG     1      15.269  32.346  16.029  1.00  0.00     0.063 C 
HETATM    3  C   LIG     1      15.816  31.819  14.929  1.00  0.00     0.063 C 
HETATM    4 BR   LIG     1      15.098  30.275  14.049  1.00  0.00    -0.063 Br
ENDROOT
TORSDOF 0
ENDMDL
MODEL 17
REMARK VINA RESULT:      -2.5     11.170     11.659
REMARK  0 active torsions:
REMARK  status: ('A' for Active; 'I' for Inactive)
ROOT
HETATM    1 BR   LIG     1      15.003  30.177  14.082  1.00  0.00    -0.063 Br
HETATM    2  C   LIG     1      15.758  31.770  14.836  1.00  0.00     0.063 C 
HETATM    3  C   LIG     1      15.283  32.342  15.947  1.00  0.00     0.063 C 
HETATM    4 BR   LIG     1      13.790  31.639  16.922  1.00  0.00    -0.063 Br
ENDROOT
TORSDOF 0
ENDMDL
MODEL 18
REMARK VINA RESULT:      -2.5      3.805      4.314
REMARK  0 active torsions:
REMARK  status: ('A' for Active; 'I' for Inactive)
ROOT
HETATM    1 BR   LIG     1      15.998  35.001  20.934  1.00  0.00    -0.063 Br
HETATM    2  C   LIG     1      17.407  36.299  20.866  1.00  0.00     0.063 C 
HETATM    3  C   LIG     1      17.423  37.393  21.633  1.00  0.00     0.063 C 
HETATM    4 BR   LIG     1      16.039  37.798  22.896  1.00  0.00    -0.063 Br
ENDROOT
TORSDOF 0
ENDMDL
MODEL 19
REMARK VINA RESULT:      -2.3     14.291     14.858
REMARK  0 active torsions:
REMARK  status: ('A' for Active; 'I' for Inactive)
ROOT
HETATM    1 BR   LIG     1      20.754  31.764  10.364  1.00  0.00    -0.063 Br
HETATM    2  C   LIG     1      19.568  33.252  10.605  1.00  0.00     0.063 C 
HETATM    3  C   LIG     1      19.806  34.236  11.477  1.00  0.00     0.063 C 
HETATM    4 BR   LIG     1      21.364  34.281  12.593  1.00  0.00    -0.063 Br
ENDROOT
TORSDOF 0
ENDMDL
MODEL 20
REMARK VINA RESULT:      -2.2     13.528     13.819
REMARK  0 active torsions:
REMARK  status: ('A' for Active; 'I' for Inactive)
ROOT
HETATM    1 BR   LIG     1      18.282  33.773  13.083  1.00  0.00    -0.063 Br
HETATM    2  C   LIG     1      19.082  34.166  11.385  1.00  0.00     0.063 C 
HETATM    3  C   LIG     1      20.384  34.429  11.241  1.00  0.00     0.063 C 
HETATM    4 BR   LIG     1      21.611  34.445  12.714  1.00  0.00    -0.063 Br
ENDROOT
TORSDOF 0
ENDMDL
