MODEL 1
REMARK VINA RESULT:      -4.9      0.000      0.000
REMARK  3 active torsions:
REMARK  status: ('A' for Active; 'I' for Inactive)
REMARK    1  A    between atoms: C_2  and  C_5 
REMARK    2  A    between atoms: C_2  and  O_4 
REMARK    3  A    between atoms: C_5  and  C_6 
ROOT
HETATM    1  C   LIG     1      17.143  38.934  22.737  1.00  0.00     0.045 C 
HETATM    2  C   LIG     1      16.501  37.768  23.509  1.00  0.00     0.051 C 
HETATM    3  C   LIG     1      16.732  36.453  22.735  1.00  0.00     0.045 C 
ENDROOT
BRANCH   2   4
HETATM    4  C   LIG     1      17.059  37.683  24.961  1.00  0.00     0.036 C 
BRANCH   4   5
HETATM    5  C   LIG     1      17.561  36.291  25.388  1.00  0.00    -0.002 C 
HETATM    6  C   LIG     1      18.323  36.368  26.709  1.00  0.00     0.005 C 
ENDBRANCH   4   5
ENDBRANCH   2   4
BRANCH   2   7
HETATM    7  O   LIG     1      15.117  38.024  23.574  1.00  0.00    -0.391 OA
HETATM    8  H   LIG     1      14.853  38.502  22.745  1.00  0.00     0.210 HD
ENDBRANCH   2   7
TORSDOF 3
ENDMDL
MODEL 2
REMARK VINA RESULT:      -4.8      1.223      3.527
REMARK  3 active torsions:
REMARK  status: ('A' for Active; 'I' for Inactive)
REMARK    1  A    between atoms: C_2  and  C_5 
REMARK    2  A    between atoms: C_2  and  O_4 
REMARK    3  A    between atoms: C_5  and  C_6 
ROOT
HETATM    1  C   LIG     1      16.830  36.432  22.996  1.00  0.00     0.045 C 
HETATM    2  C   LIG     1      16.625  37.856  23.543  1.00  0.00     0.051 C 
HETATM    3  C   LIG     1      17.234  37.954  24.958  1.00  0.00     0.045 C 
ENDROOT
BRANCH   2   4
HETATM    4  C   LIG     1      17.234  38.919  22.582  1.00  0.00     0.036 C 
BRANCH   4   5
HETATM    5  C   LIG     1      18.006  38.346  21.379  1.00  0.00    -0.002 C 
HETATM    6  C   LIG     1      18.867  39.421  20.720  1.00  0.00     0.005 C 
ENDBRANCH   4   5
ENDBRANCH   2   4
BRANCH   2   7
HETATM    7  O   LIG     1      15.235  38.072  23.629  1.00  0.00    -0.391 OA
HETATM    8  H   LIG     1      14.846  37.356  24.196  1.00  0.00     0.210 HD
ENDBRANCH   2   7
TORSDOF 3
ENDMDL
MODEL 3
REMARK VINA RESULT:      -4.6      1.201      3.285
REMARK  3 active torsions:
REMARK  status: ('A' for Active; 'I' for Inactive)
REMARK    1  A    between atoms: C_2  and  C_5 
REMARK    2  A    between atoms: C_2  and  O_4 
REMARK    3  A    between atoms: C_5  and  C_6 
ROOT
HETATM    1  C   LIG     1      17.198  37.938  24.944  1.00  0.00     0.045 C 
HETATM    2  C   LIG     1      16.610  37.824  23.527  1.00  0.00     0.051 C 
HETATM    3  C   LIG     1      17.250  38.896  22.619  1.00  0.00     0.045 C 
ENDROOT
BRANCH   2   4
HETATM    4  C   LIG     1      16.811  36.392  22.950  1.00  0.00     0.036 C 
BRANCH   4   5
HETATM    5  C   LIG     1      16.574  36.258  21.435  1.00  0.00    -0.002 C 
HETATM    6  C   LIG     1      15.252  35.550  21.149  1.00  0.00     0.005 C 
ENDBRANCH   4   5
ENDBRANCH   2   4
BRANCH   2   7
HETATM    7  O   LIG     1      15.228  38.078  23.629  1.00  0.00    -0.391 OA
HETATM    8  H   LIG     1      14.788  37.257  23.972  1.00  0.00     0.210 HD
ENDBRANCH   2   7
TORSDOF 3
ENDMDL
MODEL 4
REMARK VINA RESULT:      -4.3      3.826      4.803
REMARK  3 active torsions:
REMARK  status: ('A' for Active; 'I' for Inactive)
REMARK    1  A    between atoms: C_2  and  C_5 
REMARK    2  A    between atoms: C_2  and  O_4 
REMARK    3  A    between atoms: C_5  and  C_6 
ROOT
HETATM    1  C   LIG     1      20.754  38.711  19.399  1.00  0.00     0.045 C 
HETATM    2  C   LIG     1      19.227  38.692  19.586  1.00  0.00     0.051 C 
HETATM    3  C   LIG     1      18.706  37.252  19.392  1.00  0.00     0.045 C 
ENDROOT
BRANCH   2   4
HETATM    4  C   LIG     1      18.825  39.263  20.978  1.00  0.00     0.036 C 
BRANCH   4   5
HETATM    5  C   LIG     1      17.617  38.576  21.642  1.00  0.00    -0.002 C 
HETATM    6  C   LIG     1      17.805  38.485  23.155  1.00  0.00     0.005 C 
ENDBRANCH   4   5
ENDBRANCH   2   4
BRANCH   2   7
HETATM    7  O   LIG     1      18.675  39.516  18.586  1.00  0.00    -0.391 OA
HETATM    8  H   LIG     1      17.718  39.273  18.478  1.00  0.00     0.210 HD
ENDBRANCH   2   7
TORSDOF 3
ENDMDL
MODEL 5
REMARK VINA RESULT:      -4.2      1.452      1.875
REMARK  3 active torsions:
REMARK  status: ('A' for Active; 'I' for Inactive)
REMARK    1  A    between atoms: C_2  and  C_5 
REMARK    2  A    between atoms: C_2  and  O_4 
REMARK    3  A    between atoms: C_5  and  C_6 
ROOT
HETATM    1  C   LIG     1      16.884  35.618  22.608  1.00  0.00     0.045 C 
HETATM    2  C   LIG     1      16.843  37.054  23.158  1.00  0.00     0.051 C 
HETATM    3  C   LIG     1      15.463  37.678  22.857  1.00  0.00     0.045 C 
ENDROOT
BRANCH   2   4
HETATM    4  C   LIG     1      17.163  37.081  24.681  1.00  0.00     0.036 C 
BRANCH   4   5
HETATM    5  C   LIG     1      17.540  35.719  25.294  1.00  0.00    -0.002 C 
HETATM    6  C   LIG     1      18.286  35.901  26.614  1.00  0.00     0.005 C 
ENDBRANCH   4   5
ENDBRANCH   2   4
BRANCH   2   7
HETATM    7  O   LIG     1      17.834  37.789  22.477  1.00  0.00    -0.391 OA
HETATM    8  H   LIG     1      17.857  38.704  22.860  1.00  0.00     0.210 HD
ENDBRANCH   2   7
TORSDOF 3
ENDMDL
MODEL 6
REMARK VINA RESULT:      -4.1      2.766      4.114
REMARK  3 active torsions:
REMARK  status: ('A' for Active; 'I' for Inactive)
REMARK    1  A    between atoms: C_2  and  C_5 
REMARK    2  A    between atoms: C_2  and  O_4 
REMARK    3  A    between atoms: C_5  and  C_6 
ROOT
HETATM    1  C   LIG     1      16.194  38.954  22.511  1.00  0.00     0.045 C 
HETATM    2  C   LIG     1      17.522  38.178  22.449  1.00  0.00     0.051 C 
HETATM    3  C   LIG     1      17.340  36.921  21.572  1.00  0.00     0.045 C 
ENDROOT
BRANCH   2   4
HETATM    4  C   LIG     1      18.675  39.082  21.922  1.00  0.00     0.036 C 
BRANCH   4   5
HETATM    5  C   LIG     1      18.703  39.282  20.396  1.00  0.00    -0.002 C 
HETATM    6  C   LIG     1      20.059  38.885  19.818  1.00  0.00     0.005 C 
ENDBRANCH   4   5
ENDBRANCH   2   4
BRANCH   2   7
HETATM    7  O   LIG     1      17.830  37.777  23.764  1.00  0.00    -0.391 OA
HETATM    8  H   LIG     1      17.951  36.791  23.766  1.00  0.00     0.210 HD
ENDBRANCH   2   7
TORSDOF 3
ENDMDL
MODEL 7
REMARK VINA RESULT:      -4.1      3.115      4.086
REMARK  3 active torsions:
REMARK  status: ('A' for Active; 'I' for Inactive)
REMARK    1  A    between atoms: C_2  and  C_5 
REMARK    2  A    between atoms: C_2  and  O_4 
REMARK    3  A    between atoms: C_5  and  C_6 
ROOT
HETATM    1  C   LIG     1      17.025  35.048  22.578  1.00  0.00     0.045 C 
HETATM    2  C   LIG     1      16.543  36.052  21.517  1.00  0.00     0.051 C 
HETATM    3  C   LIG     1      15.005  35.977  21.403  1.00  0.00     0.045 C 
ENDROOT
BRANCH   2   4
HETATM    4  C   LIG     1      17.023  37.495  21.850  1.00  0.00     0.036 C 
BRANCH   4   5
HETATM    5  C   LIG     1      18.203  38.004  21.003  1.00  0.00    -0.002 C 
HETATM    6  C   LIG     1      18.617  39.410  21.431  1.00  0.00     0.005 C 
ENDBRANCH   4   5
ENDBRANCH   2   4
BRANCH   2   7
HETATM    7  O   LIG     1      17.111  35.662  20.287  1.00  0.00    -0.391 OA
HETATM    8  H   LIG     1      16.465  35.068  19.824  1.00  0.00     0.210 HD
ENDBRANCH   2   7
TORSDOF 3
ENDMDL
MODEL 8
REMARK VINA RESULT:      -4.1      2.771      4.345
REMARK  3 active torsions:
REMARK  status: ('A' for Active; 'I' for Inactive)
REMARK    1  A    between atoms: C_2  and  C_5 
REMARK    2  A    between atoms: C_2  and  O_4 
REMARK    3  A    between atoms: C_5  and  C_6 
ROOT
HETATM    1  C   LIG     1      16.133  35.207  20.487  1.00  0.00     0.045 C 
HETATM    2  C   LIG     1      16.565  36.104  21.660  1.00  0.00     0.051 C 
HETATM    3  C   LIG     1      17.043  35.220  22.831  1.00  0.00     0.045 C 
ENDROOT
BRANCH   2   4
HETATM    4  C   LIG     1      17.665  37.113  21.217  1.00  0.00     0.036 C 
BRANCH   4   5
HETATM    5  C   LIG     1      18.482  36.691  19.982  1.00  0.00    -0.002 C 
HETATM    6  C   LIG     1      19.338  37.848  19.471  1.00  0.00     0.005 C 
ENDBRANCH   4   5
ENDBRANCH   2   4
BRANCH   2   7
HETATM    7  O   LIG     1      15.428  36.829  22.068  1.00  0.00    -0.391 OA
HETATM    8  H   LIG     1      15.737  37.655  22.524  1.00  0.00     0.210 HD
ENDBRANCH   2   7
TORSDOF 3
ENDMDL
MODEL 9
REMARK VINA RESULT:      -4.0      4.068      5.688
REMARK  3 active torsions:
REMARK  status: ('A' for Active; 'I' for Inactive)
REMARK    1  A    between atoms: C_2  and  C_5 
REMARK    2  A    between atoms: C_2  and  O_4 
REMARK    3  A    between atoms: C_5  and  C_6 
ROOT
HETATM    1  C   LIG     1      14.808  36.108  21.385  1.00  0.00     0.045 C 
HETATM    2  C   LIG     1      15.768  34.989  20.945  1.00  0.00     0.051 C 
HETATM    3  C   LIG     1      17.003  34.981  21.871  1.00  0.00     0.045 C 
ENDROOT
BRANCH   2   4
HETATM    4  C   LIG     1      15.051  33.607  20.935  1.00  0.00     0.036 C 
BRANCH   4   5
HETATM    5  C   LIG     1      15.491  32.651  19.810  1.00  0.00    -0.002 C 
HETATM    6  C   LIG     1      14.815  31.290  19.956  1.00  0.00     0.005 C 
ENDBRANCH   4   5
ENDBRANCH   2   4
BRANCH   2   7
HETATM    7  O   LIG     1      16.183  35.290  19.632  1.00  0.00    -0.391 OA
HETATM    8  H   LIG     1      16.295  36.274  19.562  1.00  0.00     0.210 HD
ENDBRANCH   2   7
TORSDOF 3
ENDMDL
MODEL 10
REMARK VINA RESULT:      -4.0      1.914      2.693
REMARK  3 active torsions:
REMARK  status: ('A' for Active; 'I' for Inactive)
REMARK    1  A    between atoms: C_2  and  C_5 
REMARK    2  A    between atoms: C_2  and  O_4 
REMARK    3  A    between atoms: C_5  and  C_6 
ROOT
HETATM    1  C   LIG     1      15.201  35.909  21.493  1.00  0.00     0.045 C 
HETATM    2  C   LIG     1      16.625  36.241  21.973  1.00  0.00     0.051 C 
HETATM    3  C   LIG     1      17.587  36.229  20.766  1.00  0.00     0.045 C 
ENDROOT
BRANCH   2   4
HETATM    4  C   LIG     1      16.660  37.607  22.719  1.00  0.00     0.036 C 
BRANCH   4   5
HETATM    5  C   LIG     1      16.704  37.511  24.256  1.00  0.00    -0.002 C 
HETATM    6  C   LIG     1      18.052  37.985  24.794  1.00  0.00     0.005 C 
ENDBRANCH   4   5
ENDBRANCH   2   4
BRANCH   2   7
HETATM    7  O   LIG     1      17.008  35.227  22.873  1.00  0.00    -0.391 OA
HETATM    8  H   LIG     1      17.897  35.464  23.245  1.00  0.00     0.210 HD
ENDBRANCH   2   7
TORSDOF 3
ENDMDL
MODEL 11
REMARK VINA RESULT:      -4.0      8.621     10.451
REMARK  3 active torsions:
REMARK  status: ('A' for Active; 'I' for Inactive)
REMARK    1  A    between atoms: C_2  and  C_5 
REMARK    2  A    between atoms: C_2  and  O_4 
REMARK    3  A    between atoms: C_5  and  C_6 
ROOT
HETATM    1  C   LIG     1      14.565  31.874  18.491  1.00  0.00     0.045 C 
HETATM    2  C   LIG     1      14.185  32.409  17.100  1.00  0.00     0.051 C 
HETATM    3  C   LIG     1      14.813  33.804  16.899  1.00  0.00     0.045 C 
ENDROOT
BRANCH   2   4
HETATM    4  C   LIG     1      14.621  31.418  15.980  1.00  0.00     0.036 C 
BRANCH   4   5
HETATM    5  C   LIG     1      13.507  30.495  15.455  1.00  0.00    -0.002 C 
HETATM    6  C   LIG     1      14.020  29.611  14.319  1.00  0.00     0.005 C 
ENDBRANCH   4   5
ENDBRANCH   2   4
BRANCH   2   7
HETATM    7  O   LIG     1      12.782  32.531  17.070  1.00  0.00    -0.391 OA
HETATM    8  H   LIG     1      12.401  31.651  16.814  1.00  0.00     0.210 HD
ENDBRANCH   2   7
TORSDOF 3
ENDMDL
MODEL 12
REMARK VINA RESULT:      -4.0      2.971      4.141
REMARK  3 active torsions:
REMARK  status: ('A' for Active; 'I' for Inactive)
REMARK    1  A    between atoms: C_2  and  C_5 
REMARK    2  A    between atoms: C_2  and  O_4 
REMARK    3  A    between atoms: C_5  and  C_6 
ROOT
HETATM    1  C   LIG     1      15.518  33.434  20.525  1.00  0.00     0.045 C 
HETATM    2  C   LIG     1      15.953  34.898  20.716  1.00  0.00     0.051 C 
HETATM    3  C   LIG     1      14.747  35.731  21.198  1.00  0.00     0.045 C 
ENDROOT
BRANCH   2   4
HETATM    4  C   LIG     1      17.153  35.002  21.704  1.00  0.00     0.036 C 
BRANCH   4   5
HETATM    5  C   LIG     1      16.886  35.837  22.970  1.00  0.00    -0.002 C 
HETATM    6  C   LIG     1      17.192  35.030  24.230  1.00  0.00     0.005 C 
ENDBRANCH   4   5
ENDBRANCH   2   4
BRANCH   2   7
HETATM    7  O   LIG     1      16.366  35.376  19.456  1.00  0.00    -0.391 OA
HETATM    8  H   LIG     1      15.767  34.986  18.767  1.00  0.00     0.210 HD
ENDBRANCH   2   7
TORSDOF 3
ENDMDL
MODEL 13
REMARK VINA RESULT:      -3.9      1.384      3.525
REMARK  3 active torsions:
REMARK  status: ('A' for Active; 'I' for Inactive)
REMARK    1  A    between atoms: C_2  and  C_5 
REMARK    2  A    between atoms: C_2  and  O_4 
REMARK    3  A    between atoms: C_5  and  C_6 
ROOT
HETATM    1  C   LIG     1      17.386  35.638  24.587  1.00  0.00     0.045 C 
HETATM    2  C   LIG     1      17.645  37.100  24.993  1.00  0.00     0.051 C 
HETATM    3  C   LIG     1      18.513  37.130  26.269  1.00  0.00     0.045 C 
ENDROOT
BRANCH   2   4
HETATM    4  C   LIG     1      18.309  37.895  23.830  1.00  0.00     0.036 C 
BRANCH   4   5
HETATM    5  C   LIG     1      17.326  38.588  22.868  1.00  0.00    -0.002 C 
HETATM    6  C   LIG     1      18.032  39.019  21.584  1.00  0.00     0.005 C 
ENDBRANCH   4   5
ENDBRANCH   2   4
BRANCH   2   7
HETATM    7  O   LIG     1      16.393  37.680  25.277  1.00  0.00    -0.391 OA
HETATM    8  H   LIG     1      15.857  37.681  24.442  1.00  0.00     0.210 HD
ENDBRANCH   2   7
TORSDOF 3
ENDMDL
MODEL 14
REMARK VINA RESULT:      -3.8      8.144     10.033
REMARK  3 active torsions:
REMARK  status: ('A' for Active; 'I' for Inactive)
REMARK    1  A    between atoms: C_2  and  C_5 
REMARK    2  A    between atoms: C_2  and  O_4 
REMARK    3  A    between atoms: C_5  and  C_6 
ROOT
HETATM    1  C   LIG     1      13.382  31.886  16.865  1.00  0.00     0.045 C 
HETATM    2  C   LIG     1      14.625  32.754  17.126  1.00  0.00     0.051 C 
HETATM    3  C   LIG     1      15.163  32.464  18.543  1.00  0.00     0.045 C 
ENDROOT
BRANCH   2   4
HETATM    4  C   LIG     1      15.714  32.515  16.039  1.00  0.00     0.036 C 
BRANCH   4   5
HETATM    5  C   LIG     1      15.360  31.454  14.981  1.00  0.00    -0.002 C 
HETATM    6  C   LIG     1      15.940  31.826  13.619  1.00  0.00     0.005 C 
ENDBRANCH   4   5
ENDBRANCH   2   4
BRANCH   2   7
HETATM    7  O   LIG     1      14.212  34.100  17.061  1.00  0.00    -0.391 OA
HETATM    8  H   LIG     1      14.894  34.607  16.547  1.00  0.00     0.210 HD
ENDBRANCH   2   7
TORSDOF 3
ENDMDL
MODEL 15
REMARK VINA RESULT:      -3.7      7.190      8.590
REMARK  3 active torsions:
REMARK  status: ('A' for Active; 'I' for Inactive)
REMARK    1  A    between atoms: C_2  and  C_5 
REMARK    2  A    between atoms: C_2  and  O_4 
REMARK    3  A    between atoms: C_5  and  C_6 
ROOT
HETATM    1  C   LIG     1      15.429  32.582  16.553  1.00  0.00     0.045 C 
HETATM    2  C   LIG     1      14.141  31.998  17.160  1.00  0.00     0.051 C 
HETATM    3  C   LIG     1      13.668  30.805  16.304  1.00  0.00     0.045 C 
ENDROOT
BRANCH   2   4
HETATM    4  C   LIG     1      14.359  31.586  18.646  1.00  0.00     0.036 C 
BRANCH   4   5
HETATM    5  C   LIG     1      15.643  32.135  19.295  1.00  0.00    -0.002 C 
HETATM    6  C   LIG     1      15.320  33.261  20.275  1.00  0.00     0.005 C 
ENDBRANCH   4   5
ENDBRANCH   2   4
BRANCH   2   7
HETATM    7  O   LIG     1      13.163  33.011  17.113  1.00  0.00    -0.391 OA
HETATM    8  H   LIG     1      12.305  32.626  17.433  1.00  0.00     0.210 HD
ENDBRANCH   2   7
TORSDOF 3
ENDMDL
MODEL 16
REMARK VINA RESULT:      -3.7      8.172      9.932
REMARK  3 active torsions:
REMARK  status: ('A' for Active; 'I' for Inactive)
REMARK    1  A    between atoms: C_2  and  C_5 
REMARK    2  A    between atoms: C_2  and  O_4 
REMARK    3  A    between atoms: C_5  and  C_6 
ROOT
HETATM    1  C   LIG     1      14.794  34.235  17.045  1.00  0.00     0.045 C 
HETATM    2  C   LIG     1      15.075  32.741  17.281  1.00  0.00     0.051 C 
HETATM    3  C   LIG     1      15.257  32.486  18.792  1.00  0.00     0.045 C 
ENDROOT
BRANCH   2   4
HETATM    4  C   LIG     1      13.940  31.856  16.684  1.00  0.00     0.036 C 
BRANCH   4   5
HETATM    5  C   LIG     1      14.370  30.933  15.529  1.00  0.00    -0.002 C 
HETATM    6  C   LIG     1      13.205  30.065  15.061  1.00  0.00     0.005 C 
ENDBRANCH   4   5
ENDBRANCH   2   4
BRANCH   2   7
HETATM    7  O   LIG     1      16.279  32.434  16.617  1.00  0.00    -0.391 OA
HETATM    8  H   LIG     1      16.838  33.255  16.597  1.00  0.00     0.210 HD
ENDBRANCH   2   7
TORSDOF 3
ENDMDL
MODEL 17
REMARK VINA RESULT:      -3.7      9.700     11.255
REMARK  3 active torsions:
REMARK  status: ('A' for Active; 'I' for Inactive)
REMARK    1  A    between atoms: C_2  and  C_5 
REMARK    2  A    between atoms: C_2  and  O_4 
REMARK    3  A    between atoms: C_5  and  C_6 
ROOT
HETATM    1  C   LIG     1      14.951  32.308  16.467  1.00  0.00     0.045 C 
HETATM    2  C   LIG     1      13.687  31.438  16.582  1.00  0.00     0.051 C 
HETATM    3  C   LIG     1      12.443  32.348  16.645  1.00  0.00     0.045 C 
ENDROOT
BRANCH   2   4
HETATM    4  C   LIG     1      13.596  30.423  15.405  1.00  0.00     0.036 C 
BRANCH   4   5
HETATM    5  C   LIG     1      14.748  30.499  14.386  1.00  0.00    -0.002 C 
HETATM    6  C   LIG     1      15.247  29.103  14.020  1.00  0.00     0.005 C 
ENDBRANCH   4   5
ENDBRANCH   2   4
BRANCH   2   7
HETATM    7  O   LIG     1      13.788  30.717  17.789  1.00  0.00    -0.391 OA
HETATM    8  H   LIG     1      13.806  29.749  17.570  1.00  0.00     0.210 HD
ENDBRANCH   2   7
TORSDOF 3
ENDMDL
MODEL 18
REMARK VINA RESULT:      -3.7      5.224      6.965
REMARK  3 active torsions:
REMARK  status: ('A' for Active; 'I' for Inactive)
REMARK    1  A    between atoms: C_2  and  C_5 
REMARK    2  A    between atoms: C_2  and  O_4 
REMARK    3  A    between atoms: C_5  and  C_6 
ROOT
HETATM    1  C   LIG     1      18.793  36.971  19.578  1.00  0.00     0.045 C 
HETATM    2  C   LIG     1      19.226  38.445  19.673  1.00  0.00     0.051 C 
HETATM    3  C   LIG     1      20.760  38.538  19.537  1.00  0.00     0.045 C 
ENDROOT
BRANCH   2   4
HETATM    4  C   LIG     1      18.502  39.312  18.601  1.00  0.00     0.036 C 
BRANCH   4   5
HETATM    5  C   LIG     1      19.195  39.365  17.227  1.00  0.00    -0.002 C 
HETATM    6  C   LIG     1      18.297  40.032  16.188  1.00  0.00     0.005 C 
ENDBRANCH   4   5
ENDBRANCH   2   4
BRANCH   2   7
HETATM    7  O   LIG     1      18.851  38.906  20.951  1.00  0.00    -0.391 OA
HETATM    8  H   LIG     1      19.641  38.836  21.548  1.00  0.00     0.210 HD
ENDBRANCH   2   7
TORSDOF 3
ENDMDL
MODEL 19
REMARK VINA RESULT:      -3.7      1.942      3.916
REMARK  3 active torsions:
REMARK  status: ('A' for Active; 'I' for Inactive)
REMARK    1  A    between atoms: C_2  and  C_5 
REMARK    2  A    between atoms: C_2  and  O_4 
REMARK    3  A    between atoms: C_5  and  C_6 
ROOT
HETATM    1  C   LIG     1      17.067  36.261  23.621  1.00  0.00     0.045 C 
HETATM    2  C   LIG     1      16.569  36.999  22.367  1.00  0.00     0.051 C 
HETATM    3  C   LIG     1      17.574  38.109  21.992  1.00  0.00     0.045 C 
ENDROOT
BRANCH   2   4
HETATM    4  C   LIG     1      16.342  36.009  21.186  1.00  0.00     0.036 C 
BRANCH   4   5
HETATM    5  C   LIG     1      15.649  34.687  21.566  1.00  0.00    -0.002 C 
HETATM    6  C   LIG     1      15.649  33.714  20.390  1.00  0.00     0.005 C 
ENDBRANCH   4   5
ENDBRANCH   2   4
BRANCH   2   7
HETATM    7  O   LIG     1      15.335  37.594  22.698  1.00  0.00    -0.391 OA
HETATM    8  H   LIG     1      15.412  37.978  23.610  1.00  0.00     0.210 HD
ENDBRANCH   2   7
TORSDOF 3
ENDMDL
MODEL 20
REMARK VINA RESULT:      -3.4     10.086     10.966
REMARK  3 active torsions:
REMARK  status: ('A' for Active; 'I' for Inactive)
REMARK    1  A    between atoms: C_2  and  C_5 
REMARK    2  A    between atoms: C_2  and  O_4 
REMARK    3  A    between atoms: C_5  and  C_6 
ROOT
HETATM    1  C   LIG     1      16.119  32.182  13.462  1.00  0.00     0.045 C 
HETATM    2  C   LIG     1      16.418  32.437  14.950  1.00  0.00     0.051 C 
HETATM    3  C   LIG     1      16.868  33.902  15.137  1.00  0.00     0.045 C 
ENDROOT
BRANCH   2   4
HETATM    4  C   LIG     1      15.183  32.100  15.836  1.00  0.00     0.036 C 
BRANCH   4   5
HETATM    5  C   LIG     1      14.394  30.848  15.409  1.00  0.00    -0.002 C 
HETATM    6  C   LIG     1      13.059  30.766  16.145  1.00  0.00     0.005 C 
ENDBRANCH   4   5
ENDBRANCH   2   4
BRANCH   2   7
HETATM    7  O   LIG     1      17.478  31.584  15.313  1.00  0.00    -0.391 OA
HETATM    8  H   LIG     1      17.090  30.726  15.627  1.00  0.00     0.210 HD
ENDBRANCH   2   7
TORSDOF 3
ENDMDL
