MODEL 1
REMARK VINA RESULT:      -3.2      0.000      0.000
REMARK  0 active torsions:
REMARK  status: ('A' for Active; 'I' for Inactive)
ROOT
HETATM    1  I   LIG     1      16.748  37.449  23.079  1.00  0.00    -0.057 I 
HETATM    2  C   LIG     1      17.382  38.134  24.981  1.00  0.00     0.057 C 
HETATM    3  C   LIG     1      17.740  37.325  25.984  1.00  0.00     0.057 C 
HETATM    4  I   LIG     1      17.737  35.210  25.859  1.00  0.00    -0.057 I 
ENDROOT
TORSDOF 0
ENDMDL
MODEL 2
REMARK VINA RESULT:      -3.2      0.040      2.785
REMARK  0 active torsions:
REMARK  status: ('A' for Active; 'I' for Inactive)
ROOT
HETATM    1  I   LIG     1      17.749  35.182  25.863  1.00  0.00    -0.057 I 
HETATM    2  C   LIG     1      17.761  37.296  26.011  1.00  0.00     0.057 C 
HETATM    3  C   LIG     1      17.404  38.115  25.017  1.00  0.00     0.057 C 
HETATM    4  I   LIG     1      16.761  37.454  23.109  1.00  0.00    -0.057 I 
ENDROOT
TORSDOF 0
ENDMDL
MODEL 3
REMARK VINA RESULT:      -2.9      2.563      3.814
REMARK  0 active torsions:
REMARK  status: ('A' for Active; 'I' for Inactive)
ROOT
HETATM    1  I   LIG     1      17.475  37.651  25.014  1.00  0.00    -0.057 I 
HETATM    2  C   LIG     1      16.841  36.760  23.199  1.00  0.00     0.057 C 
HETATM    3  C   LIG     1      17.143  37.240  21.987  1.00  0.00     0.057 C 
HETATM    4  I   LIG     1      18.308  38.978  21.658  1.00  0.00    -0.057 I 
ENDROOT
TORSDOF 0
ENDMDL
MODEL 4
REMARK VINA RESULT:      -2.9      2.536      2.849
REMARK  0 active torsions:
REMARK  status: ('A' for Active; 'I' for Inactive)
ROOT
HETATM    1  I   LIG     1      16.695  35.573  21.942  1.00  0.00    -0.057 I 
HETATM    2  C   LIG     1      17.268  37.611  21.845  1.00  0.00     0.057 C 
HETATM    3  C   LIG     1      17.529  38.365  22.919  1.00  0.00     0.057 C 
HETATM    4  I   LIG     1      17.417  37.662  24.915  1.00  0.00    -0.057 I 
ENDROOT
TORSDOF 0
ENDMDL
MODEL 5
REMARK VINA RESULT:      -2.9      2.468      3.200
REMARK  0 active torsions:
REMARK  status: ('A' for Active; 'I' for Inactive)
ROOT
HETATM    1  I   LIG     1      17.443  37.572  24.995  1.00  0.00    -0.057 I 
HETATM    2  C   LIG     1      17.509  38.323  23.014  1.00  0.00     0.057 C 
HETATM    3  C   LIG     1      17.256  37.586  21.928  1.00  0.00     0.057 C 
HETATM    4  I   LIG     1      16.743  35.530  21.984  1.00  0.00    -0.057 I 
ENDROOT
TORSDOF 0
ENDMDL
MODEL 6
REMARK VINA RESULT:      -2.8      3.957      5.087
REMARK  0 active torsions:
REMARK  status: ('A' for Active; 'I' for Inactive)
ROOT
HETATM    1  I   LIG     1      16.800  37.558  22.604  1.00  0.00    -0.057 I 
HETATM    2  C   LIG     1      17.574  36.409  21.001  1.00  0.00     0.057 C 
HETATM    3  C   LIG     1      18.426  36.883  20.086  1.00  0.00     0.057 C 
HETATM    4  I   LIG     1      19.159  38.871  20.067  1.00  0.00    -0.057 I 
ENDROOT
TORSDOF 0
ENDMDL
MODEL 7
REMARK VINA RESULT:      -2.8      2.103      3.459
REMARK  0 active torsions:
REMARK  status: ('A' for Active; 'I' for Inactive)
ROOT
HETATM    1  I   LIG     1      17.920  35.238  26.090  1.00  0.00    -0.057 I 
HETATM    2  C   LIG     1      17.170  35.033  24.119  1.00  0.00     0.057 C 
HETATM    3  C   LIG     1      16.933  36.063  23.300  1.00  0.00     0.057 C 
HETATM    4  I   LIG     1      17.260  38.091  23.821  1.00  0.00    -0.057 I 
ENDROOT
TORSDOF 0
ENDMDL
MODEL 8
REMARK VINA RESULT:      -2.8      3.387      3.615
REMARK  0 active torsions:
REMARK  status: ('A' for Active; 'I' for Inactive)
ROOT
HETATM    1  I   LIG     1      18.720  38.975  20.878  1.00  0.00    -0.057 I 
HETATM    2  C   LIG     1      17.223  38.763  22.363  1.00  0.00     0.057 C 
HETATM    3  C   LIG     1      16.532  37.637  22.570  1.00  0.00     0.057 C 
HETATM    4  I   LIG     1      16.804  35.857  21.453  1.00  0.00    -0.057 I 
ENDROOT
TORSDOF 0
ENDMDL
MODEL 9
REMARK VINA RESULT:      -2.8      3.516      4.698
REMARK  0 active torsions:
REMARK  status: ('A' for Active; 'I' for Inactive)
ROOT
HETATM    1  I   LIG     1      16.855  37.833  22.596  1.00  0.00    -0.057 I 
HETATM    2  C   LIG     1      18.322  39.245  22.010  1.00  0.00     0.057 C 
HETATM    3  C   LIG     1      19.083  39.121  20.918  1.00  0.00     0.057 C 
HETATM    4  I   LIG     1      18.965  37.490  19.570  1.00  0.00    -0.057 I 
ENDROOT
TORSDOF 0
ENDMDL
MODEL 10
REMARK VINA RESULT:      -2.8      2.818      3.532
REMARK  0 active torsions:
REMARK  status: ('A' for Active; 'I' for Inactive)
ROOT
HETATM    1  I   LIG     1      16.697  35.545  21.928  1.00  0.00    -0.057 I 
HETATM    2  C   LIG     1      16.873  37.006  23.453  1.00  0.00     0.057 C 
HETATM    3  C   LIG     1      17.458  38.197  23.281  1.00  0.00     0.057 C 
HETATM    4  I   LIG     1      18.317  38.843  21.456  1.00  0.00    -0.057 I 
ENDROOT
TORSDOF 0
ENDMDL
MODEL 11
REMARK VINA RESULT:      -2.8      2.121      2.121
REMARK  0 active torsions:
REMARK  status: ('A' for Active; 'I' for Inactive)
ROOT
HETATM    1  I   LIG     1      16.927  37.434  22.940  1.00  0.00    -0.057 I 
HETATM    2  C   LIG     1      16.967  35.417  23.591  1.00  0.00     0.057 C 
HETATM    3  C   LIG     1      17.416  35.029  24.789  1.00  0.00     0.057 C 
HETATM    4  I   LIG     1      18.170  36.355  26.259  1.00  0.00    -0.057 I 
ENDROOT
TORSDOF 0
ENDMDL
MODEL 12
REMARK VINA RESULT:      -2.7      2.266      2.853
REMARK  0 active torsions:
REMARK  status: ('A' for Active; 'I' for Inactive)
ROOT
HETATM    1  I   LIG     1      17.411  38.018  24.594  1.00  0.00    -0.057 I 
HETATM    2  C   LIG     1      17.406  35.942  25.020  1.00  0.00     0.057 C 
HETATM    3  C   LIG     1      17.154  34.994  24.110  1.00  0.00     0.057 C 
HETATM    4  I   LIG     1      16.712  35.391  22.077  1.00  0.00    -0.057 I 
ENDROOT
TORSDOF 0
ENDMDL
MODEL 13
REMARK VINA RESULT:      -2.7      4.075      4.443
REMARK  0 active torsions:
REMARK  status: ('A' for Active; 'I' for Inactive)
ROOT
HETATM    1  I   LIG     1      16.254  35.263  21.316  1.00  0.00    -0.057 I 
HETATM    2  C   LIG     1      17.806  36.457  20.506  1.00  0.00     0.057 C 
HETATM    3  C   LIG     1      18.140  37.664  20.973  1.00  0.00     0.057 C 
HETATM    4  I   LIG     1      17.179  38.609  22.608  1.00  0.00    -0.057 I 
ENDROOT
TORSDOF 0
ENDMDL
MODEL 14
REMARK VINA RESULT:      -2.7      3.964      4.200
REMARK  0 active torsions:
REMARK  status: ('A' for Active; 'I' for Inactive)
ROOT
HETATM    1  I   LIG     1      17.034  38.465  22.701  1.00  0.00    -0.057 I 
HETATM    2  C   LIG     1      18.004  37.547  21.056  1.00  0.00     0.057 C 
HETATM    3  C   LIG     1      17.675  36.345  20.571  1.00  0.00     0.057 C 
HETATM    4  I   LIG     1      16.124  35.134  21.357  1.00  0.00    -0.057 I 
ENDROOT
TORSDOF 0
ENDMDL
MODEL 15
REMARK VINA RESULT:      -2.6     11.423     11.912
REMARK  0 active torsions:
REMARK  status: ('A' for Active; 'I' for Inactive)
ROOT
HETATM    1  I   LIG     1      14.510  32.348  17.079  1.00  0.00    -0.057 I 
HETATM    2  C   LIG     1      13.063  31.010  16.301  1.00  0.00     0.057 C 
HETATM    3  C   LIG     1      13.267  30.225  15.238  1.00  0.00     0.057 C 
HETATM    4  I   LIG     1      15.075  30.173  14.134  1.00  0.00    -0.057 I 
ENDROOT
TORSDOF 0
ENDMDL
MODEL 16
REMARK VINA RESULT:      -2.6     11.265     11.698
REMARK  0 active torsions:
REMARK  status: ('A' for Active; 'I' for Inactive)
ROOT
HETATM    1  I   LIG     1      15.063  30.259  14.153  1.00  0.00    -0.057 I 
HETATM    2  C   LIG     1      13.334  30.342  15.375  1.00  0.00     0.057 C 
HETATM    3  C   LIG     1      13.201  31.157  16.427  1.00  0.00     0.057 C 
HETATM    4  I   LIG     1      14.695  32.517  17.067  1.00  0.00    -0.057 I 
ENDROOT
TORSDOF 0
ENDMDL
MODEL 17
REMARK VINA RESULT:      -2.4     11.999     12.018
REMARK  0 active torsions:
REMARK  status: ('A' for Active; 'I' for Inactive)
ROOT
HETATM    1  I   LIG     1      16.498  32.467  15.034  1.00  0.00    -0.057 I 
HETATM    2  C   LIG     1      15.461  30.831  14.174  1.00  0.00     0.057 C 
HETATM    3  C   LIG     1      14.331  30.318  14.673  1.00  0.00     0.057 C 
HETATM    4  I   LIG     1      13.369  31.044  16.416  1.00  0.00    -0.057 I 
ENDROOT
TORSDOF 0
ENDMDL
MODEL 18
REMARK VINA RESULT:      -2.4     11.812     11.928
REMARK  0 active torsions:
REMARK  status: ('A' for Active; 'I' for Inactive)
ROOT
HETATM    1  I   LIG     1      13.565  31.289  16.672  1.00  0.00    -0.057 I 
HETATM    2  C   LIG     1      14.348  30.466  14.884  1.00  0.00     0.057 C 
HETATM    3  C   LIG     1      15.453  30.914  14.277  1.00  0.00     0.057 C 
HETATM    4  I   LIG     1      16.622  32.531  14.989  1.00  0.00    -0.057 I 
ENDROOT
TORSDOF 0
ENDMDL
MODEL 19
REMARK VINA RESULT:      -2.4     10.382     10.491
REMARK  0 active torsions:
REMARK  status: ('A' for Active; 'I' for Inactive)
ROOT
HETATM    1  I   LIG     1      16.413  32.426  14.954  1.00  0.00    -0.057 I 
HETATM    2  C   LIG     1      15.286  33.106  16.614  1.00  0.00     0.057 C 
HETATM    3  C   LIG     1      14.163  32.521  17.044  1.00  0.00     0.057 C 
HETATM    4  I   LIG     1      13.302  30.806  16.146  1.00  0.00    -0.057 I 
ENDROOT
TORSDOF 0
ENDMDL
MODEL 20
REMARK VINA RESULT:      -2.2      7.131      7.525
REMARK  0 active torsions:
REMARK  status: ('A' for Active; 'I' for Inactive)
ROOT
HETATM    1  I   LIG     1      14.958  33.466  17.096  1.00  0.00    -0.057 I 
HETATM    2  C   LIG     1      15.052  32.297  18.861  1.00  0.00     0.057 C 
HETATM    3  C   LIG     1      15.339  32.792  20.070  1.00  0.00     0.057 C 
HETATM    4  I   LIG     1      15.756  34.835  20.445  1.00  0.00    -0.057 I 
ENDROOT
TORSDOF 0
ENDMDL
