REMARK  0 active torsions:
REMARK  status: ('A' for Active; 'I' for Inactive)
ROOT
HETATM    1  I   LIG     1      -1.786   1.542   0.221  1.00  0.00    -0.057 I 
HETATM    2  C   LIG     1      -0.680  -0.235  -0.110  1.00  0.00     0.057 C 
HETATM    3  C   LIG     1       0.656  -0.294  -0.107  1.00  0.00     0.057 C 
HETATM    4  I   LIG     1       1.915   1.377   0.228  1.00  0.00    -0.057 I 
ENDROOT
TORSDOF 0
