REMARK  3 active torsions:
REMARK  status: ('A' for Active; 'I' for Inactive)
REMARK    1  A    between atoms: C_2  and  C_5 
REMARK    2  A    between atoms: C_2  and  O_4 
REMARK    3  A    between atoms: C_5  and  C_6 
ROOT
HETATM    1  C   LIG     1      -1.439   1.353   0.533  1.00  0.00     0.045 C 
HETATM    2  C   LIG     1      -1.158  -0.135   0.261  1.00  0.00     0.051 C 
HETATM    3  C   LIG     1      -1.528  -0.467  -1.200  1.00  0.00     0.045 C 
ENDROOT
BRANCH   2   4
HETATM    4  C   LIG     1       0.326  -0.491   0.571  1.00  0.00     0.036 C 
BRANCH   4   5
HETATM    5  C   LIG     1       1.370   0.283  -0.255  1.00  0.00    -0.002 C 
HETATM    6  C   LIG     1       2.787  -0.157   0.106  1.00  0.00     0.005 C 
ENDBRANCH   4   5
ENDBRANCH   2   4
BRANCH   2   7
HETATM    7  O   LIG     1      -1.988  -0.879   1.123  1.00  0.00    -0.391 OA
HETATM    8  H   LIG     1      -1.844  -1.843   0.934  1.00  0.00     0.210 HD
ENDBRANCH   2   7
TORSDOF 3
