REMARK  0 active torsions:
REMARK  status: ('A' for Active; 'I' for Inactive)
ROOT
HETATM    1 BR   LIG     1       1.744   1.344  -0.027  1.00  0.00    -0.063 Br
HETATM    2  C   LIG     1       0.662  -0.239  -0.012  1.00  0.00     0.063 C 
HETATM    3  C   LIG     1      -0.674  -0.204   0.011  1.00  0.00     0.063 C 
HETATM    4 BR   LIG     1      -1.671   1.433   0.031  1.00  0.00    -0.063 Br
ENDROOT
TORSDOF 0
