MODEL 1
REMARK VINA RESULT:      -5.8      0.000      0.000
REMARK  1 active torsions:
REMARK  status: ('A' for Active; 'I' for Inactive)
REMARK    1  A    between atoms: N_3  and  C_4 
ROOT
HETATM    1  O   LIG     1      16.950  36.016  20.675  1.00  0.00    -0.266 OA
HETATM    2  C   LIG     1      17.682  36.997  20.972  1.00  0.00     0.276 A 
HETATM    3  N   LIG     1      17.632  37.573  22.235  1.00  0.00    -0.256 N 
HETATM    4  C   LIG     1      18.534  37.486  19.977  1.00  0.00     0.124 A 
HETATM    5 CL   LIG     1      18.583  36.703  18.393  1.00  0.00    -0.076 Cl
HETATM    6  C   LIG     1      19.326  38.595  20.251  1.00  0.00     0.037 A 
HETATM    7  C   LIG     1      20.256  39.161  19.212  1.00  0.00     0.070 C 
HETATM    8  N   LIG     1      19.223  39.189  21.463  1.00  0.00    -0.311 N 
HETATM    9  C   LIG     1      18.395  38.719  22.435  1.00  0.00     0.330 A 
HETATM   10  O   LIG     1      18.344  39.374  23.508  1.00  0.00    -0.246 OA
HETATM   11  H   LIG     1      19.791  40.045  21.663  1.00  0.00     0.170 HD
ENDROOT
BRANCH   3  12
HETATM   12  C   LIG     1      16.734  36.957  23.296  1.00  0.00     0.034 C 
HETATM   13  C   LIG     1      17.038  37.405  24.755  1.00  0.00     0.038 C 
HETATM   14  C   LIG     1      16.887  35.409  23.303  1.00  0.00     0.038 C 
HETATM   15  C   LIG     1      15.261  37.339  23.021  1.00  0.00     0.038 C 
ENDBRANCH   3  12
TORSDOF 1
ENDMDL
MODEL 2
REMARK VINA RESULT:      -5.5      1.827      4.182
REMARK  1 active torsions:
REMARK  status: ('A' for Active; 'I' for Inactive)
REMARK    1  A    between atoms: N_3  and  C_4 
ROOT
HETATM    1  O   LIG     1      17.886  35.892  20.262  1.00  0.00    -0.266 OA
HETATM    2  C   LIG     1      17.837  36.861  21.065  1.00  0.00     0.276 A 
HETATM    3  N   LIG     1      18.376  38.097  20.732  1.00  0.00    -0.256 N 
HETATM    4  C   LIG     1      17.230  36.636  22.305  1.00  0.00     0.124 A 
HETATM    5 CL   LIG     1      16.534  35.054  22.673  1.00  0.00    -0.076 Cl
HETATM    6  C   LIG     1      17.195  37.667  23.236  1.00  0.00     0.037 A 
HETATM    7  C   LIG     1      16.558  37.474  24.586  1.00  0.00     0.070 C 
HETATM    8  N   LIG     1      17.781  38.849  22.927  1.00  0.00    -0.311 N 
HETATM    9  C   LIG     1      18.374  39.072  21.723  1.00  0.00     0.330 A 
HETATM   10  O   LIG     1      18.926  40.191  21.557  1.00  0.00    -0.246 OA
HETATM   11  H   LIG     1      17.788  39.617  23.638  1.00  0.00     0.170 HD
ENDROOT
BRANCH   3  12
HETATM   12  C   LIG     1      18.964  38.300  19.344  1.00  0.00     0.034 C 
HETATM   13  C   LIG     1      18.431  39.547  18.582  1.00  0.00     0.038 C 
HETATM   14  C   LIG     1      18.627  37.087  18.430  1.00  0.00     0.038 C 
HETATM   15  C   LIG     1      20.497  38.472  19.446  1.00  0.00     0.038 C 
ENDBRANCH   3  12
TORSDOF 1
ENDMDL
MODEL 3
REMARK VINA RESULT:      -5.3      2.349      4.831
REMARK  1 active torsions:
REMARK  status: ('A' for Active; 'I' for Inactive)
REMARK    1  A    between atoms: N_3  and  C_4 
ROOT
HETATM    1  O   LIG     1      18.121  38.464  22.306  1.00  0.00    -0.266 OA
HETATM    2  C   LIG     1      17.792  37.541  21.514  1.00  0.00     0.276 A 
HETATM    3  N   LIG     1      18.242  37.530  20.201  1.00  0.00    -0.256 N 
HETATM    4  C   LIG     1      16.949  36.542  22.010  1.00  0.00     0.124 A 
HETATM    5 CL   LIG     1      16.424  36.585  23.697  1.00  0.00    -0.076 Cl
HETATM    6  C   LIG     1      16.526  35.530  21.155  1.00  0.00     0.037 A 
HETATM    7  C   LIG     1      15.616  34.434  21.639  1.00  0.00     0.070 C 
HETATM    8  N   LIG     1      16.918  35.562  19.859  1.00  0.00    -0.311 N 
HETATM    9  C   LIG     1      17.736  36.533  19.371  1.00  0.00     0.330 A 
HETATM   10  O   LIG     1      18.002  36.492  18.142  1.00  0.00    -0.246 OA
HETATM   11  H   LIG     1      16.575  34.822  19.203  1.00  0.00     0.170 HD
ENDROOT
BRANCH   3  12
HETATM   12  C   LIG     1      19.210  38.607  19.738  1.00  0.00     0.034 C 
HETATM   13  C   LIG     1      18.989  39.106  18.280  1.00  0.00     0.038 C 
HETATM   14  C   LIG     1      20.670  38.074  19.772  1.00  0.00     0.038 C 
HETATM   15  C   LIG     1      19.082  39.851  20.648  1.00  0.00     0.038 C 
ENDBRANCH   3  12
TORSDOF 1
ENDMDL
MODEL 4
REMARK VINA RESULT:      -4.7      7.886      9.080
REMARK  1 active torsions:
REMARK  status: ('A' for Active; 'I' for Inactive)
REMARK    1  A    between atoms: N_3  and  C_4 
ROOT
HETATM    1  O   LIG     1      15.525  33.794  16.943  1.00  0.00    -0.266 OA
HETATM    2  C   LIG     1      15.654  33.096  15.902  1.00  0.00     0.276 A 
HETATM    3  N   LIG     1      14.892  31.952  15.706  1.00  0.00    -0.256 N 
HETATM    4  C   LIG     1      16.602  33.515  14.963  1.00  0.00     0.124 A 
HETATM    5 CL   LIG     1      17.529  34.994  15.244  1.00  0.00    -0.076 Cl
HETATM    6  C   LIG     1      16.807  32.749  13.822  1.00  0.00     0.037 A 
HETATM    7  C   LIG     1      17.819  33.155  12.785  1.00  0.00     0.070 C 
HETATM    8  N   LIG     1      16.106  31.600  13.671  1.00  0.00    -0.311 N 
HETATM    9  C   LIG     1      15.184  31.187  14.581  1.00  0.00     0.330 A 
HETATM   10  O   LIG     1      14.621  30.082  14.364  1.00  0.00    -0.246 OA
HETATM   11  H   LIG     1      16.281  31.001  12.831  1.00  0.00     0.170 HD
ENDROOT
BRANCH   3  12
HETATM   12  C   LIG     1      13.831  31.583  16.731  1.00  0.00     0.034 C 
HETATM   13  C   LIG     1      13.222  30.161  16.562  1.00  0.00     0.038 C 
HETATM   14  C   LIG     1      12.624  32.559  16.636  1.00  0.00     0.038 C 
HETATM   15  C   LIG     1      14.437  31.632  18.152  1.00  0.00     0.038 C 
ENDBRANCH   3  12
TORSDOF 1
ENDMDL
MODEL 5
REMARK VINA RESULT:      -4.6      9.108     10.148
REMARK  1 active torsions:
REMARK  status: ('A' for Active; 'I' for Inactive)
REMARK    1  A    between atoms: N_3  and  C_4 
ROOT
HETATM    1  O   LIG     1      12.506  30.374  15.904  1.00  0.00    -0.266 OA
HETATM    2  C   LIG     1      13.664  30.424  15.411  1.00  0.00     0.276 A 
HETATM    3  N   LIG     1      14.558  31.420  15.780  1.00  0.00    -0.256 N 
HETATM    4  C   LIG     1      14.004  29.445  14.472  1.00  0.00     0.124 A 
HETATM    5 CL   LIG     1      12.841  28.181  14.054  1.00  0.00    -0.076 Cl
HETATM    6  C   LIG     1      15.257  29.491  13.872  1.00  0.00     0.037 A 
HETATM    7  C   LIG     1      15.669  28.463  12.853  1.00  0.00     0.070 C 
HETATM    8  N   LIG     1      16.098  30.504  14.190  1.00  0.00    -0.311 N 
HETATM    9  C   LIG     1      15.772  31.460  15.102  1.00  0.00     0.330 A 
HETATM   10  O   LIG     1      16.610  32.380  15.290  1.00  0.00    -0.246 OA
HETATM   11  H   LIG     1      17.029  30.563  13.716  1.00  0.00     0.170 HD
ENDROOT
BRANCH   3  12
HETATM   12  C   LIG     1      14.155  32.418  16.855  1.00  0.00     0.034 C 
HETATM   13  C   LIG     1      14.905  33.780  16.801  1.00  0.00     0.038 C 
HETATM   14  C   LIG     1      14.452  31.842  18.268  1.00  0.00     0.038 C 
HETATM   15  C   LIG     1      12.649  32.745  16.726  1.00  0.00     0.038 C 
ENDBRANCH   3  12
TORSDOF 1
ENDMDL
MODEL 6
REMARK VINA RESULT:      -4.6      1.945      3.086
REMARK  1 active torsions:
REMARK  status: ('A' for Active; 'I' for Inactive)
REMARK    1  A    between atoms: N_3  and  C_4 
ROOT
HETATM    1  O   LIG     1      17.486  38.349  22.929  1.00  0.00    -0.266 OA
HETATM    2  C   LIG     1      17.696  37.903  21.770  1.00  0.00     0.276 A 
HETATM    3  N   LIG     1      16.999  36.804  21.287  1.00  0.00    -0.256 N 
HETATM    4  C   LIG     1      18.667  38.552  21.000  1.00  0.00     0.124 A 
HETATM    5 CL   LIG     1      19.510  39.964  21.648  1.00  0.00    -0.076 Cl
HETATM    6  C   LIG     1      18.960  38.064  19.732  1.00  0.00     0.037 A 
HETATM    7  C   LIG     1      19.999  38.724  18.866  1.00  0.00     0.070 C 
HETATM    8  N   LIG     1      18.321  36.953  19.294  1.00  0.00    -0.311 N 
HETATM    9  C   LIG     1      17.378  36.316  20.040  1.00  0.00     0.330 A 
HETATM   10  O   LIG     1      16.878  35.267  19.555  1.00  0.00    -0.246 OA
HETATM   11  H   LIG     1      18.564  36.561  18.355  1.00  0.00     0.170 HD
ENDROOT
BRANCH   3  12
HETATM   12  C   LIG     1      15.909  36.180  22.145  1.00  0.00     0.034 C 
HETATM   13  C   LIG     1      14.821  35.395  21.357  1.00  0.00     0.038 C 
HETATM   14  C   LIG     1      15.136  37.283  22.923  1.00  0.00     0.038 C 
HETATM   15  C   LIG     1      16.537  35.176  23.139  1.00  0.00     0.038 C 
ENDBRANCH   3  12
TORSDOF 1
ENDMDL
MODEL 7
REMARK VINA RESULT:      -4.6      2.045      4.141
REMARK  1 active torsions:
REMARK  status: ('A' for Active; 'I' for Inactive)
REMARK    1  A    between atoms: N_3  and  C_4 
ROOT
HETATM    1  O   LIG     1      17.886  36.450  18.504  1.00  0.00    -0.266 OA
HETATM    2  C   LIG     1      17.399  36.457  19.666  1.00  0.00     0.276 A 
HETATM    3  N   LIG     1      17.871  37.331  20.636  1.00  0.00    -0.256 N 
HETATM    4  C   LIG     1      16.376  35.543  19.937  1.00  0.00     0.124 A 
HETATM    5 CL   LIG     1      15.790  34.468  18.661  1.00  0.00    -0.076 Cl
HETATM    6  C   LIG     1      15.842  35.488  21.219  1.00  0.00     0.037 A 
HETATM    7  C   LIG     1      14.743  34.519  21.563  1.00  0.00     0.070 C 
HETATM    8  N   LIG     1      16.353  36.299  22.176  1.00  0.00    -0.311 N 
HETATM    9  C   LIG     1      17.349  37.189  21.918  1.00  0.00     0.330 A 
HETATM   10  O   LIG     1      17.779  37.863  22.890  1.00  0.00    -0.246 OA
HETATM   11  H   LIG     1      15.978  36.238  23.151  1.00  0.00     0.170 HD
ENDROOT
BRANCH   3  12
HETATM   12  C   LIG     1      18.939  38.347  20.263  1.00  0.00     0.034 C 
HETATM   13  C   LIG     1      18.558  39.302  19.095  1.00  0.00     0.038 C 
HETATM   14  C   LIG     1      20.234  37.624  19.796  1.00  0.00     0.038 C 
HETATM   15  C   LIG     1      19.250  39.249  21.480  1.00  0.00     0.038 C 
ENDBRANCH   3  12
TORSDOF 1
ENDMDL
MODEL 8
REMARK VINA RESULT:      -3.9     18.024     19.334
REMARK  1 active torsions:
REMARK  status: ('A' for Active; 'I' for Inactive)
REMARK    1  A    between atoms: N_3  and  C_4 
ROOT
HETATM    1  O   LIG     1      26.485  29.582  34.011  1.00  0.00    -0.266 OA
HETATM    2  C   LIG     1      26.703  28.615  34.788  1.00  0.00     0.276 A 
HETATM    3  N   LIG     1      26.893  28.816  36.149  1.00  0.00    -0.256 N 
HETATM    4  C   LIG     1      26.757  27.337  34.221  1.00  0.00     0.124 A 
HETATM    5 CL   LIG     1      26.482  27.128  32.488  1.00  0.00    -0.076 Cl
HETATM    6  C   LIG     1      27.039  26.248  35.037  1.00  0.00     0.037 A 
HETATM    7  C   LIG     1      27.113  24.854  34.475  1.00  0.00     0.070 C 
HETATM    8  N   LIG     1      27.287  26.462  36.351  1.00  0.00    -0.311 N 
HETATM    9  C   LIG     1      27.237  27.702  36.908  1.00  0.00     0.330 A 
HETATM   10  O   LIG     1      27.527  27.793  38.129  1.00  0.00    -0.246 OA
HETATM   11  H   LIG     1      27.534  25.650  36.964  1.00  0.00     0.170 HD
ENDROOT
BRANCH   3  12
HETATM   12  C   LIG     1      26.757  30.220  36.717  1.00  0.00     0.034 C 
HETATM   13  C   LIG     1      25.873  31.186  35.876  1.00  0.00     0.038 C 
HETATM   14  C   LIG     1      28.149  30.908  36.801  1.00  0.00     0.038 C 
HETATM   15  C   LIG     1      26.116  30.155  38.123  1.00  0.00     0.038 C 
ENDBRANCH   3  12
TORSDOF 1
ENDMDL
MODEL 9
REMARK VINA RESULT:      -3.8     16.914     17.933
REMARK  1 active torsions:
REMARK  status: ('A' for Active; 'I' for Inactive)
REMARK    1  A    between atoms: N_3  and  C_4 
ROOT
HETATM    1  O   LIG     1      29.598  29.623  32.171  1.00  0.00    -0.266 OA
HETATM    2  C   LIG     1      28.542  29.161  32.678  1.00  0.00     0.276 A 
HETATM    3  N   LIG     1      27.930  28.030  32.155  1.00  0.00    -0.256 N 
HETATM    4  C   LIG     1      28.008  29.841  33.777  1.00  0.00     0.124 A 
HETATM    5 CL   LIG     1      28.836  31.262  34.424  1.00  0.00    -0.076 Cl
HETATM    6  C   LIG     1      26.819  29.390  34.338  1.00  0.00     0.037 A 
HETATM    7  C   LIG     1      26.201  30.089  35.518  1.00  0.00     0.070 C 
HETATM    8  N   LIG     1      26.196  28.324  33.781  1.00  0.00    -0.311 N 
HETATM    9  C   LIG     1      26.710  27.660  32.710  1.00  0.00     0.330 A 
HETATM   10  O   LIG     1      26.027  26.710  32.245  1.00  0.00    -0.246 OA
HETATM   11  H   LIG     1      25.283  28.001  34.177  1.00  0.00     0.170 HD
ENDROOT
BRANCH   3  12
HETATM   12  C   LIG     1      28.594  27.294  31.000  1.00  0.00     0.034 C 
HETATM   13  C   LIG     1      28.142  25.817  30.817  1.00  0.00     0.038 C 
HETATM   14  C   LIG     1      30.133  27.230  31.213  1.00  0.00     0.038 C 
HETATM   15  C   LIG     1      28.276  28.016  29.670  1.00  0.00     0.038 C 
ENDBRANCH   3  12
TORSDOF 1
ENDMDL
MODEL 10
REMARK VINA RESULT:      -3.7     16.004     16.617
REMARK  1 active torsions:
REMARK  status: ('A' for Active; 'I' for Inactive)
REMARK    1  A    between atoms: N_3  and  C_4 
ROOT
HETATM    1  O   LIG     1      25.761  23.180  22.203  1.00  0.00    -0.266 OA
HETATM    2  C   LIG     1      25.549  23.182  20.961  1.00  0.00     0.276 A 
HETATM    3  N   LIG     1      24.436  22.551  20.422  1.00  0.00    -0.256 N 
HETATM    4  C   LIG     1      26.486  23.834  20.153  1.00  0.00     0.124 A 
HETATM    5 CL   LIG     1      27.874  24.646  20.887  1.00  0.00    -0.076 Cl
HETATM    6  C   LIG     1      26.313  23.821  18.773  1.00  0.00     0.037 A 
HETATM    7  C   LIG     1      27.295  24.503  17.861  1.00  0.00     0.070 C 
HETATM    8  N   LIG     1      25.260  23.148  18.253  1.00  0.00    -0.311 N 
HETATM    9  C   LIG     1      24.346  22.511  19.034  1.00  0.00     0.330 A 
HETATM   10  O   LIG     1      23.431  21.879  18.445  1.00  0.00    -0.246 OA
HETATM   11  H   LIG     1      25.143  23.105  17.213  1.00  0.00     0.170 HD
ENDROOT
BRANCH   3  12
HETATM   12  C   LIG     1      23.418  21.916  21.356  1.00  0.00     0.034 C 
HETATM   13  C   LIG     1      23.825  21.901  22.858  1.00  0.00     0.038 C 
HETATM   14  C   LIG     1      23.192  20.425  20.978  1.00  0.00     0.038 C 
HETATM   15  C   LIG     1      22.081  22.688  21.274  1.00  0.00     0.038 C 
ENDBRANCH   3  12
TORSDOF 1
ENDMDL
MODEL 11
REMARK VINA RESULT:      -3.7      8.204      9.629
REMARK  1 active torsions:
REMARK  status: ('A' for Active; 'I' for Inactive)
REMARK    1  A    between atoms: N_3  and  C_4 
ROOT
HETATM    1  O   LIG     1      16.521  32.303  14.084  1.00  0.00    -0.266 OA
HETATM    2  C   LIG     1      15.793  32.288  15.112  1.00  0.00     0.276 A 
HETATM    3  N   LIG     1      14.879  31.264  15.328  1.00  0.00    -0.256 N 
HETATM    4  C   LIG     1      15.935  33.347  16.014  1.00  0.00     0.124 A 
HETATM    5 CL   LIG     1      17.130  34.613  15.708  1.00  0.00    -0.076 Cl
HETATM    6  C   LIG     1      15.118  33.390  17.138  1.00  0.00     0.037 A 
HETATM    7  C   LIG     1      15.230  34.511  18.136  1.00  0.00     0.070 C 
HETATM    8  N   LIG     1      14.186  32.423  17.307  1.00  0.00    -0.311 N 
HETATM    9  C   LIG     1      14.042  31.391  16.432  1.00  0.00     0.330 A 
HETATM   10  O   LIG     1      13.115  30.571  16.662  1.00  0.00    -0.246 OA
HETATM   11  H   LIG     1      13.546  32.470  18.134  1.00  0.00     0.170 HD
ENDROOT
BRANCH   3  12
HETATM   12  C   LIG     1      14.816  30.105  14.345  1.00  0.00     0.034 C 
HETATM   13  C   LIG     1      13.430  29.406  14.243  1.00  0.00     0.038 C 
HETATM   14  C   LIG     1      15.810  28.986  14.765  1.00  0.00     0.038 C 
HETATM   15  C   LIG     1      15.158  30.607  12.923  1.00  0.00     0.038 C 
ENDBRANCH   3  12
TORSDOF 1
ENDMDL
MODEL 12
REMARK VINA RESULT:      -3.7     15.970     16.660
REMARK  1 active torsions:
REMARK  status: ('A' for Active; 'I' for Inactive)
REMARK    1  A    between atoms: N_3  and  C_4 
ROOT
HETATM    1  O   LIG     1      24.712  22.957  18.291  1.00  0.00    -0.266 OA
HETATM    2  C   LIG     1      25.300  23.062  19.400  1.00  0.00     0.276 A 
HETATM    3  N   LIG     1      24.700  22.627  20.574  1.00  0.00    -0.256 N 
HETATM    4  C   LIG     1      26.571  23.645  19.398  1.00  0.00     0.124 A 
HETATM    5 CL   LIG     1      27.305  24.159  17.874  1.00  0.00    -0.076 Cl
HETATM    6  C   LIG     1      27.236  23.820  20.607  1.00  0.00     0.037 A 
HETATM    7  C   LIG     1      28.603  24.445  20.658  1.00  0.00     0.070 C 
HETATM    8  N   LIG     1      26.616  23.452  21.753  1.00  0.00    -0.311 N 
HETATM    9  C   LIG     1      25.379  22.886  21.761  1.00  0.00     0.330 A 
HETATM   10  O   LIG     1      24.878  22.623  22.885  1.00  0.00    -0.246 OA
HETATM   11  H   LIG     1      27.097  23.613  22.668  1.00  0.00     0.170 HD
ENDROOT
BRANCH   3  12
HETATM   12  C   LIG     1      23.344  21.942  20.506  1.00  0.00     0.034 C 
HETATM   13  C   LIG     1      22.811  21.686  19.066  1.00  0.00     0.038 C 
HETATM   14  C   LIG     1      22.260  22.817  21.195  1.00  0.00     0.038 C 
HETATM   15  C   LIG     1      23.422  20.560  21.195  1.00  0.00     0.038 C 
ENDBRANCH   3  12
TORSDOF 1
ENDMDL
MODEL 13
REMARK VINA RESULT:      -3.6     15.957     16.620
REMARK  1 active torsions:
REMARK  status: ('A' for Active; 'I' for Inactive)
REMARK    1  A    between atoms: N_3  and  C_4 
ROOT
HETATM    1  O   LIG     1      26.166  23.195  22.165  1.00  0.00    -0.266 OA
HETATM    2  C   LIG     1      26.093  23.519  20.950  1.00  0.00     0.276 A 
HETATM    3  N   LIG     1      25.197  22.893  20.094  1.00  0.00    -0.256 N 
HETATM    4  C   LIG     1      26.958  24.522  20.501  1.00  0.00     0.124 A 
HETATM    5 CL   LIG     1      28.063  25.308  21.635  1.00  0.00    -0.076 Cl
HETATM    6  C   LIG     1      26.940  24.877  19.157  1.00  0.00     0.037 A 
HETATM    7  C   LIG     1      27.854  25.947  18.624  1.00  0.00     0.070 C 
HETATM    8  N   LIG     1      26.108  24.217  18.317  1.00  0.00    -0.311 N 
HETATM    9  C   LIG     1      25.266  23.239  18.748  1.00  0.00     0.330 A 
HETATM   10  O   LIG     1      24.567  22.660  17.875  1.00  0.00    -0.246 OA
HETATM   11  H   LIG     1      26.115  24.456  17.298  1.00  0.00     0.170 HD
ENDROOT
BRANCH   3  12
HETATM   12  C   LIG     1      24.235  21.856  20.654  1.00  0.00     0.034 C 
HETATM   13  C   LIG     1      23.189  21.314  19.638  1.00  0.00     0.038 C 
HETATM   14  C   LIG     1      23.401  22.464  21.817  1.00  0.00     0.038 C 
HETATM   15  C   LIG     1      25.028  20.629  21.161  1.00  0.00     0.038 C 
ENDBRANCH   3  12
TORSDOF 1
ENDMDL
MODEL 14
REMARK VINA RESULT:      -3.5     16.534     17.691
REMARK  1 active torsions:
REMARK  status: ('A' for Active; 'I' for Inactive)
REMARK    1  A    between atoms: N_3  and  C_4 
ROOT
HETATM    1  O   LIG     1      25.257  23.428  20.406  1.00  0.00    -0.266 OA
HETATM    2  C   LIG     1      24.954  22.319  19.891  1.00  0.00     0.276 A 
HETATM    3  N   LIG     1      24.013  21.487  20.482  1.00  0.00    -0.256 N 
HETATM    4  C   LIG     1      25.612  21.960  18.711  1.00  0.00     0.124 A 
HETATM    5 CL   LIG     1      26.783  23.065  17.981  1.00  0.00    -0.076 Cl
HETATM    6  C   LIG     1      25.339  20.725  18.134  1.00  0.00     0.037 A 
HETATM    7  C   LIG     1      26.024  20.290  16.867  1.00  0.00     0.070 C 
HETATM    8  N   LIG     1      24.467  19.893  18.753  1.00  0.00    -0.311 N 
HETATM    9  C   LIG     1      23.826  20.236  19.902  1.00  0.00     0.330 A 
HETATM   10  O   LIG     1      23.070  19.371  20.416  1.00  0.00    -0.246 OA
HETATM   11  H   LIG     1      24.284  18.948  18.342  1.00  0.00     0.170 HD
ENDROOT
BRANCH   3  12
HETATM   12  C   LIG     1      23.282  21.961  21.729  1.00  0.00     0.034 C 
HETATM   13  C   LIG     1      22.636  20.830  22.581  1.00  0.00     0.038 C 
HETATM   14  C   LIG     1      22.108  22.904  21.343  1.00  0.00     0.038 C 
HETATM   15  C   LIG     1      24.267  22.702  22.662  1.00  0.00     0.038 C 
ENDBRANCH   3  12
TORSDOF 1
ENDMDL
MODEL 15
REMARK VINA RESULT:      -3.5     15.942     16.712
REMARK  1 active torsions:
REMARK  status: ('A' for Active; 'I' for Inactive)
REMARK    1  A    between atoms: N_3  and  C_4 
ROOT
HETATM    1  O   LIG     1      28.331  23.282  16.855  1.00  0.00    -0.266 OA
HETATM    2  C   LIG     1      27.999  24.218  17.629  1.00  0.00     0.276 A 
HETATM    3  N   LIG     1      27.012  24.038  18.590  1.00  0.00    -0.256 N 
HETATM    4  C   LIG     1      28.654  25.443  17.471  1.00  0.00     0.124 A 
HETATM    5 CL   LIG     1      29.922  25.616  16.252  1.00  0.00    -0.076 Cl
HETATM    6  C   LIG     1      28.286  26.515  18.276  1.00  0.00     0.037 A 
HETATM    7  C   LIG     1      28.957  27.854  18.142  1.00  0.00     0.070 C 
HETATM    8  N   LIG     1      27.278  26.349  19.166  1.00  0.00    -0.311 N 
HETATM    9  C   LIG     1      26.636  25.159  19.323  1.00  0.00     0.330 A 
HETATM   10  O   LIG     1      25.685  25.127  20.147  1.00  0.00    -0.246 OA
HETATM   11  H   LIG     1      26.973  27.161  19.750  1.00  0.00     0.170 HD
ENDROOT
BRANCH   3  12
HETATM   12  C   LIG     1      26.382  22.665  18.758  1.00  0.00     0.034 C 
HETATM   13  C   LIG     1      27.075  21.522  17.961  1.00  0.00     0.038 C 
HETATM   14  C   LIG     1      24.910  22.680  18.255  1.00  0.00     0.038 C 
HETATM   15  C   LIG     1      26.426  22.248  20.246  1.00  0.00     0.038 C 
ENDBRANCH   3  12
TORSDOF 1
ENDMDL
MODEL 16
REMARK VINA RESULT:      -3.4     16.901     18.016
REMARK  1 active torsions:
REMARK  status: ('A' for Active; 'I' for Inactive)
REMARK    1  A    between atoms: N_3  and  C_4 
ROOT
HETATM    1  O   LIG     1      25.812  20.543  21.617  1.00  0.00    -0.266 OA
HETATM    2  C   LIG     1      25.325  20.800  20.483  1.00  0.00     0.276 A 
HETATM    3  N   LIG     1      24.100  21.441  20.357  1.00  0.00    -0.256 N 
HETATM    4  C   LIG     1      26.063  20.402  19.364  1.00  0.00     0.124 A 
HETATM    5 CL   LIG     1      27.631  19.612  19.575  1.00  0.00    -0.076 Cl
HETATM    6  C   LIG     1      25.541  20.627  18.096  1.00  0.00     0.037 A 
HETATM    7  C   LIG     1      26.294  20.213  16.861  1.00  0.00     0.070 C 
HETATM    8  N   LIG     1      24.317  21.194  17.984  1.00  0.00    -0.311 N 
HETATM    9  C   LIG     1      23.593  21.582  19.069  1.00  0.00     0.330 A 
HETATM   10  O   LIG     1      22.449  22.058  18.853  1.00  0.00    -0.246 OA
HETATM   11  H   LIG     1      23.903  21.334  17.033  1.00  0.00     0.170 HD
ENDROOT
BRANCH   3  12
HETATM   12  C   LIG     1      23.375  21.909  21.609  1.00  0.00     0.034 C 
HETATM   13  C   LIG     1      22.185  22.879  21.355  1.00  0.00     0.038 C 
HETATM   14  C   LIG     1      24.348  22.689  22.539  1.00  0.00     0.038 C 
HETATM   15  C   LIG     1      22.792  20.691  22.361  1.00  0.00     0.038 C 
ENDBRANCH   3  12
TORSDOF 1
ENDMDL
MODEL 17
REMARK VINA RESULT:      -3.4     16.073     17.212
REMARK  1 active torsions:
REMARK  status: ('A' for Active; 'I' for Inactive)
REMARK    1  A    between atoms: N_3  and  C_4 
ROOT
HETATM    1  O   LIG     1      26.864  23.830  22.060  1.00  0.00    -0.266 OA
HETATM    2  C   LIG     1      25.947  23.247  21.422  1.00  0.00     0.276 A 
HETATM    3  N   LIG     1      25.938  23.229  20.034  1.00  0.00    -0.256 N 
HETATM    4  C   LIG     1      24.937  22.634  22.170  1.00  0.00     0.124 A 
HETATM    5 CL   LIG     1      25.005  22.661  23.936  1.00  0.00    -0.076 Cl
HETATM    6  C   LIG     1      23.883  22.019  21.505  1.00  0.00     0.037 A 
HETATM    7  C   LIG     1      22.769  21.349  22.264  1.00  0.00     0.070 C 
HETATM    8  N   LIG     1      23.849  22.063  20.151  1.00  0.00    -0.311 N 
HETATM    9  C   LIG     1      24.828  22.659  19.419  1.00  0.00     0.330 A 
HETATM   10  O   LIG     1      24.675  22.680  18.170  1.00  0.00    -0.246 OA
HETATM   11  H   LIG     1      23.040  21.631  19.646  1.00  0.00     0.170 HD
ENDROOT
BRANCH   3  12
HETATM   12  C   LIG     1      27.098  23.856  19.276  1.00  0.00     0.034 C 
HETATM   13  C   LIG     1      27.406  23.210  17.895  1.00  0.00     0.038 C 
HETATM   14  C   LIG     1      28.414  23.722  20.094  1.00  0.00     0.038 C 
HETATM   15  C   LIG     1      26.799  25.348  19.003  1.00  0.00     0.038 C 
ENDBRANCH   3  12
TORSDOF 1
ENDMDL
MODEL 18
REMARK VINA RESULT:      -3.4     16.174     17.107
REMARK  1 active torsions:
REMARK  status: ('A' for Active; 'I' for Inactive)
REMARK    1  A    between atoms: N_3  and  C_4 
ROOT
HETATM    1  O   LIG     1      26.052  21.603  17.587  1.00  0.00    -0.266 OA
HETATM    2  C   LIG     1      25.868  22.385  18.558  1.00  0.00     0.276 A 
HETATM    3  N   LIG     1      24.898  22.123  19.516  1.00  0.00    -0.256 N 
HETATM    4  C   LIG     1      26.672  23.528  18.621  1.00  0.00     0.124 A 
HETATM    5 CL   LIG     1      27.913  23.804  17.393  1.00  0.00    -0.076 Cl
HETATM    6  C   LIG     1      26.471  24.438  19.652  1.00  0.00     0.037 A 
HETATM    7  C   LIG     1      27.307  25.684  19.762  1.00  0.00     0.070 C 
HETATM    8  N   LIG     1      25.479  24.207  20.545  1.00  0.00    -0.311 N 
HETATM    9  C   LIG     1      24.694  23.098  20.487  1.00  0.00     0.330 A 
HETATM   10  O   LIG     1      23.773  23.004  21.341  1.00  0.00    -0.246 OA
HETATM   11  H   LIG     1      25.301  24.906  21.303  1.00  0.00     0.170 HD
ENDROOT
BRANCH   3  12
HETATM   12  C   LIG     1      24.100  20.831  19.430  1.00  0.00     0.034 C 
HETATM   13  C   LIG     1      23.417  20.392  20.757  1.00  0.00     0.038 C 
HETATM   14  C   LIG     1      25.028  19.647  19.035  1.00  0.00     0.038 C 
HETATM   15  C   LIG     1      22.969  20.984  18.387  1.00  0.00     0.038 C 
ENDBRANCH   3  12
TORSDOF 1
ENDMDL
MODEL 19
REMARK VINA RESULT:      -3.3     16.490     17.586
REMARK  1 active torsions:
REMARK  status: ('A' for Active; 'I' for Inactive)
REMARK    1  A    between atoms: N_3  and  C_4 
ROOT
HETATM    1  O   LIG     1      27.103  22.000  17.715  1.00  0.00    -0.266 OA
HETATM    2  C   LIG     1      26.000  21.983  18.325  1.00  0.00     0.276 A 
HETATM    3  N   LIG     1      25.744  22.864  19.368  1.00  0.00    -0.256 N 
HETATM    4  C   LIG     1      25.056  21.036  17.916  1.00  0.00     0.124 A 
HETATM    5 CL   LIG     1      25.418  19.955  16.565  1.00  0.00    -0.076 Cl
HETATM    6  C   LIG     1      23.844  20.956  18.592  1.00  0.00     0.037 A 
HETATM    7  C   LIG     1      22.797  19.951  18.193  1.00  0.00     0.070 C 
HETATM    8  N   LIG     1      23.629  21.774  19.649  1.00  0.00    -0.311 N 
HETATM    9  C   LIG     1      24.545  22.696  20.052  1.00  0.00     0.330 A 
HETATM   10  O   LIG     1      24.261  23.375  21.073  1.00  0.00    -0.246 OA
HETATM   11  H   LIG     1      22.733  21.694  20.183  1.00  0.00     0.170 HD
ENDROOT
BRANCH   3  12
HETATM   12  C   LIG     1      26.784  23.915  19.724  1.00  0.00     0.034 C 
HETATM   13  C   LIG     1      28.091  23.858  18.881  1.00  0.00     0.038 C 
HETATM   14  C   LIG     1      27.242  23.745  21.201  1.00  0.00     0.038 C 
HETATM   15  C   LIG     1      26.191  25.328  19.516  1.00  0.00     0.038 C 
ENDBRANCH   3  12
TORSDOF 1
ENDMDL
MODEL 20
REMARK VINA RESULT:      -3.3     16.408     17.340
REMARK  1 active torsions:
REMARK  status: ('A' for Active; 'I' for Inactive)
REMARK    1  A    between atoms: N_3  and  C_4 
ROOT
HETATM    1  O   LIG     1      27.071  22.372  20.413  1.00  0.00    -0.266 OA
HETATM    2  C   LIG     1      25.999  22.422  21.073  1.00  0.00     0.276 A 
HETATM    3  N   LIG     1      24.765  22.322  20.444  1.00  0.00    -0.256 N 
HETATM    4  C   LIG     1      26.106  22.594  22.457  1.00  0.00     0.124 A 
HETATM    5 CL   LIG     1      27.700  22.689  23.215  1.00  0.00    -0.076 Cl
HETATM    6  C   LIG     1      24.946  22.699  23.215  1.00  0.00     0.037 A 
HETATM    7  C   LIG     1      25.007  22.889  24.706  1.00  0.00     0.070 C 
HETATM    8  N   LIG     1      23.747  22.665  22.586  1.00  0.00    -0.311 N 
HETATM    9  C   LIG     1      23.638  22.500  21.240  1.00  0.00     0.330 A 
HETATM   10  O   LIG     1      22.477  22.527  20.753  1.00  0.00    -0.246 OA
HETATM   11  H   LIG     1      22.871  22.778  23.147  1.00  0.00     0.170 HD
ENDROOT
BRANCH   3  12
HETATM   12  C   LIG     1      24.714  22.070  18.945  1.00  0.00     0.034 C 
HETATM   13  C   LIG     1      23.284  21.897  18.357  1.00  0.00     0.038 C 
HETATM   14  C   LIG     1      25.464  20.754  18.592  1.00  0.00     0.038 C 
HETATM   15  C   LIG     1      25.355  23.259  18.193  1.00  0.00     0.038 C 
ENDBRANCH   3  12
TORSDOF 1
ENDMDL
