REMARK  1 active torsions:
REMARK  status: ('A' for Active; 'I' for Inactive)
REMARK    1  A    between atoms: N_3  and  C_4 
ROOT
HETATM    1  O   LIG     1      -0.051   1.853   1.175  1.00  0.00    -0.266 OA
HETATM    2  C   LIG     1       0.540   0.940   0.539  1.00  0.00     0.276 A 
HETATM    3  N   LIG     1      -0.173  -0.061  -0.107  1.00  0.00    -0.256 N 
HETATM    4  C   LIG     1       1.938   0.972   0.523  1.00  0.00     0.124 A 
HETATM    5 CL   LIG     1       2.801   2.282   1.338  1.00  0.00    -0.076 Cl
HETATM    6  C   LIG     1       2.629  -0.042  -0.130  1.00  0.00     0.037 A 
HETATM    7  C   LIG     1       4.133  -0.055  -0.172  1.00  0.00     0.070 C 
HETATM    8  N   LIG     1       1.927  -1.049  -0.702  1.00  0.00    -0.311 N 
HETATM    9  C   LIG     1       0.567  -1.086  -0.688  1.00  0.00     0.330 A 
HETATM   10  O   LIG     1       0.017  -2.090  -1.211  1.00  0.00    -0.246 OA
HETATM   11  H   LIG     1       2.443  -1.833  -1.165  1.00  0.00     0.170 HD
ENDROOT
BRANCH   3  12
HETATM   12  C   LIG     1      -1.693  -0.006  -0.110  1.00  0.00     0.034 C 
HETATM   13  C   LIG     1      -2.387  -1.083  -0.993  1.00  0.00     0.038 C 
HETATM   14  C   LIG     1      -2.184   1.360  -0.668  1.00  0.00     0.038 C 
HETATM   15  C   LIG     1      -2.226  -0.210   1.327  1.00  0.00     0.038 C 
ENDBRANCH   3  12
TORSDOF 1
