MODEL 1
REMARK VINA RESULT:      -5.0      0.000      0.000
REMARK  3 active torsions:
REMARK  status: ('A' for Active; 'I' for Inactive)
REMARK    1  A    between atoms: C_2  and  C_3 
REMARK    2  A    between atoms: C_3  and  C_4 
REMARK    3  A    between atoms: C_4  and  C_5 
ROOT
HETATM    1  C   LIG     1      17.901  37.811  24.600  1.00  0.00     0.077 C 
ENDROOT
BRANCH   1   2
HETATM    2  C   LIG     1      16.714  37.492  23.728  1.00  0.00     0.123 C 
HETATM    3  C   LIG     1      16.809  36.495  22.611  1.00  0.00     0.091 C 
HETATM    4  O   LIG     1      15.652  38.064  23.926  1.00  0.00    -0.298 OA
ENDBRANCH   1   2
BRANCH   1   5
HETATM    5  C   LIG     1      17.622  37.423  26.059  1.00  0.00     0.007 C 
BRANCH   5   6
HETATM    6  C   LIG     1      18.503  36.260  26.540  1.00  0.00    -0.004 C 
HETATM    7  C   LIG     1      17.951  34.893  26.139  1.00  0.00     0.005 C 
ENDBRANCH   5   6
ENDBRANCH   1   5
TORSDOF 3
ENDMDL
MODEL 2
REMARK VINA RESULT:      -4.7      0.853      1.357
REMARK  3 active torsions:
REMARK  status: ('A' for Active; 'I' for Inactive)
REMARK    1  A    between atoms: C_2  and  C_3 
REMARK    2  A    between atoms: C_3  and  C_4 
REMARK    3  A    between atoms: C_4  and  C_5 
ROOT
HETATM    1  C   LIG     1      17.180  36.919  24.632  1.00  0.00     0.077 C 
ENDROOT
BRANCH   1   2
HETATM    2  C   LIG     1      16.511  37.300  23.336  1.00  0.00     0.123 C 
HETATM    3  C   LIG     1      17.010  36.785  22.018  1.00  0.00     0.091 C 
HETATM    4  O   LIG     1      15.549  38.053  23.355  1.00  0.00    -0.298 OA
ENDBRANCH   1   2
BRANCH   1   5
HETATM    5  C   LIG     1      17.280  35.392  24.761  1.00  0.00     0.007 C 
BRANCH   5   6
HETATM    6  C   LIG     1      17.946  34.954  26.074  1.00  0.00    -0.004 C 
HETATM    7  C   LIG     1      18.506  36.128  26.876  1.00  0.00     0.005 C 
ENDBRANCH   5   6
ENDBRANCH   1   5
TORSDOF 3
ENDMDL
MODEL 3
REMARK VINA RESULT:      -4.5      1.722      3.804
REMARK  3 active torsions:
REMARK  status: ('A' for Active; 'I' for Inactive)
REMARK    1  A    between atoms: C_2  and  C_3 
REMARK    2  A    between atoms: C_3  and  C_4 
REMARK    3  A    between atoms: C_4  and  C_5 
ROOT
HETATM    1  C   LIG     1      17.047  36.856  23.940  1.00  0.00     0.077 C 
ENDROOT
BRANCH   1   2
HETATM    2  C   LIG     1      17.503  37.527  25.209  1.00  0.00     0.123 C 
HETATM    3  C   LIG     1      18.398  36.824  26.188  1.00  0.00     0.091 C 
HETATM    4  O   LIG     1      17.130  38.665  25.455  1.00  0.00    -0.298 OA
ENDBRANCH   1   2
BRANCH   1   5
HETATM    5  C   LIG     1      16.580  37.897  22.914  1.00  0.00     0.007 C 
BRANCH   5   6
HETATM    6  C   LIG     1      17.552  38.039  21.733  1.00  0.00    -0.004 C 
HETATM    7  C   LIG     1      18.460  39.262  21.855  1.00  0.00     0.005 C 
ENDBRANCH   5   6
ENDBRANCH   1   5
TORSDOF 3
ENDMDL
MODEL 4
REMARK VINA RESULT:      -4.5      3.866      4.747
REMARK  3 active torsions:
REMARK  status: ('A' for Active; 'I' for Inactive)
REMARK    1  A    between atoms: C_2  and  C_3 
REMARK    2  A    between atoms: C_3  and  C_4 
REMARK    3  A    between atoms: C_4  and  C_5 
ROOT
HETATM    1  C   LIG     1      18.760  39.396  21.039  1.00  0.00     0.077 C 
ENDROOT
BRANCH   1   2
HETATM    2  C   LIG     1      19.554  38.758  19.927  1.00  0.00     0.123 C 
HETATM    3  C   LIG     1      19.324  37.331  19.522  1.00  0.00     0.091 C 
HETATM    4  O   LIG     1      20.410  39.410  19.349  1.00  0.00    -0.298 OA
ENDBRANCH   1   2
BRANCH   1   5
HETATM    5  C   LIG     1      17.724  38.412  21.598  1.00  0.00     0.007 C 
BRANCH   5   6
HETATM    6  C   LIG     1      17.215  38.819  22.989  1.00  0.00    -0.004 C 
HETATM    7  C   LIG     1      16.803  37.620  23.844  1.00  0.00     0.005 C 
ENDBRANCH   5   6
ENDBRANCH   1   5
TORSDOF 3
ENDMDL
MODEL 5
REMARK VINA RESULT:      -4.5      2.549      4.137
REMARK  3 active torsions:
REMARK  status: ('A' for Active; 'I' for Inactive)
REMARK    1  A    between atoms: C_2  and  C_3 
REMARK    2  A    between atoms: C_3  and  C_4 
REMARK    3  A    between atoms: C_4  and  C_5 
ROOT
HETATM    1  C   LIG     1      16.960  38.996  22.420  1.00  0.00     0.077 C 
ENDROOT
BRANCH   1   2
HETATM    2  C   LIG     1      16.601  37.784  23.241  1.00  0.00     0.123 C 
HETATM    3  C   LIG     1      16.817  36.394  22.720  1.00  0.00     0.091 C 
HETATM    4  O   LIG     1      16.113  37.934  24.351  1.00  0.00    -0.298 OA
ENDBRANCH   1   2
BRANCH   1   5
HETATM    5  C   LIG     1      18.461  39.005  22.096  1.00  0.00     0.007 C 
BRANCH   5   6
HETATM    6  C   LIG     1      18.740  39.186  20.596  1.00  0.00    -0.004 C 
HETATM    7  C   LIG     1      18.995  37.862  19.877  1.00  0.00     0.005 C 
ENDBRANCH   5   6
ENDBRANCH   1   5
TORSDOF 3
ENDMDL
MODEL 6
REMARK VINA RESULT:      -4.3      2.112      3.795
REMARK  3 active torsions:
REMARK  status: ('A' for Active; 'I' for Inactive)
REMARK    1  A    between atoms: C_2  and  C_3 
REMARK    2  A    between atoms: C_3  and  C_4 
REMARK    3  A    between atoms: C_4  and  C_5 
ROOT
HETATM    1  C   LIG     1      17.300  37.657  25.200  1.00  0.00     0.077 C 
ENDROOT
BRANCH   1   2
HETATM    2  C   LIG     1      17.905  36.485  25.929  1.00  0.00     0.123 C 
HETATM    3  C   LIG     1      17.561  35.072  25.561  1.00  0.00     0.091 C 
HETATM    4  O   LIG     1      18.685  36.687  26.848  1.00  0.00    -0.298 OA
ENDBRANCH   1   2
BRANCH   1   5
HETATM    5  C   LIG     1      17.185  37.359  23.698  1.00  0.00     0.007 C 
BRANCH   5   6
HETATM    6  C   LIG     1      16.942  38.625  22.863  1.00  0.00    -0.004 C 
HETATM    7  C   LIG     1      17.977  38.810  21.753  1.00  0.00     0.005 C 
ENDBRANCH   5   6
ENDBRANCH   1   5
TORSDOF 3
ENDMDL
MODEL 7
REMARK VINA RESULT:      -4.2      2.351      3.016
REMARK  3 active torsions:
REMARK  status: ('A' for Active; 'I' for Inactive)
REMARK    1  A    between atoms: C_2  and  C_3 
REMARK    2  A    between atoms: C_3  and  C_4 
REMARK    3  A    between atoms: C_4  and  C_5 
ROOT
HETATM    1  C   LIG     1      16.325  35.950  22.223  1.00  0.00     0.077 C 
ENDROOT
BRANCH   1   2
HETATM    2  C   LIG     1      17.294  36.644  21.300  1.00  0.00     0.123 C 
HETATM    3  C   LIG     1      17.711  38.067  21.531  1.00  0.00     0.091 C 
HETATM    4  O   LIG     1      17.742  36.042  20.336  1.00  0.00    -0.298 OA
ENDBRANCH   1   2
BRANCH   1   5
HETATM    5  C   LIG     1      17.077  35.101  23.257  1.00  0.00     0.007 C 
BRANCH   5   6
HETATM    6  C   LIG     1      17.271  35.833  24.594  1.00  0.00    -0.004 C 
HETATM    7  C   LIG     1      17.541  34.881  25.758  1.00  0.00     0.005 C 
ENDBRANCH   5   6
ENDBRANCH   1   5
TORSDOF 3
ENDMDL
MODEL 8
REMARK VINA RESULT:      -4.1      1.656      3.449
REMARK  3 active torsions:
REMARK  status: ('A' for Active; 'I' for Inactive)
REMARK    1  A    between atoms: C_2  and  C_3 
REMARK    2  A    between atoms: C_3  and  C_4 
REMARK    3  A    between atoms: C_4  and  C_5 
ROOT
HETATM    1  C   LIG     1      17.611  37.896  22.443  1.00  0.00     0.077 C 
ENDROOT
BRANCH   1   2
HETATM    2  C   LIG     1      16.683  37.877  23.630  1.00  0.00     0.123 C 
HETATM    3  C   LIG     1      17.195  37.625  25.018  1.00  0.00     0.091 C 
HETATM    4  O   LIG     1      15.487  38.060  23.461  1.00  0.00    -0.298 OA
ENDBRANCH   1   2
BRANCH   1   5
HETATM    5  C   LIG     1      17.175  36.860  21.398  1.00  0.00     0.007 C 
BRANCH   5   6
HETATM    6  C   LIG     1      17.097  35.438  21.974  1.00  0.00    -0.004 C 
HETATM    7  C   LIG     1      15.796  34.723  21.614  1.00  0.00     0.005 C 
ENDBRANCH   5   6
ENDBRANCH   1   5
TORSDOF 3
ENDMDL
MODEL 9
REMARK VINA RESULT:      -4.1      7.794      9.818
REMARK  3 active torsions:
REMARK  status: ('A' for Active; 'I' for Inactive)
REMARK    1  A    between atoms: C_2  and  C_3 
REMARK    2  A    between atoms: C_3  and  C_4 
REMARK    3  A    between atoms: C_4  and  C_5 
ROOT
HETATM    1  C   LIG     1      14.924  32.206  17.326  1.00  0.00     0.077 C 
ENDROOT
BRANCH   1   2
HETATM    2  C   LIG     1      15.148  32.460  18.795  1.00  0.00     0.123 C 
HETATM    3  C   LIG     1      14.825  31.420  19.827  1.00  0.00     0.091 C 
HETATM    4  O   LIG     1      15.592  33.539  19.157  1.00  0.00    -0.298 OA
ENDBRANCH   1   2
BRANCH   1   5
HETATM    5  C   LIG     1      13.429  32.016  17.031  1.00  0.00     0.007 C 
BRANCH   5   6
HETATM    6  C   LIG     1      13.142  30.728  16.245  1.00  0.00    -0.004 C 
HETATM    7  C   LIG     1      14.152  30.480  15.125  1.00  0.00     0.005 C 
ENDBRANCH   5   6
ENDBRANCH   1   5
TORSDOF 3
ENDMDL
MODEL 10
REMARK VINA RESULT:      -4.0     10.835     12.233
REMARK  3 active torsions:
REMARK  status: ('A' for Active; 'I' for Inactive)
REMARK    1  A    between atoms: C_2  and  C_3 
REMARK    2  A    between atoms: C_3  and  C_4 
REMARK    3  A    between atoms: C_4  and  C_5 
ROOT
HETATM    1  C   LIG     1      15.458  30.968  13.440  1.00  0.00     0.077 C 
ENDROOT
BRANCH   1   2
HETATM    2  C   LIG     1      16.105  32.204  14.010  1.00  0.00     0.123 C 
HETATM    3  C   LIG     1      16.398  32.327  15.477  1.00  0.00     0.091 C 
HETATM    4  O   LIG     1      16.389  33.131  13.267  1.00  0.00    -0.298 OA
ENDBRANCH   1   2
BRANCH   1   5
HETATM    5  C   LIG     1      15.049  30.004  14.562  1.00  0.00     0.007 C 
BRANCH   5   6
HETATM    6  C   LIG     1      13.528  29.951  14.770  1.00  0.00    -0.004 C 
HETATM    7  C   LIG     1      13.076  30.689  16.030  1.00  0.00     0.005 C 
ENDBRANCH   5   6
ENDBRANCH   1   5
TORSDOF 3
ENDMDL
MODEL 11
REMARK VINA RESULT:      -3.9      4.019      4.885
REMARK  3 active torsions:
REMARK  status: ('A' for Active; 'I' for Inactive)
REMARK    1  A    between atoms: C_2  and  C_3 
REMARK    2  A    between atoms: C_3  and  C_4 
REMARK    3  A    between atoms: C_4  and  C_5 
ROOT
HETATM    1  C   LIG     1      17.403  37.240  21.483  1.00  0.00     0.077 C 
ENDROOT
BRANCH   1   2
HETATM    2  C   LIG     1      18.461  37.844  20.595  1.00  0.00     0.123 C 
HETATM    3  C   LIG     1      19.145  37.036  19.532  1.00  0.00     0.091 C 
HETATM    4  O   LIG     1      18.778  39.014  20.749  1.00  0.00    -0.298 OA
ENDBRANCH   1   2
BRANCH   1   5
HETATM    5  C   LIG     1      17.261  35.736  21.210  1.00  0.00     0.007 C 
BRANCH   5   6
HETATM    6  C   LIG     1      15.913  35.378  20.566  1.00  0.00    -0.004 C 
HETATM    7  C   LIG     1      15.673  33.870  20.494  1.00  0.00     0.005 C 
ENDBRANCH   5   6
ENDBRANCH   1   5
TORSDOF 3
ENDMDL
MODEL 12
REMARK VINA RESULT:      -3.9     10.281     12.252
REMARK  3 active torsions:
REMARK  status: ('A' for Active; 'I' for Inactive)
REMARK    1  A    between atoms: C_2  and  C_3 
REMARK    2  A    between atoms: C_3  and  C_4 
REMARK    3  A    between atoms: C_4  and  C_5 
ROOT
HETATM    1  C   LIG     1      14.569  31.046  15.381  1.00  0.00     0.077 C 
ENDROOT
BRANCH   1   2
HETATM    2  C   LIG     1      13.771  31.110  16.658  1.00  0.00     0.123 C 
HETATM    3  C   LIG     1      14.248  31.901  17.840  1.00  0.00     0.091 C 
HETATM    4  O   LIG     1      12.717  30.496  16.739  1.00  0.00    -0.298 OA
ENDBRANCH   1   2
BRANCH   1   5
HETATM    5  C   LIG     1      14.140  29.839  14.534  1.00  0.00     0.007 C 
BRANCH   5   6
HETATM    6  C   LIG     1      15.318  29.194  13.788  1.00  0.00    -0.004 C 
HETATM    7  C   LIG     1      15.158  27.684  13.621  1.00  0.00     0.005 C 
ENDBRANCH   5   6
ENDBRANCH   1   5
TORSDOF 3
ENDMDL
MODEL 13
REMARK VINA RESULT:      -3.9      9.471     11.148
REMARK  3 active torsions:
REMARK  status: ('A' for Active; 'I' for Inactive)
REMARK    1  A    between atoms: C_2  and  C_3 
REMARK    2  A    between atoms: C_3  and  C_4 
REMARK    3  A    between atoms: C_4  and  C_5 
ROOT
HETATM    1  C   LIG     1      16.575  32.262  15.303  1.00  0.00     0.077 C 
ENDROOT
BRANCH   1   2
HETATM    2  C   LIG     1      15.771  33.254  16.104  1.00  0.00     0.123 C 
HETATM    3  C   LIG     1      14.584  32.825  16.915  1.00  0.00     0.091 C 
HETATM    4  O   LIG     1      16.084  34.435  16.086  1.00  0.00    -0.298 OA
ENDBRANCH   1   2
BRANCH   1   5
HETATM    5  C   LIG     1      15.755  31.730  14.119  1.00  0.00     0.007 C 
BRANCH   5   6
HETATM    6  C   LIG     1      15.429  30.234  14.253  1.00  0.00    -0.004 C 
HETATM    7  C   LIG     1      13.964  29.976  14.604  1.00  0.00     0.005 C 
ENDBRANCH   5   6
ENDBRANCH   1   5
TORSDOF 3
ENDMDL
MODEL 14
REMARK VINA RESULT:      -3.9      3.618      4.591
REMARK  3 active torsions:
REMARK  status: ('A' for Active; 'I' for Inactive)
REMARK    1  A    between atoms: C_2  and  C_3 
REMARK    2  A    between atoms: C_3  and  C_4 
REMARK    3  A    between atoms: C_4  and  C_5 
ROOT
HETATM    1  C   LIG     1      17.001  35.946  21.730  1.00  0.00     0.077 C 
ENDROOT
BRANCH   1   2
HETATM    2  C   LIG     1      15.728  35.320  21.221  1.00  0.00     0.123 C 
HETATM    3  C   LIG     1      15.736  33.995  20.516  1.00  0.00     0.091 C 
HETATM    4  O   LIG     1      14.667  35.905  21.375  1.00  0.00    -0.298 OA
ENDBRANCH   1   2
BRANCH   1   5
HETATM    5  C   LIG     1      17.882  36.409  20.561  1.00  0.00     0.007 C 
BRANCH   5   6
HETATM    6  C   LIG     1      18.338  37.868  20.708  1.00  0.00    -0.004 C 
HETATM    7  C   LIG     1      17.736  38.557  21.932  1.00  0.00     0.005 C 
ENDBRANCH   5   6
ENDBRANCH   1   5
TORSDOF 3
ENDMDL
MODEL 15
REMARK VINA RESULT:      -3.8     10.195     12.092
REMARK  3 active torsions:
REMARK  status: ('A' for Active; 'I' for Inactive)
REMARK    1  A    between atoms: C_2  and  C_3 
REMARK    2  A    between atoms: C_3  and  C_4 
REMARK    3  A    between atoms: C_4  and  C_5 
ROOT
HETATM    1  C   LIG     1      13.506  30.267  15.008  1.00  0.00     0.077 C 
ENDROOT
BRANCH   1   2
HETATM    2  C   LIG     1      13.322  31.046  16.285  1.00  0.00     0.123 C 
HETATM    3  C   LIG     1      14.386  31.972  16.796  1.00  0.00     0.091 C 
HETATM    4  O   LIG     1      12.290  30.915  16.926  1.00  0.00    -0.298 OA
ENDBRANCH   1   2
BRANCH   1   5
HETATM    5  C   LIG     1      14.997  30.065  14.707  1.00  0.00     0.007 C 
BRANCH   5   6
HETATM    6  C   LIG     1      15.416  30.678  13.362  1.00  0.00    -0.004 C 
HETATM    7  C   LIG     1      16.060  32.055  13.514  1.00  0.00     0.005 C 
ENDBRANCH   5   6
ENDBRANCH   1   5
TORSDOF 3
ENDMDL
MODEL 16
REMARK VINA RESULT:      -3.8      2.530      3.669
REMARK  3 active torsions:
REMARK  status: ('A' for Active; 'I' for Inactive)
REMARK    1  A    between atoms: C_2  and  C_3 
REMARK    2  A    between atoms: C_3  and  C_4 
REMARK    3  A    between atoms: C_4  and  C_5 
ROOT
HETATM    1  C   LIG     1      17.074  35.582  22.351  1.00  0.00     0.077 C 
ENDROOT
BRANCH   1   2
HETATM    2  C   LIG     1      16.277  35.141  21.151  1.00  0.00     0.123 C 
HETATM    3  C   LIG     1      14.997  34.372  21.302  1.00  0.00     0.091 C 
HETATM    4  O   LIG     1      16.684  35.404  20.029  1.00  0.00    -0.298 OA
ENDBRANCH   1   2
BRANCH   1   5
HETATM    5  C   LIG     1      17.051  37.111  22.484  1.00  0.00     0.007 C 
BRANCH   5   6
HETATM    6  C   LIG     1      16.447  37.579  23.817  1.00  0.00    -0.004 C 
HETATM    7  C   LIG     1      17.507  38.026  24.823  1.00  0.00     0.005 C 
ENDBRANCH   5   6
ENDBRANCH   1   5
TORSDOF 3
ENDMDL
MODEL 17
REMARK VINA RESULT:      -3.8      5.752      7.421
REMARK  3 active torsions:
REMARK  status: ('A' for Active; 'I' for Inactive)
REMARK    1  A    between atoms: C_2  and  C_3 
REMARK    2  A    between atoms: C_3  and  C_4 
REMARK    3  A    between atoms: C_4  and  C_5 
ROOT
HETATM    1  C   LIG     1      15.583  32.158  19.521  1.00  0.00     0.077 C 
ENDROOT
BRANCH   1   2
HETATM    2  C   LIG     1      14.750  32.145  18.265  1.00  0.00     0.123 C 
HETATM    3  C   LIG     1      14.943  33.172  17.189  1.00  0.00     0.091 C 
HETATM    4  O   LIG     1      13.892  31.287  18.122  1.00  0.00    -0.298 OA
ENDBRANCH   1   2
BRANCH   1   5
HETATM    5  C   LIG     1      15.034  33.181  20.525  1.00  0.00     0.007 C 
BRANCH   5   6
HETATM    6  C   LIG     1      15.871  34.468  20.573  1.00  0.00    -0.004 C 
HETATM    7  C   LIG     1      15.138  35.627  21.248  1.00  0.00     0.005 C 
ENDBRANCH   5   6
ENDBRANCH   1   5
TORSDOF 3
ENDMDL
MODEL 18
REMARK VINA RESULT:      -3.7      9.770     10.960
REMARK  3 active torsions:
REMARK  status: ('A' for Active; 'I' for Inactive)
REMARK    1  A    between atoms: C_2  and  C_3 
REMARK    2  A    between atoms: C_3  and  C_4 
REMARK    3  A    between atoms: C_4  and  C_5 
ROOT
HETATM    1  C   LIG     1      14.866  32.740  16.485  1.00  0.00     0.077 C 
ENDROOT
BRANCH   1   2
HETATM    2  C   LIG     1      13.990  31.678  17.101  1.00  0.00     0.123 C 
HETATM    3  C   LIG     1      12.973  30.934  16.287  1.00  0.00     0.091 C 
HETATM    4  O   LIG     1      14.102  31.423  18.291  1.00  0.00    -0.298 OA
ENDBRANCH   1   2
BRANCH   1   5
HETATM    5  C   LIG     1      16.059  32.103  15.760  1.00  0.00     0.007 C 
BRANCH   5   6
HETATM    6  C   LIG     1      15.910  32.143  14.231  1.00  0.00    -0.004 C 
HETATM    7  C   LIG     1      15.480  30.800  13.642  1.00  0.00     0.005 C 
ENDBRANCH   5   6
ENDBRANCH   1   5
TORSDOF 3
ENDMDL
MODEL 19
REMARK VINA RESULT:      -3.7     10.020     11.010
REMARK  3 active torsions:
REMARK  status: ('A' for Active; 'I' for Inactive)
REMARK    1  A    between atoms: C_2  and  C_3 
REMARK    2  A    between atoms: C_3  and  C_4 
REMARK    3  A    between atoms: C_4  and  C_5 
ROOT
HETATM    1  C   LIG     1      16.374  32.373  15.604  1.00  0.00     0.077 C 
ENDROOT
BRANCH   1   2
HETATM    2  C   LIG     1      15.979  32.043  14.188  1.00  0.00     0.123 C 
HETATM    3  C   LIG     1      15.366  30.720  13.835  1.00  0.00     0.091 C 
HETATM    4  O   LIG     1      16.171  32.864  13.303  1.00  0.00    -0.298 OA
ENDBRANCH   1   2
BRANCH   1   5
HETATM    5  C   LIG     1      15.207  33.036  16.351  1.00  0.00     0.007 C 
BRANCH   5   6
HETATM    6  C   LIG     1      14.466  32.057  17.273  1.00  0.00    -0.004 C 
HETATM    7  C   LIG     1      13.098  31.649  16.728  1.00  0.00     0.005 C 
ENDBRANCH   5   6
ENDBRANCH   1   5
TORSDOF 3
ENDMDL
MODEL 20
REMARK VINA RESULT:      -3.6      7.989      9.957
REMARK  3 active torsions:
REMARK  status: ('A' for Active; 'I' for Inactive)
REMARK    1  A    between atoms: C_2  and  C_3 
REMARK    2  A    between atoms: C_3  and  C_4 
REMARK    3  A    between atoms: C_4  and  C_5 
ROOT
HETATM    1  C   LIG     1      15.017  33.073  16.851  1.00  0.00     0.077 C 
ENDROOT
BRANCH   1   2
HETATM    2  C   LIG     1      14.626  32.168  17.991  1.00  0.00     0.123 C 
HETATM    3  C   LIG     1      15.287  32.270  19.334  1.00  0.00     0.091 C 
HETATM    4  O   LIG     1      13.758  31.325  17.818  1.00  0.00    -0.298 OA
ENDBRANCH   1   2
BRANCH   1   5
HETATM    5  C   LIG     1      15.453  32.250  15.631  1.00  0.00     0.007 C 
BRANCH   5   6
HETATM    6  C   LIG     1      16.974  32.264  15.422  1.00  0.00    -0.004 C 
HETATM    7  C   LIG     1      17.435  33.385  14.491  1.00  0.00     0.005 C 
ENDBRANCH   5   6
ENDBRANCH   1   5
TORSDOF 3
ENDMDL
