MODEL 1
REMARK VINA RESULT:      -6.0      0.000      0.000
REMARK  0 active torsions:
REMARK  status: ('A' for Active; 'I' for Inactive)
ROOT
HETATM    1  C   LIG     1      17.981  34.820  26.344  1.00  0.00     0.048 C 
HETATM    2  C   LIG     1      17.564  35.679  25.186  1.00  0.00    -0.061 A 
HETATM    3  C   LIG     1      17.190  35.105  23.961  1.00  0.00     0.025 A 
HETATM    4  C   LIG     1      16.803  35.920  22.890  1.00  0.00     0.011 A 
HETATM    5 BR   LIG     1      16.295  35.133  21.225  1.00  0.00    -0.051 Br
HETATM    6  C   LIG     1      16.788  37.311  23.040  1.00  0.00     0.019 A 
HETATM    7  C   LIG     1      17.160  37.887  24.257  1.00  0.00     0.002 A 
HETATM    8  C   LIG     1      17.546  37.076  25.328  1.00  0.00     0.007 A 
ENDROOT
TORSDOF 0
ENDMDL
MODEL 2
REMARK VINA RESULT:      -5.9      1.676      2.352
REMARK  0 active torsions:
REMARK  status: ('A' for Active; 'I' for Inactive)
ROOT
HETATM    1  C   LIG     1      18.323  36.243  26.932  1.00  0.00     0.048 C 
HETATM    2  C   LIG     1      17.810  36.247  25.521  1.00  0.00    -0.061 A 
HETATM    3  C   LIG     1      17.658  37.450  24.814  1.00  0.00     0.025 A 
HETATM    4  C   LIG     1      17.179  37.438  23.499  1.00  0.00     0.011 A 
HETATM    5 BR   LIG     1      16.974  39.078  22.541  1.00  0.00    -0.051 Br
HETATM    6  C   LIG     1      16.850  36.224  22.885  1.00  0.00     0.019 A 
HETATM    7  C   LIG     1      16.999  35.024  23.585  1.00  0.00     0.002 A 
HETATM    8  C   LIG     1      17.478  35.034  24.899  1.00  0.00     0.007 A 
ENDROOT
TORSDOF 0
ENDMDL
MODEL 3
REMARK VINA RESULT:      -5.8      2.921      4.319
REMARK  0 active torsions:
REMARK  status: ('A' for Active; 'I' for Inactive)
ROOT
HETATM    1  C   LIG     1      20.029  38.697  19.403  1.00  0.00     0.048 C 
HETATM    2  C   LIG     1      18.953  38.355  20.391  1.00  0.00    -0.061 A 
HETATM    3  C   LIG     1      18.342  37.091  20.383  1.00  0.00     0.025 A 
HETATM    4  C   LIG     1      17.340  36.786  21.312  1.00  0.00     0.011 A 
HETATM    5 BR   LIG     1      16.513  35.064  21.297  1.00  0.00    -0.051 Br
HETATM    6  C   LIG     1      16.944  37.744  22.252  1.00  0.00     0.019 A 
HETATM    7  C   LIG     1      17.548  39.004  22.264  1.00  0.00     0.002 A 
HETATM    8  C   LIG     1      18.549  39.310  21.338  1.00  0.00     0.007 A 
ENDROOT
TORSDOF 0
ENDMDL
MODEL 4
REMARK VINA RESULT:      -5.8      2.073      3.256
REMARK  0 active torsions:
REMARK  status: ('A' for Active; 'I' for Inactive)
ROOT
HETATM    1  C   LIG     1      16.528  35.332  20.937  1.00  0.00     0.048 C 
HETATM    2  C   LIG     1      16.794  36.033  22.238  1.00  0.00    -0.061 A 
HETATM    3  C   LIG     1      17.094  35.304  23.400  1.00  0.00     0.025 A 
HETATM    4  C   LIG     1      17.340  35.972  24.605  1.00  0.00     0.011 A 
HETATM    5 BR   LIG     1      17.748  34.976  26.183  1.00  0.00    -0.051 Br
HETATM    6  C   LIG     1      17.289  37.369  24.654  1.00  0.00     0.019 A 
HETATM    7  C   LIG     1      16.990  38.099  23.501  1.00  0.00     0.002 A 
HETATM    8  C   LIG     1      16.744  37.434  22.295  1.00  0.00     0.007 A 
ENDROOT
TORSDOF 0
ENDMDL
MODEL 5
REMARK VINA RESULT:      -5.7      2.271      3.791
REMARK  0 active torsions:
REMARK  status: ('A' for Active; 'I' for Inactive)
ROOT
HETATM    1  C   LIG     1      16.816  38.980  22.381  1.00  0.00     0.048 C 
HETATM    2  C   LIG     1      16.983  37.633  23.022  1.00  0.00    -0.061 A 
HETATM    3  C   LIG     1      17.430  37.517  24.348  1.00  0.00     0.025 A 
HETATM    4  C   LIG     1      17.581  36.254  24.933  1.00  0.00     0.011 A 
HETATM    5 BR   LIG     1      18.190  36.102  26.737  1.00  0.00    -0.051 Br
HETATM    6  C   LIG     1      17.284  35.102  24.196  1.00  0.00     0.019 A 
HETATM    7  C   LIG     1      16.839  35.212  22.876  1.00  0.00     0.002 A 
HETATM    8  C   LIG     1      16.688  36.473  22.290  1.00  0.00     0.007 A 
ENDROOT
TORSDOF 0
ENDMDL
MODEL 6
REMARK VINA RESULT:      -5.7      3.380      3.939
REMARK  0 active torsions:
REMARK  status: ('A' for Active; 'I' for Inactive)
ROOT
HETATM    1  C   LIG     1      16.611  35.061  21.291  1.00  0.00     0.048 C 
HETATM    2  C   LIG     1      17.147  36.460  21.381  1.00  0.00    -0.061 A 
HETATM    3  C   LIG     1      18.181  36.890  20.534  1.00  0.00     0.025 A 
HETATM    4  C   LIG     1      18.671  38.198  20.630  1.00  0.00     0.011 A 
HETATM    5 BR   LIG     1      20.078  38.779  19.475  1.00  0.00    -0.051 Br
HETATM    6  C   LIG     1      18.130  39.080  21.571  1.00  0.00     0.019 A 
HETATM    7  C   LIG     1      17.102  38.657  22.417  1.00  0.00     0.002 A 
HETATM    8  C   LIG     1      16.610  37.351  22.323  1.00  0.00     0.007 A 
ENDROOT
TORSDOF 0
ENDMDL
MODEL 7
REMARK VINA RESULT:      -5.5      2.825      4.510
REMARK  0 active torsions:
REMARK  status: ('A' for Active; 'I' for Inactive)
ROOT
HETATM    1  C   LIG     1      19.022  39.311  20.170  1.00  0.00     0.048 C 
HETATM    2  C   LIG     1      18.337  38.317  21.062  1.00  0.00    -0.061 A 
HETATM    3  C   LIG     1      18.124  38.598  22.422  1.00  0.00     0.025 A 
HETATM    4  C   LIG     1      17.484  37.661  23.242  1.00  0.00     0.011 A 
HETATM    5 BR   LIG     1      17.196  38.048  25.090  1.00  0.00    -0.051 Br
HETATM    6  C   LIG     1      17.053  36.442  22.707  1.00  0.00     0.019 A 
HETATM    7  C   LIG     1      17.263  36.158  21.356  1.00  0.00     0.002 A 
HETATM    8  C   LIG     1      17.903  37.092  20.534  1.00  0.00     0.007 A 
ENDROOT
TORSDOF 0
ENDMDL
MODEL 8
REMARK VINA RESULT:      -5.5      2.553      3.590
REMARK  0 active torsions:
REMARK  status: ('A' for Active; 'I' for Inactive)
ROOT
HETATM    1  C   LIG     1      16.809  37.811  24.456  1.00  0.00     0.048 C 
HETATM    2  C   LIG     1      17.202  37.427  23.059  1.00  0.00    -0.061 A 
HETATM    3  C   LIG     1      17.942  38.306  22.252  1.00  0.00     0.025 A 
HETATM    4  C   LIG     1      18.301  37.933  20.951  1.00  0.00     0.011 A 
HETATM    5 BR   LIG     1      19.309  39.132  19.857  1.00  0.00    -0.051 Br
HETATM    6  C   LIG     1      17.922  36.682  20.452  1.00  0.00     0.019 A 
HETATM    7  C   LIG     1      17.185  35.805  21.251  1.00  0.00     0.002 A 
HETATM    8  C   LIG     1      16.825  36.174  22.551  1.00  0.00     0.007 A 
ENDROOT
TORSDOF 0
ENDMDL
MODEL 9
REMARK VINA RESULT:      -5.4      3.570      5.153
REMARK  0 active torsions:
REMARK  status: ('A' for Active; 'I' for Inactive)
ROOT
HETATM    1  C   LIG     1      20.285  38.989  19.302  1.00  0.00     0.048 C 
HETATM    2  C   LIG     1      19.235  38.216  20.044  1.00  0.00    -0.061 A 
HETATM    3  C   LIG     1      18.667  38.722  21.224  1.00  0.00     0.025 A 
HETATM    4  C   LIG     1      17.688  37.990  21.906  1.00  0.00     0.011 A 
HETATM    5 BR   LIG     1      16.918  38.684  23.510  1.00  0.00    -0.051 Br
HETATM    6  C   LIG     1      17.272  36.749  21.410  1.00  0.00     0.019 A 
HETATM    7  C   LIG     1      17.834  36.240  20.237  1.00  0.00     0.002 A 
HETATM    8  C   LIG     1      18.812  36.970  19.554  1.00  0.00     0.007 A 
ENDROOT
TORSDOF 0
ENDMDL
MODEL 10
REMARK VINA RESULT:      -5.3      1.628      2.286
REMARK  0 active torsions:
REMARK  status: ('A' for Active; 'I' for Inactive)
ROOT
HETATM    1  C   LIG     1      17.327  37.942  25.330  1.00  0.00     0.048 C 
HETATM    2  C   LIG     1      17.411  37.715  23.849  1.00  0.00    -0.061 A 
HETATM    3  C   LIG     1      16.874  36.555  23.266  1.00  0.00     0.025 A 
HETATM    4  C   LIG     1      16.960  36.358  21.883  1.00  0.00     0.011 A 
HETATM    5 BR   LIG     1      16.229  34.778  21.096  1.00  0.00    -0.051 Br
HETATM    6  C   LIG     1      17.580  37.318  21.077  1.00  0.00     0.019 A 
HETATM    7  C   LIG     1      18.116  38.474  21.651  1.00  0.00     0.002 A 
HETATM    8  C   LIG     1      18.032  38.673  23.032  1.00  0.00     0.007 A 
ENDROOT
TORSDOF 0
ENDMDL
MODEL 11
REMARK VINA RESULT:      -5.0      8.984     10.466
REMARK  0 active torsions:
REMARK  status: ('A' for Active; 'I' for Inactive)
ROOT
HETATM    1  C   LIG     1      15.361  29.854  13.730  1.00  0.00     0.048 C 
HETATM    2  C   LIG     1      14.654  30.596  14.827  1.00  0.00    -0.061 A 
HETATM    3  C   LIG     1      15.195  31.776  15.363  1.00  0.00     0.025 A 
HETATM    4  C   LIG     1      14.525  32.457  16.386  1.00  0.00     0.011 A 
HETATM    5 BR   LIG     1      15.265  34.061  17.111  1.00  0.00    -0.051 Br
HETATM    6  C   LIG     1      13.311  31.963  16.876  1.00  0.00     0.019 A 
HETATM    7  C   LIG     1      12.769  30.789  16.347  1.00  0.00     0.002 A 
HETATM    8  C   LIG     1      13.437  30.107  15.325  1.00  0.00     0.007 A 
ENDROOT
TORSDOF 0
ENDMDL
MODEL 12
REMARK VINA RESULT:      -4.9      0.739      2.345
REMARK  0 active torsions:
REMARK  status: ('A' for Active; 'I' for Inactive)
ROOT
HETATM    1  C   LIG     1      17.376  38.905  25.269  1.00  0.00     0.048 C 
HETATM    2  C   LIG     1      17.329  37.455  24.882  1.00  0.00    -0.061 A 
HETATM    3  C   LIG     1      16.983  37.069  23.577  1.00  0.00     0.025 A 
HETATM    4  C   LIG     1      16.943  35.713  23.232  1.00  0.00     0.011 A 
HETATM    5 BR   LIG     1      16.471  35.193  21.455  1.00  0.00    -0.051 Br
HETATM    6  C   LIG     1      17.250  34.738  24.187  1.00  0.00     0.019 A 
HETATM    7  C   LIG     1      17.595  35.117  25.487  1.00  0.00     0.002 A 
HETATM    8  C   LIG     1      17.636  36.471  25.835  1.00  0.00     0.007 A 
ENDROOT
TORSDOF 0
ENDMDL
MODEL 13
REMARK VINA RESULT:      -4.9      9.033     10.514
REMARK  0 active torsions:
REMARK  status: ('A' for Active; 'I' for Inactive)
ROOT
HETATM    1  C   LIG     1      14.195  32.054  17.554  1.00  0.00     0.048 C 
HETATM    2  C   LIG     1      14.681  31.715  16.176  1.00  0.00    -0.061 A 
HETATM    3  C   LIG     1      15.657  32.502  15.543  1.00  0.00     0.025 A 
HETATM    4  C   LIG     1      16.101  32.174  14.256  1.00  0.00     0.011 A 
HETATM    5 BR   LIG     1      17.429  33.247  13.400  1.00  0.00    -0.051 Br
HETATM    6  C   LIG     1      15.572  31.058  13.598  1.00  0.00     0.019 A 
HETATM    7  C   LIG     1      14.600  30.273  14.222  1.00  0.00     0.002 A 
HETATM    8  C   LIG     1      14.156  30.598  15.508  1.00  0.00     0.007 A 
ENDROOT
TORSDOF 0
ENDMDL
MODEL 14
REMARK VINA RESULT:      -4.9      3.297      4.384
REMARK  0 active torsions:
REMARK  status: ('A' for Active; 'I' for Inactive)
ROOT
HETATM    1  C   LIG     1      18.321  39.673  22.410  1.00  0.00     0.048 C 
HETATM    2  C   LIG     1      18.297  38.562  21.401  1.00  0.00    -0.061 A 
HETATM    3  C   LIG     1      17.443  37.460  21.563  1.00  0.00     0.025 A 
HETATM    4  C   LIG     1      17.432  36.431  20.614  1.00  0.00     0.011 A 
HETATM    5 BR   LIG     1      16.267  34.934  20.840  1.00  0.00    -0.051 Br
HETATM    6  C   LIG     1      18.272  36.501  19.498  1.00  0.00     0.019 A 
HETATM    7  C   LIG     1      19.125  37.595  19.331  1.00  0.00     0.002 A 
HETATM    8  C   LIG     1      19.138  38.624  20.279  1.00  0.00     0.007 A 
ENDROOT
TORSDOF 0
ENDMDL
MODEL 15
REMARK VINA RESULT:      -4.8      9.396     10.953
REMARK  0 active torsions:
REMARK  status: ('A' for Active; 'I' for Inactive)
ROOT
HETATM    1  C   LIG     1      13.404  29.013  14.231  1.00  0.00     0.048 C 
HETATM    2  C   LIG     1      14.288  30.192  14.517  1.00  0.00    -0.061 A 
HETATM    3  C   LIG     1      14.220  30.862  15.749  1.00  0.00     0.025 A 
HETATM    4  C   LIG     1      15.051  31.960  16.001  1.00  0.00     0.011 A 
HETATM    5 BR   LIG     1      14.954  32.867  17.679  1.00  0.00    -0.051 Br
HETATM    6  C   LIG     1      15.954  32.391  15.023  1.00  0.00     0.019 A 
HETATM    7  C   LIG     1      16.026  31.729  13.795  1.00  0.00     0.002 A 
HETATM    8  C   LIG     1      15.197  30.632  13.541  1.00  0.00     0.007 A 
ENDROOT
TORSDOF 0
ENDMDL
MODEL 16
REMARK VINA RESULT:      -4.8      9.178     10.254
REMARK  0 active torsions:
REMARK  status: ('A' for Active; 'I' for Inactive)
ROOT
HETATM    1  C   LIG     1      16.884  32.919  15.110  1.00  0.00     0.048 C 
HETATM    2  C   LIG     1      15.629  32.198  15.508  1.00  0.00    -0.061 A 
HETATM    3  C   LIG     1      15.170  31.092  14.775  1.00  0.00     0.025 A 
HETATM    4  C   LIG     1      13.998  30.430  15.158  1.00  0.00     0.011 A 
HETATM    5 BR   LIG     1      13.379  28.925  14.158  1.00  0.00    -0.051 Br
HETATM    6  C   LIG     1      13.280  30.870  16.276  1.00  0.00     0.019 A 
HETATM    7  C   LIG     1      13.731  31.970  17.008  1.00  0.00     0.002 A 
HETATM    8  C   LIG     1      14.902  32.633  16.627  1.00  0.00     0.007 A 
ENDROOT
TORSDOF 0
ENDMDL
MODEL 17
REMARK VINA RESULT:      -4.8      9.561     10.928
REMARK  0 active torsions:
REMARK  status: ('A' for Active; 'I' for Inactive)
ROOT
HETATM    1  C   LIG     1      17.133  33.002  13.342  1.00  0.00     0.048 C 
HETATM    2  C   LIG     1      16.129  32.137  14.047  1.00  0.00    -0.061 A 
HETATM    3  C   LIG     1      15.745  32.413  15.369  1.00  0.00     0.025 A 
HETATM    4  C   LIG     1      14.807  31.597  16.014  1.00  0.00     0.011 A 
HETATM    5 BR   LIG     1      14.287  31.976  17.813  1.00  0.00    -0.051 Br
HETATM    6  C   LIG     1      14.250  30.505  15.341  1.00  0.00     0.019 A 
HETATM    7  C   LIG     1      14.629  30.226  14.025  1.00  0.00     0.002 A 
HETATM    8  C   LIG     1      15.566  31.039  13.379  1.00  0.00     0.007 A 
ENDROOT
TORSDOF 0
ENDMDL
MODEL 18
REMARK VINA RESULT:      -4.7      2.518      2.860
REMARK  0 active torsions:
REMARK  status: ('A' for Active; 'I' for Inactive)
ROOT
HETATM    1  C   LIG     1      18.560  37.339  25.879  1.00  0.00     0.048 C 
HETATM    2  C   LIG     1      17.881  37.716  24.595  1.00  0.00    -0.061 A 
HETATM    3  C   LIG     1      18.604  38.304  23.545  1.00  0.00     0.025 A 
HETATM    4  C   LIG     1      17.957  38.651  22.353  1.00  0.00     0.011 A 
HETATM    5 BR   LIG     1      18.946  39.450  20.927  1.00  0.00    -0.051 Br
HETATM    6  C   LIG     1      16.587  38.411  22.205  1.00  0.00     0.019 A 
HETATM    7  C   LIG     1      15.863  37.827  23.247  1.00  0.00     0.002 A 
HETATM    8  C   LIG     1      16.507  37.479  24.439  1.00  0.00     0.007 A 
ENDROOT
TORSDOF 0
ENDMDL
MODEL 19
REMARK VINA RESULT:      -3.8     11.899     13.286
REMARK  0 active torsions:
REMARK  status: ('A' for Active; 'I' for Inactive)
ROOT
HETATM    1  C   LIG     1      13.723  30.864  15.388  1.00  0.00     0.048 C 
HETATM    2  C   LIG     1      13.960  29.603  14.610  1.00  0.00    -0.061 A 
HETATM    3  C   LIG     1      12.884  28.807  14.184  1.00  0.00     0.025 A 
HETATM    4  C   LIG     1      13.120  27.633  13.459  1.00  0.00     0.011 A 
HETATM    5 BR   LIG     1      11.653  26.554  12.882  1.00  0.00    -0.051 Br
HETATM    6  C   LIG     1      14.431  27.251  13.155  1.00  0.00     0.019 A 
HETATM    7  C   LIG     1      15.505  28.039  13.576  1.00  0.00     0.002 A 
HETATM    8  C   LIG     1      15.272  29.212  14.301  1.00  0.00     0.007 A 
ENDROOT
TORSDOF 0
ENDMDL
MODEL 20
REMARK VINA RESULT:      -3.7      5.379      7.189
REMARK  0 active torsions:
REMARK  status: ('A' for Active; 'I' for Inactive)
ROOT
HETATM    1  C   LIG     1      14.812  32.515  16.317  1.00  0.00     0.048 C 
HETATM    2  C   LIG     1      14.944  32.638  17.807  1.00  0.00    -0.061 A 
HETATM    3  C   LIG     1      15.436  33.816  18.391  1.00  0.00     0.025 A 
HETATM    4  C   LIG     1      15.553  33.916  19.782  1.00  0.00     0.011 A 
HETATM    5 BR   LIG     1      16.222  35.522  20.572  1.00  0.00    -0.051 Br
HETATM    6  C   LIG     1      15.180  32.840  20.595  1.00  0.00     0.019 A 
HETATM    7  C   LIG     1      14.691  31.665  20.019  1.00  0.00     0.002 A 
HETATM    8  C   LIG     1      14.572  31.563  18.629  1.00  0.00     0.007 A 
ENDROOT
TORSDOF 0
ENDMDL
