MODEL 1
REMARK VINA RESULT:      -5.8      0.000      0.000
REMARK  0 active torsions:
REMARK  status: ('A' for Active; 'I' for Inactive)
ROOT
HETATM    1  C   LIG     1      17.992  34.888  26.237  1.00  0.00     0.049 C 
HETATM    2  C   LIG     1      17.528  35.890  25.223  1.00  0.00    -0.044 A 
HETATM    3  C   LIG     1      17.241  35.482  23.913  1.00  0.00     0.016 A 
HETATM    4  C   LIG     1      16.799  36.415  22.967  1.00  0.00    -0.044 A 
HETATM    5  C   LIG     1      16.529  35.996  21.552  1.00  0.00     0.049 C 
HETATM    6  C   LIG     1      16.679  37.759  23.346  1.00  0.00     0.122 A 
HETATM    7  N   LIG     1      16.963  38.137  24.621  1.00  0.00    -0.272 NA
HETATM    8  C   LIG     1      17.376  37.243  25.558  1.00  0.00     0.122 A 
ENDROOT
TORSDOF 0
ENDMDL
MODEL 2
REMARK VINA RESULT:      -5.7      0.162      3.040
REMARK  0 active torsions:
REMARK  status: ('A' for Active; 'I' for Inactive)
ROOT
HETATM    1  C   LIG     1      16.490  35.929  21.414  1.00  0.00     0.049 C 
HETATM    2  C   LIG     1      16.780  36.377  22.815  1.00  0.00    -0.044 A 
HETATM    3  C   LIG     1      17.179  35.445  23.782  1.00  0.00     0.016 A 
HETATM    4  C   LIG     1      17.459  35.863  25.089  1.00  0.00    -0.044 A 
HETATM    5  C   LIG     1      17.847  34.867  26.141  1.00  0.00     0.049 C 
HETATM    6  C   LIG     1      17.303  37.218  25.414  1.00  0.00     0.122 A 
HETATM    7  N   LIG     1      16.914  38.108  24.463  1.00  0.00    -0.272 NA
HETATM    8  C   LIG     1      16.656  37.724  23.185  1.00  0.00     0.122 A 
ENDROOT
TORSDOF 0
ENDMDL
MODEL 3
REMARK VINA RESULT:      -5.4      1.433      3.646
REMARK  0 active torsions:
REMARK  status: ('A' for Active; 'I' for Inactive)
ROOT
HETATM    1  C   LIG     1      16.874  38.808  22.747  1.00  0.00     0.049 C 
HETATM    2  C   LIG     1      17.068  37.494  23.443  1.00  0.00    -0.044 A 
HETATM    3  C   LIG     1      17.535  37.461  24.763  1.00  0.00     0.016 A 
HETATM    4  C   LIG     1      17.708  36.234  25.418  1.00  0.00    -0.044 A 
HETATM    5  C   LIG     1      18.247  36.186  26.816  1.00  0.00     0.049 C 
HETATM    6  C   LIG     1      17.435  35.050  24.719  1.00  0.00     0.122 A 
HETATM    7  N   LIG     1      16.984  35.101  23.437  1.00  0.00    -0.272 NA
HETATM    8  C   LIG     1      16.792  36.282  22.792  1.00  0.00     0.122 A 
ENDROOT
TORSDOF 0
ENDMDL
MODEL 4
REMARK VINA RESULT:      -5.4      3.398      5.095
REMARK  0 active torsions:
REMARK  status: ('A' for Active; 'I' for Inactive)
ROOT
HETATM    1  C   LIG     1      20.328  38.974  19.299  1.00  0.00     0.049 C 
HETATM    2  C   LIG     1      19.247  38.207  20.000  1.00  0.00    -0.044 A 
HETATM    3  C   LIG     1      18.598  38.763  21.111  1.00  0.00     0.016 A 
HETATM    4  C   LIG     1      17.582  38.052  21.762  1.00  0.00    -0.044 A 
HETATM    5  C   LIG     1      16.910  38.621  22.975  1.00  0.00     0.049 C 
HETATM    6  C   LIG     1      17.251  36.770  21.301  1.00  0.00     0.122 A 
HETATM    7  N   LIG     1      17.893  36.245  20.222  1.00  0.00    -0.272 NA
HETATM    8  C   LIG     1      18.868  36.928  19.567  1.00  0.00     0.122 A 
ENDROOT
TORSDOF 0
ENDMDL
MODEL 5
REMARK VINA RESULT:      -5.4      3.437      4.664
REMARK  0 active torsions:
REMARK  status: ('A' for Active; 'I' for Inactive)
ROOT
HETATM    1  C   LIG     1      17.024  38.807  22.938  1.00  0.00     0.049 C 
HETATM    2  C   LIG     1      17.684  38.148  21.764  1.00  0.00    -0.044 A 
HETATM    3  C   LIG     1      18.702  38.812  21.067  1.00  0.00     0.016 A 
HETATM    4  C   LIG     1      19.326  38.195  19.976  1.00  0.00    -0.044 A 
HETATM    5  C   LIG     1      20.388  38.913  19.198  1.00  0.00     0.049 C 
HETATM    6  C   LIG     1      18.893  36.921  19.580  1.00  0.00     0.122 A 
HETATM    7  N   LIG     1      17.903  36.293  20.267  1.00  0.00    -0.272 NA
HETATM    8  C   LIG     1      17.298  36.868  21.340  1.00  0.00     0.122 A 
ENDROOT
TORSDOF 0
ENDMDL
MODEL 6
REMARK VINA RESULT:      -5.2      2.206      3.126
REMARK  0 active torsions:
REMARK  status: ('A' for Active; 'I' for Inactive)
ROOT
HETATM    1  C   LIG     1      16.574  35.088  21.999  1.00  0.00     0.049 C 
HETATM    2  C   LIG     1      16.870  36.548  22.173  1.00  0.00    -0.044 A 
HETATM    3  C   LIG     1      17.697  37.211  21.258  1.00  0.00     0.016 A 
HETATM    4  C   LIG     1      17.967  38.577  21.414  1.00  0.00    -0.044 A 
HETATM    5  C   LIG     1      18.884  39.286  20.463  1.00  0.00     0.049 C 
HETATM    6  C   LIG     1      17.422  39.253  22.515  1.00  0.00     0.122 A 
HETATM    7  N   LIG     1      16.623  38.592  23.395  1.00  0.00    -0.272 NA
HETATM    8  C   LIG     1      16.334  37.272  23.249  1.00  0.00     0.122 A 
ENDROOT
TORSDOF 0
ENDMDL
MODEL 7
REMARK VINA RESULT:      -5.2      2.771      4.171
REMARK  0 active torsions:
REMARK  status: ('A' for Active; 'I' for Inactive)
ROOT
HETATM    1  C   LIG     1      19.847  38.930  19.636  1.00  0.00     0.049 C 
HETATM    2  C   LIG     1      18.794  38.446  20.589  1.00  0.00    -0.044 A 
HETATM    3  C   LIG     1      18.289  37.144  20.475  1.00  0.00     0.016 A 
HETATM    4  C   LIG     1      17.312  36.688  21.369  1.00  0.00    -0.044 A 
HETATM    5  C   LIG     1      16.736  35.310  21.230  1.00  0.00     0.049 C 
HETATM    6  C   LIG     1      16.833  37.564  22.353  1.00  0.00     0.122 A 
HETATM    7  N   LIG     1      17.333  38.825  22.447  1.00  0.00    -0.272 NA
HETATM    8  C   LIG     1      18.295  39.279  21.600  1.00  0.00     0.122 A 
ENDROOT
TORSDOF 0
ENDMDL
MODEL 8
REMARK VINA RESULT:      -4.9      1.959      3.411
REMARK  0 active torsions:
REMARK  status: ('A' for Active; 'I' for Inactive)
ROOT
HETATM    1  C   LIG     1      16.447  34.847  21.421  1.00  0.00     0.049 C 
HETATM    2  C   LIG     1      16.980  36.158  21.918  1.00  0.00    -0.044 A 
HETATM    3  C   LIG     1      16.887  36.483  23.278  1.00  0.00     0.016 A 
HETATM    4  C   LIG     1      17.391  37.703  23.746  1.00  0.00    -0.044 A 
HETATM    5  C   LIG     1      17.260  38.078  25.192  1.00  0.00     0.049 C 
HETATM    6  C   LIG     1      17.960  38.597  22.827  1.00  0.00     0.122 A 
HETATM    7  N   LIG     1      18.040  38.265  21.511  1.00  0.00    -0.272 NA
HETATM    8  C   LIG     1      17.573  37.078  21.042  1.00  0.00     0.122 A 
ENDROOT
TORSDOF 0
ENDMDL
MODEL 9
REMARK VINA RESULT:      -4.8      9.132     11.297
REMARK  0 active torsions:
REMARK  status: ('A' for Active; 'I' for Inactive)
ROOT
HETATM    1  C   LIG     1      13.328  29.051  14.302  1.00  0.00     0.049 C 
HETATM    2  C   LIG     1      14.300  30.177  14.493  1.00  0.00    -0.044 A 
HETATM    3  C   LIG     1      14.240  30.968  15.648  1.00  0.00     0.016 A 
HETATM    4  C   LIG     1      15.152  32.015  15.833  1.00  0.00    -0.044 A 
HETATM    5  C   LIG     1      15.071  32.893  17.046  1.00  0.00     0.049 C 
HETATM    6  C   LIG     1      16.100  32.271  14.831  1.00  0.00     0.122 A 
HETATM    7  N   LIG     1      16.142  31.494  13.716  1.00  0.00    -0.272 NA
HETATM    8  C   LIG     1      15.277  30.462  13.529  1.00  0.00     0.122 A 
ENDROOT
TORSDOF 0
ENDMDL
MODEL 10
REMARK VINA RESULT:      -4.8      9.189     11.150
REMARK  0 active torsions:
REMARK  status: ('A' for Active; 'I' for Inactive)
ROOT
HETATM    1  C   LIG     1      14.788  32.629  17.197  1.00  0.00     0.049 C 
HETATM    2  C   LIG     1      14.943  31.841  15.930  1.00  0.00    -0.044 A 
HETATM    3  C   LIG     1      14.065  30.786  15.648  1.00  0.00     0.016 A 
HETATM    4  C   LIG     1      14.202  30.055  14.461  1.00  0.00    -0.044 A 
HETATM    5  C   LIG     1      13.293  28.898  14.169  1.00  0.00     0.049 C 
HETATM    6  C   LIG     1      15.247  30.378  13.583  1.00  0.00     0.122 A 
HETATM    7  N   LIG     1      16.090  31.404  13.875  1.00  0.00    -0.272 NA
HETATM    8  C   LIG     1      15.961  32.137  15.012  1.00  0.00     0.122 A 
ENDROOT
TORSDOF 0
ENDMDL
MODEL 11
REMARK VINA RESULT:      -4.7      2.676      3.594
REMARK  0 active torsions:
REMARK  status: ('A' for Active; 'I' for Inactive)
ROOT
HETATM    1  C   LIG     1      16.356  37.426  23.514  1.00  0.00     0.049 C 
HETATM    2  C   LIG     1      17.287  37.951  22.461  1.00  0.00    -0.044 A 
HETATM    3  C   LIG     1      17.653  37.139  21.380  1.00  0.00     0.016 A 
HETATM    4  C   LIG     1      18.515  37.630  20.391  1.00  0.00    -0.044 A 
HETATM    5  C   LIG     1      18.944  36.756  19.251  1.00  0.00     0.049 C 
HETATM    6  C   LIG     1      19.024  38.930  20.522  1.00  0.00     0.122 A 
HETATM    7  N   LIG     1      18.660  39.703  21.580  1.00  0.00    -0.272 NA
HETATM    8  C   LIG     1      17.810  39.250  22.539  1.00  0.00     0.122 A 
ENDROOT
TORSDOF 0
ENDMDL
MODEL 12
REMARK VINA RESULT:      -4.7      2.104      2.694
REMARK  0 active torsions:
REMARK  status: ('A' for Active; 'I' for Inactive)
ROOT
HETATM    1  C   LIG     1      16.971  38.080  24.827  1.00  0.00     0.049 C 
HETATM    2  C   LIG     1      17.229  37.681  23.405  1.00  0.00    -0.044 A 
HETATM    3  C   LIG     1      16.740  36.462  22.918  1.00  0.00     0.016 A 
HETATM    4  C   LIG     1      16.973  36.091  21.587  1.00  0.00    -0.044 A 
HETATM    5  C   LIG     1      16.489  34.771  21.067  1.00  0.00     0.049 C 
HETATM    6  C   LIG     1      17.727  36.945  20.769  1.00  0.00     0.122 A 
HETATM    7  N   LIG     1      18.195  38.123  21.260  1.00  0.00    -0.272 NA
HETATM    8  C   LIG     1      17.963  38.508  22.542  1.00  0.00     0.122 A 
ENDROOT
TORSDOF 0
ENDMDL
MODEL 13
REMARK VINA RESULT:      -4.7      8.912     10.416
REMARK  0 active torsions:
REMARK  status: ('A' for Active; 'I' for Inactive)
ROOT
HETATM    1  C   LIG     1      17.146  32.994  14.874  1.00  0.00     0.049 C 
HETATM    2  C   LIG     1      15.922  32.297  15.391  1.00  0.00    -0.044 A 
HETATM    3  C   LIG     1      15.383  31.212  14.688  1.00  0.00     0.016 A 
HETATM    4  C   LIG     1      14.245  30.554  15.174  1.00  0.00    -0.044 A 
HETATM    5  C   LIG     1      13.636  29.418  14.408  1.00  0.00     0.049 C 
HETATM    6  C   LIG     1      13.646  31.020  16.352  1.00  0.00     0.122 A 
HETATM    7  N   LIG     1      14.183  32.076  17.020  1.00  0.00    -0.272 NA
HETATM    8  C   LIG     1      15.296  32.715  16.574  1.00  0.00     0.122 A 
ENDROOT
TORSDOF 0
ENDMDL
MODEL 14
REMARK VINA RESULT:      -4.4      9.927     11.153
REMARK  0 active torsions:
REMARK  status: ('A' for Active; 'I' for Inactive)
ROOT
HETATM    1  C   LIG     1      17.230  33.128  14.129  1.00  0.00     0.049 C 
HETATM    2  C   LIG     1      16.127  32.156  14.424  1.00  0.00    -0.044 A 
HETATM    3  C   LIG     1      15.462  32.203  15.656  1.00  0.00     0.016 A 
HETATM    4  C   LIG     1      14.425  31.302  15.931  1.00  0.00    -0.044 A 
HETATM    5  C   LIG     1      13.734  31.317  17.261  1.00  0.00     0.049 C 
HETATM    6  C   LIG     1      14.091  30.340  14.966  1.00  0.00     0.122 A 
HETATM    7  N   LIG     1      14.749  30.309  13.777  1.00  0.00    -0.272 NA
HETATM    8  C   LIG     1      15.745  31.187  13.485  1.00  0.00     0.122 A 
ENDROOT
TORSDOF 0
ENDMDL
MODEL 15
REMARK VINA RESULT:      -4.4     10.329     11.090
REMARK  0 active torsions:
REMARK  status: ('A' for Active; 'I' for Inactive)
ROOT
HETATM    1  C   LIG     1      13.290  30.786  16.731  1.00  0.00     0.049 C 
HETATM    2  C   LIG     1      14.272  31.013  15.621  1.00  0.00    -0.044 A 
HETATM    3  C   LIG     1      15.228  32.032  15.726  1.00  0.00     0.016 A 
HETATM    4  C   LIG     1      16.151  32.239  14.693  1.00  0.00    -0.044 A 
HETATM    5  C   LIG     1      17.152  33.353  14.778  1.00  0.00     0.049 C 
HETATM    6  C   LIG     1      16.080  31.432  13.549  1.00  0.00     0.122 A 
HETATM    7  N   LIG     1      15.145  30.449  13.464  1.00  0.00    -0.272 NA
HETATM    8  C   LIG     1      14.252  30.221  14.464  1.00  0.00     0.122 A 
ENDROOT
TORSDOF 0
ENDMDL
MODEL 16
REMARK VINA RESULT:      -4.4      8.430     10.646
REMARK  0 active torsions:
REMARK  status: ('A' for Active; 'I' for Inactive)
ROOT
HETATM    1  C   LIG     1      14.482  29.551  13.969  1.00  0.00     0.049 C 
HETATM    2  C   LIG     1      15.039  30.827  14.528  1.00  0.00    -0.044 A 
HETATM    3  C   LIG     1      14.755  31.198  15.848  1.00  0.00     0.016 A 
HETATM    4  C   LIG     1      15.281  32.385  16.375  1.00  0.00    -0.044 A 
HETATM    5  C   LIG     1      14.950  32.811  17.774  1.00  0.00     0.049 C 
HETATM    6  C   LIG     1      16.066  33.201  15.549  1.00  0.00     0.122 A 
HETATM    7  N   LIG     1      16.330  32.826  14.269  1.00  0.00    -0.272 NA
HETATM    8  C   LIG     1      15.843  31.669  13.747  1.00  0.00     0.122 A 
ENDROOT
TORSDOF 0
ENDMDL
MODEL 17
REMARK VINA RESULT:      -4.3      8.261     10.216
REMARK  0 active torsions:
REMARK  status: ('A' for Active; 'I' for Inactive)
ROOT
HETATM    1  C   LIG     1      15.249  33.488  17.668  1.00  0.00     0.049 C 
HETATM    2  C   LIG     1      14.724  32.363  16.826  1.00  0.00    -0.044 A 
HETATM    3  C   LIG     1      15.328  32.064  15.598  1.00  0.00     0.016 A 
HETATM    4  C   LIG     1      14.845  31.008  14.815  1.00  0.00    -0.044 A 
HETATM    5  C   LIG     1      15.458  30.705  13.480  1.00  0.00     0.049 C 
HETATM    6  C   LIG     1      13.733  30.283  15.268  1.00  0.00     0.122 A 
HETATM    7  N   LIG     1      13.158  30.589  16.461  1.00  0.00    -0.272 NA
HETATM    8  C   LIG     1      13.625  31.598  17.244  1.00  0.00     0.122 A 
ENDROOT
TORSDOF 0
ENDMDL
MODEL 18
REMARK VINA RESULT:      -4.2      9.488     10.825
REMARK  0 active torsions:
REMARK  status: ('A' for Active; 'I' for Inactive)
ROOT
HETATM    1  C   LIG     1      18.402  34.009  12.388  1.00  0.00     0.049 C 
HETATM    2  C   LIG     1      17.525  33.571  13.523  1.00  0.00    -0.044 A 
HETATM    3  C   LIG     1      16.749  32.411  13.403  1.00  0.00     0.016 A 
HETATM    4  C   LIG     1      15.935  31.995  14.465  1.00  0.00    -0.044 A 
HETATM    5  C   LIG     1      15.070  30.778  14.332  1.00  0.00     0.049 C 
HETATM    6  C   LIG     1      15.892  32.776  15.630  1.00  0.00     0.122 A 
HETATM    7  N   LIG     1      16.650  33.900  15.727  1.00  0.00    -0.272 NA
HETATM    8  C   LIG     1      17.460  34.308  14.714  1.00  0.00     0.122 A 
ENDROOT
TORSDOF 0
ENDMDL
MODEL 19
REMARK VINA RESULT:      -4.2      7.095      8.544
REMARK  0 active torsions:
REMARK  status: ('A' for Active; 'I' for Inactive)
ROOT
HETATM    1  C   LIG     1      14.657  31.595  20.224  1.00  0.00     0.049 C 
HETATM    2  C   LIG     1      14.701  31.923  18.761  1.00  0.00    -0.044 A 
HETATM    3  C   LIG     1      14.020  31.116  17.840  1.00  0.00     0.016 A 
HETATM    4  C   LIG     1      14.054  31.426  16.474  1.00  0.00    -0.044 A 
HETATM    5  C   LIG     1      13.362  30.546  15.476  1.00  0.00     0.049 C 
HETATM    6  C   LIG     1      14.802  32.533  16.050  1.00  0.00     0.122 A 
HETATM    7  N   LIG     1      15.458  33.303  16.958  1.00  0.00    -0.272 NA
HETATM    8  C   LIG     1      15.422  33.029  18.289  1.00  0.00     0.122 A 
ENDROOT
TORSDOF 0
ENDMDL
MODEL 20
REMARK VINA RESULT:      -3.9     16.407     16.983
REMARK  0 active torsions:
REMARK  status: ('A' for Active; 'I' for Inactive)
ROOT
HETATM    1  C   LIG     1       4.691  39.282  36.387  1.00  0.00     0.049 C 
HETATM    2  C   LIG     1       4.364  40.190  35.238  1.00  0.00    -0.044 A 
HETATM    3  C   LIG     1       3.936  39.651  34.018  1.00  0.00     0.016 A 
HETATM    4  C   LIG     1       3.621  40.497  32.947  1.00  0.00    -0.044 A 
HETATM    5  C   LIG     1       3.202  39.929  31.624  1.00  0.00     0.049 C 
HETATM    6  C   LIG     1       3.771  41.881  33.111  1.00  0.00     0.122 A 
HETATM    7  N   LIG     1       4.189  42.386  34.303  1.00  0.00    -0.272 NA
HETATM    8  C   LIG     1       4.481  41.582  35.359  1.00  0.00     0.122 A 
ENDROOT
TORSDOF 0
ENDMDL
