REMARK  0 active torsions:
REMARK  status: ('A' for Active; 'I' for Inactive)
ROOT
HETATM    1  C   LIG     1       2.511  -0.716  -0.054  1.00  0.00     0.049 C 
HETATM    2  C   LIG     1       1.215   0.029   0.067  1.00  0.00    -0.044 A 
HETATM    3  C   LIG     1       0.000  -0.639  -0.133  1.00  0.00     0.016 A 
HETATM    4  C   LIG     1      -1.212   0.053  -0.012  1.00  0.00    -0.044 A 
HETATM    5  C   LIG     1      -2.516  -0.643  -0.264  1.00  0.00     0.049 C 
HETATM    6  C   LIG     1      -1.182   1.424   0.281  1.00  0.00     0.122 A 
HETATM    7  N   LIG     1       0.007   2.056   0.470  1.00  0.00    -0.272 NA
HETATM    8  C   LIG     1       1.192   1.397   0.375  1.00  0.00     0.122 A 
ENDROOT
TORSDOF 0
