MODEL 1
REMARK VINA RESULT:      -5.8      0.000      0.000
REMARK  0 active torsions:
REMARK  status: ('A' for Active; 'I' for Inactive)
ROOT
HETATM    1  I   LIG     1      16.740  38.160  22.734  1.00  0.00    -0.045 I 
HETATM    2  C   LIG     1      17.368  36.952  24.345  1.00  0.00     0.006 A 
HETATM    3  C   LIG     1      17.099  35.578  24.337  1.00  0.00     0.018 A 
HETATM    4  C   LIG     1      17.516  34.776  25.405  1.00  0.00     0.001 A 
HETATM    5  C   LIG     1      18.202  35.347  26.482  1.00  0.00     0.000 A 
HETATM    6  C   LIG     1      18.471  36.720  26.491  1.00  0.00     0.001 A 
HETATM    7  C   LIG     1      18.055  37.522  25.423  1.00  0.00     0.018 A 
ENDROOT
TORSDOF 0
ENDMDL
MODEL 2
REMARK VINA RESULT:      -5.8      0.034      1.832
REMARK  0 active torsions:
REMARK  status: ('A' for Active; 'I' for Inactive)
ROOT
HETATM    1  I   LIG     1      16.783  38.205  22.739  1.00  0.00    -0.045 I 
HETATM    2  C   LIG     1      17.386  36.970  24.340  1.00  0.00     0.006 A 
HETATM    3  C   LIG     1      18.066  37.521  25.432  1.00  0.00     0.018 A 
HETATM    4  C   LIG     1      18.465  36.702  26.494  1.00  0.00     0.001 A 
HETATM    5  C   LIG     1      18.184  35.332  26.465  1.00  0.00     0.000 A 
HETATM    6  C   LIG     1      17.505  34.780  25.373  1.00  0.00     0.001 A 
HETATM    7  C   LIG     1      17.105  35.599  24.312  1.00  0.00     0.018 A 
ENDROOT
TORSDOF 0
ENDMDL
MODEL 3
REMARK VINA RESULT:      -5.6      1.054      2.053
REMARK  0 active torsions:
REMARK  status: ('A' for Active; 'I' for Inactive)
ROOT
HETATM    1  I   LIG     1      16.737  35.847  22.061  1.00  0.00    -0.045 I 
HETATM    2  C   LIG     1      17.310  36.022  24.084  1.00  0.00     0.006 A 
HETATM    3  C   LIG     1      17.596  37.281  24.624  1.00  0.00     0.018 A 
HETATM    4  C   LIG     1      17.976  37.398  25.965  1.00  0.00     0.001 A 
HETATM    5  C   LIG     1      18.068  36.256  26.768  1.00  0.00     0.000 A 
HETATM    6  C   LIG     1      17.782  34.997  26.229  1.00  0.00     0.001 A 
HETATM    7  C   LIG     1      17.402  34.880  24.887  1.00  0.00     0.018 A 
ENDROOT
TORSDOF 0
ENDMDL
MODEL 4
REMARK VINA RESULT:      -5.5      4.321      5.510
REMARK  0 active torsions:
REMARK  status: ('A' for Active; 'I' for Inactive)
ROOT
HETATM    1  I   LIG     1      16.527  35.417  21.507  1.00  0.00    -0.045 I 
HETATM    2  C   LIG     1      17.797  37.004  20.941  1.00  0.00     0.006 A 
HETATM    3  C   LIG     1      17.745  38.222  21.628  1.00  0.00     0.018 A 
HETATM    4  C   LIG     1      18.586  39.275  21.253  1.00  0.00     0.001 A 
HETATM    5  C   LIG     1      19.482  39.109  20.190  1.00  0.00     0.000 A 
HETATM    6  C   LIG     1      19.534  37.892  19.503  1.00  0.00     0.001 A 
HETATM    7  C   LIG     1      18.692  36.839  19.878  1.00  0.00     0.018 A 
ENDROOT
TORSDOF 0
ENDMDL
MODEL 5
REMARK VINA RESULT:      -5.2      4.160      5.271
REMARK  0 active torsions:
REMARK  status: ('A' for Active; 'I' for Inactive)
ROOT
HETATM    1  I   LIG     1      16.672  37.694  23.327  1.00  0.00    -0.045 I 
HETATM    2  C   LIG     1      17.853  37.941  21.596  1.00  0.00     0.006 A 
HETATM    3  C   LIG     1      18.041  36.868  20.717  1.00  0.00     0.018 A 
HETATM    4  C   LIG     1      18.824  37.032  19.569  1.00  0.00     0.001 A 
HETATM    5  C   LIG     1      19.419  38.268  19.299  1.00  0.00     0.000 A 
HETATM    6  C   LIG     1      19.233  39.341  20.177  1.00  0.00     0.001 A 
HETATM    7  C   LIG     1      18.450  39.178  21.325  1.00  0.00     0.018 A 
ENDROOT
TORSDOF 0
ENDMDL
MODEL 6
REMARK VINA RESULT:      -5.0      2.339      3.408
REMARK  0 active torsions:
REMARK  status: ('A' for Active; 'I' for Inactive)
ROOT
HETATM    1  I   LIG     1      18.126  36.159  26.360  1.00  0.00    -0.045 I 
HETATM    2  C   LIG     1      17.237  36.285  24.451  1.00  0.00     0.006 A 
HETATM    3  C   LIG     1      17.153  35.146  23.641  1.00  0.00     0.018 A 
HETATM    4  C   LIG     1      16.563  35.229  22.375  1.00  0.00     0.001 A 
HETATM    5  C   LIG     1      16.056  36.450  21.919  1.00  0.00     0.000 A 
HETATM    6  C   LIG     1      16.139  37.589  22.728  1.00  0.00     0.001 A 
HETATM    7  C   LIG     1      16.729  37.506  23.994  1.00  0.00     0.018 A 
ENDROOT
TORSDOF 0
ENDMDL
MODEL 7
REMARK VINA RESULT:      -4.9      3.735      4.525
REMARK  0 active torsions:
REMARK  status: ('A' for Active; 'I' for Inactive)
ROOT
HETATM    1  I   LIG     1      19.762  38.698  19.544  1.00  0.00    -0.045 I 
HETATM    2  C   LIG     1      18.257  38.046  20.870  1.00  0.00     0.006 A 
HETATM    3  C   LIG     1      17.681  38.946  21.773  1.00  0.00     0.018 A 
HETATM    4  C   LIG     1      16.682  38.514  22.653  1.00  0.00     0.001 A 
HETATM    5  C   LIG     1      16.259  37.181  22.630  1.00  0.00     0.000 A 
HETATM    6  C   LIG     1      16.834  36.280  21.727  1.00  0.00     0.001 A 
HETATM    7  C   LIG     1      17.832  36.712  20.847  1.00  0.00     0.018 A 
ENDROOT
TORSDOF 0
ENDMDL
MODEL 8
REMARK VINA RESULT:      -4.6     10.098     11.283
REMARK  0 active torsions:
REMARK  status: ('A' for Active; 'I' for Inactive)
ROOT
HETATM    1  I   LIG     1      17.214  32.864  14.881  1.00  0.00    -0.045 I 
HETATM    2  C   LIG     1      15.409  31.926  15.441  1.00  0.00     0.006 A 
HETATM    3  C   LIG     1      14.706  32.374  16.566  1.00  0.00     0.018 A 
HETATM    4  C   LIG     1      13.509  31.752  16.938  1.00  0.00     0.001 A 
HETATM    5  C   LIG     1      13.014  30.683  16.185  1.00  0.00     0.000 A 
HETATM    6  C   LIG     1      13.715  30.234  15.060  1.00  0.00     0.001 A 
HETATM    7  C   LIG     1      14.912  30.856  14.688  1.00  0.00     0.018 A 
ENDROOT
TORSDOF 0
ENDMDL
MODEL 9
REMARK VINA RESULT:      -4.3     10.898     12.099
REMARK  0 active torsions:
REMARK  status: ('A' for Active; 'I' for Inactive)
ROOT
HETATM    1  I   LIG     1      14.941  33.029  17.062  1.00  0.00    -0.045 I 
HETATM    2  C   LIG     1      14.598  31.437  15.721  1.00  0.00     0.006 A 
HETATM    3  C   LIG     1      13.392  30.726  15.771  1.00  0.00     0.018 A 
HETATM    4  C   LIG     1      13.164  29.671  14.882  1.00  0.00     0.001 A 
HETATM    5  C   LIG     1      14.141  29.325  13.942  1.00  0.00     0.000 A 
HETATM    6  C   LIG     1      15.346  30.034  13.891  1.00  0.00     0.001 A 
HETATM    7  C   LIG     1      15.574  31.090  14.780  1.00  0.00     0.018 A 
ENDROOT
TORSDOF 0
ENDMDL
MODEL 10
REMARK VINA RESULT:      -4.2     10.205     11.145
REMARK  0 active torsions:
REMARK  status: ('A' for Active; 'I' for Inactive)
ROOT
HETATM    1  I   LIG     1      14.986  29.230  13.877  1.00  0.00    -0.045 I 
HETATM    2  C   LIG     1      14.717  30.835  15.219  1.00  0.00     0.006 A 
HETATM    3  C   LIG     1      13.599  30.865  16.061  1.00  0.00     0.018 A 
HETATM    4  C   LIG     1      13.420  31.930  16.951  1.00  0.00     0.001 A 
HETATM    5  C   LIG     1      14.359  32.965  17.001  1.00  0.00     0.000 A 
HETATM    6  C   LIG     1      15.477  32.936  16.160  1.00  0.00     0.001 A 
HETATM    7  C   LIG     1      15.656  31.871  15.270  1.00  0.00     0.018 A 
ENDROOT
TORSDOF 0
ENDMDL
MODEL 11
REMARK VINA RESULT:      -3.9      2.235      3.256
REMARK  0 active torsions:
REMARK  status: ('A' for Active; 'I' for Inactive)
ROOT
HETATM    1  I   LIG     1      18.547  39.184  20.706  1.00  0.00    -0.045 I 
HETATM    2  C   LIG     1      17.707  37.828  22.087  1.00  0.00     0.006 A 
HETATM    3  C   LIG     1      17.339  38.266  23.364  1.00  0.00     0.018 A 
HETATM    4  C   LIG     1      16.782  37.367  24.280  1.00  0.00     0.001 A 
HETATM    5  C   LIG     1      16.591  36.029  23.919  1.00  0.00     0.000 A 
HETATM    6  C   LIG     1      16.958  35.590  22.642  1.00  0.00     0.001 A 
HETATM    7  C   LIG     1      17.516  36.490  21.726  1.00  0.00     0.018 A 
ENDROOT
TORSDOF 0
ENDMDL
MODEL 12
REMARK VINA RESULT:      -3.4     10.179     11.332
REMARK  0 active torsions:
REMARK  status: ('A' for Active; 'I' for Inactive)
ROOT
HETATM    1  I   LIG     1      14.283  31.956  17.411  1.00  0.00    -0.045 I 
HETATM    2  C   LIG     1      15.451  32.249  15.679  1.00  0.00     0.006 A 
HETATM    3  C   LIG     1      15.232  31.459  14.544  1.00  0.00     0.018 A 
HETATM    4  C   LIG     1      16.006  31.653  13.395  1.00  0.00     0.001 A 
HETATM    5  C   LIG     1      17.000  32.638  13.380  1.00  0.00     0.000 A 
HETATM    6  C   LIG     1      17.219  33.428  14.513  1.00  0.00     0.001 A 
HETATM    7  C   LIG     1      16.445  33.234  15.662  1.00  0.00     0.018 A 
ENDROOT
TORSDOF 0
ENDMDL
MODEL 13
REMARK VINA RESULT:      -3.3     16.814     17.729
REMARK  0 active torsions:
REMARK  status: ('A' for Active; 'I' for Inactive)
ROOT
HETATM    1  I   LIG     1      23.191  22.964  37.786  1.00  0.00    -0.045 I 
HETATM    2  C   LIG     1      21.869  22.921  36.142  1.00  0.00     0.006 A 
HETATM    3  C   LIG     1      20.610  22.323  36.270  1.00  0.00     0.018 A 
HETATM    4  C   LIG     1      19.734  22.294  35.180  1.00  0.00     0.001 A 
HETATM    5  C   LIG     1      20.115  22.864  33.961  1.00  0.00     0.000 A 
HETATM    6  C   LIG     1      21.374  23.462  33.832  1.00  0.00     0.001 A 
HETATM    7  C   LIG     1      22.250  23.491  34.922  1.00  0.00     0.018 A 
ENDROOT
TORSDOF 0
ENDMDL
MODEL 14
REMARK VINA RESULT:      -3.2     14.940     15.863
REMARK  0 active torsions:
REMARK  status: ('A' for Active; 'I' for Inactive)
ROOT
HETATM    1  I   LIG     1      28.809  30.487  33.666  1.00  0.00    -0.045 I 
HETATM    2  C   LIG     1      27.867  31.073  35.461  1.00  0.00     0.006 A 
HETATM    3  C   LIG     1      26.471  31.045  35.561  1.00  0.00     0.018 A 
HETATM    4  C   LIG     1      25.846  31.434  36.751  1.00  0.00     0.001 A 
HETATM    5  C   LIG     1      26.616  31.850  37.842  1.00  0.00     0.000 A 
HETATM    6  C   LIG     1      28.012  31.878  37.743  1.00  0.00     0.001 A 
HETATM    7  C   LIG     1      28.637  31.489  36.553  1.00  0.00     0.018 A 
ENDROOT
TORSDOF 0
ENDMDL
MODEL 15
REMARK VINA RESULT:      -3.2     13.122     13.484
REMARK  0 active torsions:
REMARK  status: ('A' for Active; 'I' for Inactive)
ROOT
HETATM    1  I   LIG     1      30.684  38.945  16.075  1.00  0.00    -0.045 I 
HETATM    2  C   LIG     1      29.561  39.046  17.858  1.00  0.00     0.006 A 
HETATM    3  C   LIG     1      28.367  38.324  17.976  1.00  0.00     0.018 A 
HETATM    4  C   LIG     1      27.622  38.390  19.158  1.00  0.00     0.001 A 
HETATM    5  C   LIG     1      28.070  39.178  20.224  1.00  0.00     0.000 A 
HETATM    6  C   LIG     1      29.263  39.900  20.107  1.00  0.00     0.001 A 
HETATM    7  C   LIG     1      30.008  39.834  18.925  1.00  0.00     0.018 A 
ENDROOT
TORSDOF 0
ENDMDL
MODEL 16
REMARK VINA RESULT:      -3.1     15.186     16.120
REMARK  0 active torsions:
REMARK  status: ('A' for Active; 'I' for Inactive)
ROOT
HETATM    1  I   LIG     1      29.743  32.113  38.128  1.00  0.00    -0.045 I 
HETATM    2  C   LIG     1      28.197  31.509  36.826  1.00  0.00     0.006 A 
HETATM    3  C   LIG     1      28.494  31.145  35.507  1.00  0.00     0.018 A 
HETATM    4  C   LIG     1      27.470  30.744  34.643  1.00  0.00     0.001 A 
HETATM    5  C   LIG     1      26.147  30.706  35.097  1.00  0.00     0.000 A 
HETATM    6  C   LIG     1      25.849  31.069  36.415  1.00  0.00     0.001 A 
HETATM    7  C   LIG     1      26.874  31.470  37.279  1.00  0.00     0.018 A 
ENDROOT
TORSDOF 0
ENDMDL
MODEL 17
REMARK VINA RESULT:      -3.1      6.494      7.645
REMARK  0 active torsions:
REMARK  status: ('A' for Active; 'I' for Inactive)
ROOT
HETATM    1  I   LIG     1      15.297  32.363  15.967  1.00  0.00    -0.045 I 
HETATM    2  C   LIG     1      15.331  33.064  17.956  1.00  0.00     0.006 A 
HETATM    3  C   LIG     1      15.527  34.425  18.216  1.00  0.00     0.018 A 
HETATM    4  C   LIG     1      15.550  34.890  19.535  1.00  0.00     0.001 A 
HETATM    5  C   LIG     1      15.377  33.995  20.596  1.00  0.00     0.000 A 
HETATM    6  C   LIG     1      15.181  32.633  20.337  1.00  0.00     0.001 A 
HETATM    7  C   LIG     1      15.158  32.168  19.018  1.00  0.00     0.018 A 
ENDROOT
TORSDOF 0
ENDMDL
MODEL 18
REMARK VINA RESULT:      -2.9     15.062     16.123
REMARK  0 active torsions:
REMARK  status: ('A' for Active; 'I' for Inactive)
ROOT
HETATM    1  I   LIG     1      27.692  27.091  35.327  1.00  0.00    -0.045 I 
HETATM    2  C   LIG     1      26.861  28.898  36.032  1.00  0.00     0.006 A 
HETATM    3  C   LIG     1      26.508  29.906  35.127  1.00  0.00     0.018 A 
HETATM    4  C   LIG     1      25.957  31.104  35.594  1.00  0.00     0.001 A 
HETATM    5  C   LIG     1      25.758  31.295  36.965  1.00  0.00     0.000 A 
HETATM    6  C   LIG     1      26.111  30.288  37.870  1.00  0.00     0.001 A 
HETATM    7  C   LIG     1      26.662  29.089  37.404  1.00  0.00     0.018 A 
ENDROOT
TORSDOF 0
ENDMDL
MODEL 19
REMARK VINA RESULT:      -2.9     15.425     16.235
REMARK  0 active torsions:
REMARK  status: ('A' for Active; 'I' for Inactive)
ROOT
HETATM    1  I   LIG     1      26.625  22.559  18.596  1.00  0.00    -0.045 I 
HETATM    2  C   LIG     1      24.828  22.588  19.700  1.00  0.00     0.006 A 
HETATM    3  C   LIG     1      24.801  23.157  20.979  1.00  0.00     0.018 A 
HETATM    4  C   LIG     1      23.609  23.176  21.712  1.00  0.00     0.001 A 
HETATM    5  C   LIG     1      22.443  22.628  21.166  1.00  0.00     0.000 A 
HETATM    6  C   LIG     1      22.470  22.059  19.888  1.00  0.00     0.001 A 
HETATM    7  C   LIG     1      23.662  22.039  19.155  1.00  0.00     0.018 A 
ENDROOT
TORSDOF 0
ENDMDL
MODEL 20
REMARK VINA RESULT:      -2.8     16.860     17.828
REMARK  0 active torsions:
REMARK  status: ('A' for Active; 'I' for Inactive)
ROOT
HETATM    1  I   LIG     1      23.890  22.491  21.856  1.00  0.00    -0.045 I 
HETATM    2  C   LIG     1      23.340  21.131  20.339  1.00  0.00     0.006 A 
HETATM    3  C   LIG     1      23.226  19.766  20.630  1.00  0.00     0.018 A 
HETATM    4  C   LIG     1      22.862  18.864  19.625  1.00  0.00     0.001 A 
HETATM    5  C   LIG     1      22.611  19.325  18.328  1.00  0.00     0.000 A 
HETATM    6  C   LIG     1      22.725  20.689  18.037  1.00  0.00     0.001 A 
HETATM    7  C   LIG     1      23.089  21.592  19.042  1.00  0.00     0.018 A 
ENDROOT
TORSDOF 0
ENDMDL
