MODEL 1
REMARK VINA RESULT:      -4.8      0.000      0.000
REMARK  0 active torsions:
REMARK  status: ('A' for Active; 'I' for Inactive)
REMARK       I    between atoms: C_2  and  N_3 
REMARK       I    between atoms: N_3  and  C_4 
REMARK       I    between atoms: C_4  and  N_5 
ROOT
HETATM    1  C   LIG     1      18.277  34.764  26.161  1.00  0.00     0.117 C 
HETATM    2  C   LIG     1      17.950  36.183  25.829  1.00  0.00     0.221 C 
HETATM    3  N   LIG     1      16.988  36.471  24.803  1.00  0.00    -0.280 N 
HETATM    4  C   LIG     1      16.604  37.797  24.409  1.00  0.00     0.320 C 
HETATM    5  N   LIG     1      15.635  37.978  23.376  1.00  0.00    -0.352 N 
HETATM    6  O   LIG     1      17.111  38.808  24.963  1.00  0.00    -0.247 OA
HETATM    7  O   LIG     1      18.525  37.115  26.456  1.00  0.00    -0.274 OA
HETATM    8  H   LIG     1      16.539  35.664  24.313  1.00  0.00     0.173 HD
HETATM    9  H   LIG     1      15.350  38.938  23.082  1.00  0.00     0.160 HD
HETATM   10  H   LIG     1      15.202  37.154  22.903  1.00  0.00     0.160 HD
ENDROOT
TORSDOF 0
ENDMDL
MODEL 2
REMARK VINA RESULT:      -4.7      1.540      1.788
REMARK  0 active torsions:
REMARK  status: ('A' for Active; 'I' for Inactive)
REMARK       I    between atoms: C_2  and  N_3 
REMARK       I    between atoms: N_3  and  C_4 
REMARK       I    between atoms: C_4  and  N_5 
ROOT
HETATM    1  C   LIG     1      18.295  36.703  26.381  1.00  0.00     0.117 C 
HETATM    2  C   LIG     1      17.483  37.415  25.349  1.00  0.00     0.221 C 
HETATM    3  N   LIG     1      17.140  36.745  24.126  1.00  0.00    -0.280 N 
HETATM    4  C   LIG     1      16.367  37.339  23.073  1.00  0.00     0.320 C 
HETATM    5  N   LIG     1      16.077  36.588  21.893  1.00  0.00    -0.352 N 
HETATM    6  O   LIG     1      15.937  38.519  23.173  1.00  0.00    -0.247 OA
HETATM    7  O   LIG     1      17.109  38.600  25.565  1.00  0.00    -0.274 OA
HETATM    8  H   LIG     1      17.475  35.764  23.996  1.00  0.00     0.173 HD
HETATM    9  H   LIG     1      15.517  37.012  21.122  1.00  0.00     0.160 HD
HETATM   10  H   LIG     1      16.424  35.609  21.789  1.00  0.00     0.160 HD
ENDROOT
TORSDOF 0
ENDMDL
MODEL 3
REMARK VINA RESULT:      -4.6      1.895      3.283
REMARK  0 active torsions:
REMARK  status: ('A' for Active; 'I' for Inactive)
REMARK       I    between atoms: C_2  and  N_3 
REMARK       I    between atoms: N_3  and  C_4 
REMARK       I    between atoms: C_4  and  N_5 
ROOT
HETATM    1  C   LIG     1      16.197  36.333  21.955  1.00  0.00     0.117 C 
HETATM    2  C   LIG     1      16.366  37.188  23.169  1.00  0.00     0.221 C 
HETATM    3  N   LIG     1      17.369  36.854  24.140  1.00  0.00    -0.280 N 
HETATM    4  C   LIG     1      17.611  37.608  25.338  1.00  0.00     0.320 C 
HETATM    5  N   LIG     1      18.635  37.194  26.243  1.00  0.00    -0.352 N 
HETATM    6  O   LIG     1      16.931  38.634  25.604  1.00  0.00    -0.247 OA
HETATM    7  O   LIG     1      15.622  38.195  23.325  1.00  0.00    -0.274 OA
HETATM    8  H   LIG     1      17.959  36.010  23.964  1.00  0.00     0.173 HD
HETATM    9  H   LIG     1      18.818  37.735  27.116  1.00  0.00     0.160 HD
HETATM   10  H   LIG     1      19.210  36.346  26.042  1.00  0.00     0.160 HD
ENDROOT
TORSDOF 0
ENDMDL
MODEL 4
REMARK VINA RESULT:      -4.6      2.352      3.935
REMARK  0 active torsions:
REMARK  status: ('A' for Active; 'I' for Inactive)
REMARK       I    between atoms: C_2  and  N_3 
REMARK       I    between atoms: N_3  and  C_4 
REMARK       I    between atoms: C_4  and  N_5 
ROOT
HETATM    1  C   LIG     1      18.165  39.131  21.260  1.00  0.00     0.117 C 
HETATM    2  C   LIG     1      17.546  38.861  22.593  1.00  0.00     0.221 C 
HETATM    3  N   LIG     1      18.331  38.260  23.634  1.00  0.00    -0.280 N 
HETATM    4  C   LIG     1      17.833  37.959  24.946  1.00  0.00     0.320 C 
HETATM    5  N   LIG     1      18.695  37.360  25.914  1.00  0.00    -0.352 N 
HETATM    6  O   LIG     1      16.640  38.216  25.258  1.00  0.00    -0.247 OA
HETATM    7  O   LIG     1      16.337  39.164  22.787  1.00  0.00    -0.274 OA
HETATM    8  H   LIG     1      19.328  38.027  23.422  1.00  0.00     0.173 HD
HETATM    9  H   LIG     1      18.342  37.137  26.870  1.00  0.00     0.160 HD
HETATM   10  H   LIG     1      19.687  37.138  25.675  1.00  0.00     0.160 HD
ENDROOT
TORSDOF 0
ENDMDL
MODEL 5
REMARK VINA RESULT:      -4.5      9.625      9.859
REMARK  0 active torsions:
REMARK  status: ('A' for Active; 'I' for Inactive)
REMARK       I    between atoms: C_2  and  N_3 
REMARK       I    between atoms: N_3  and  C_4 
REMARK       I    between atoms: C_4  and  N_5 
ROOT
HETATM    1  C   LIG     1      15.222  32.674  19.989  1.00  0.00     0.117 C 
HETATM    2  C   LIG     1      15.011  32.320  18.553  1.00  0.00     0.221 C 
HETATM    3  N   LIG     1      13.885  31.513  18.177  1.00  0.00    -0.280 N 
HETATM    4  C   LIG     1      13.592  31.118  16.828  1.00  0.00     0.320 C 
HETATM    5  N   LIG     1      12.445  30.313  16.556  1.00  0.00    -0.352 N 
HETATM    6  O   LIG     1      14.337  31.473  15.875  1.00  0.00    -0.247 OA
HETATM    7  O   LIG     1      15.827  32.737  17.686  1.00  0.00    -0.274 OA
HETATM    8  H   LIG     1      13.238  31.193  18.933  1.00  0.00     0.173 HD
HETATM    9  H   LIG     1      12.225  30.020  15.579  1.00  0.00     0.160 HD
HETATM   10  H   LIG     1      11.816  30.007  17.331  1.00  0.00     0.160 HD
ENDROOT
TORSDOF 0
ENDMDL
MODEL 6
REMARK VINA RESULT:      -4.5      9.679     10.053
REMARK  0 active torsions:
REMARK  status: ('A' for Active; 'I' for Inactive)
REMARK       I    between atoms: C_2  and  N_3 
REMARK       I    between atoms: N_3  and  C_4 
REMARK       I    between atoms: C_4  and  N_5 
ROOT
HETATM    1  C   LIG     1      12.984  30.522  15.743  1.00  0.00     0.117 C 
HETATM    2  C   LIG     1      13.970  31.305  16.548  1.00  0.00     0.221 C 
HETATM    3  N   LIG     1      13.808  31.405  17.971  1.00  0.00    -0.280 N 
HETATM    4  C   LIG     1      14.697  32.131  18.833  1.00  0.00     0.320 C 
HETATM    5  N   LIG     1      14.449  32.171  20.238  1.00  0.00    -0.352 N 
HETATM    6  O   LIG     1      15.697  32.738  18.366  1.00  0.00    -0.247 OA
HETATM    7  O   LIG     1      14.936  31.869  15.965  1.00  0.00    -0.274 OA
HETATM    8  H   LIG     1      12.991  30.919  18.405  1.00  0.00     0.173 HD
HETATM    9  H   LIG     1      15.089  32.697  20.873  1.00  0.00     0.160 HD
HETATM   10  H   LIG     1      13.625  31.676  20.646  1.00  0.00     0.160 HD
ENDROOT
TORSDOF 0
ENDMDL
MODEL 7
REMARK VINA RESULT:      -4.3      2.978      4.167
REMARK  0 active torsions:
REMARK  status: ('A' for Active; 'I' for Inactive)
REMARK       I    between atoms: C_2  and  N_3 
REMARK       I    between atoms: N_3  and  C_4 
REMARK       I    between atoms: C_4  and  N_5 
ROOT
HETATM    1  C   LIG     1      18.785  39.306  20.756  1.00  0.00     0.117 C 
HETATM    2  C   LIG     1      18.066  38.432  21.732  1.00  0.00     0.221 C 
HETATM    3  N   LIG     1      17.983  38.822  23.111  1.00  0.00    -0.280 N 
HETATM    4  C   LIG     1      17.317  38.056  24.126  1.00  0.00     0.320 C 
HETATM    5  N   LIG     1      17.290  38.531  25.472  1.00  0.00    -0.352 N 
HETATM    6  O   LIG     1      16.754  36.965  23.845  1.00  0.00    -0.247 OA
HETATM    7  O   LIG     1      17.539  37.359  21.330  1.00  0.00    -0.274 OA
HETATM    8  H   LIG     1      18.437  39.721  23.393  1.00  0.00     0.173 HD
HETATM    9  H   LIG     1      16.808  37.980  26.216  1.00  0.00     0.160 HD
HETATM   10  H   LIG     1      17.751  39.433  25.726  1.00  0.00     0.160 HD
ENDROOT
TORSDOF 0
ENDMDL
MODEL 8
REMARK VINA RESULT:      -4.2     10.193     10.618
REMARK  0 active torsions:
REMARK  status: ('A' for Active; 'I' for Inactive)
REMARK       I    between atoms: C_2  and  N_3 
REMARK       I    between atoms: N_3  and  C_4 
REMARK       I    between atoms: C_4  and  N_5 
ROOT
HETATM    1  C   LIG     1      15.276  30.694  14.478  1.00  0.00     0.117 C 
HETATM    2  C   LIG     1      15.626  32.084  14.899  1.00  0.00     0.221 C 
HETATM    3  N   LIG     1      15.266  32.542  16.212  1.00  0.00    -0.280 N 
HETATM    4  C   LIG     1      15.554  33.856  16.713  1.00  0.00     0.320 C 
HETATM    5  N   LIG     1      15.155  34.216  18.035  1.00  0.00    -0.352 N 
HETATM    6  O   LIG     1      16.157  34.702  15.999  1.00  0.00    -0.247 OA
HETATM    7  O   LIG     1      16.234  32.841  14.094  1.00  0.00    -0.274 OA
HETATM    8  H   LIG     1      14.763  31.876  16.841  1.00  0.00     0.173 HD
HETATM    9  H   LIG     1      15.359  35.169  18.408  1.00  0.00     0.160 HD
HETATM   10  H   LIG     1      14.653  33.531  18.643  1.00  0.00     0.160 HD
ENDROOT
TORSDOF 0
ENDMDL
MODEL 9
REMARK VINA RESULT:      -4.2     11.871     12.188
REMARK  0 active torsions:
REMARK  status: ('A' for Active; 'I' for Inactive)
REMARK       I    between atoms: C_2  and  N_3 
REMARK       I    between atoms: N_3  and  C_4 
REMARK       I    between atoms: C_4  and  N_5 
ROOT
HETATM    1  C   LIG     1      15.318  29.997  13.636  1.00  0.00     0.117 C 
HETATM    2  C   LIG     1      14.257  30.150  14.677  1.00  0.00     0.221 C 
HETATM    3  N   LIG     1      14.496  30.984  15.821  1.00  0.00    -0.280 N 
HETATM    4  C   LIG     1      13.544  31.197  16.874  1.00  0.00     0.320 C 
HETATM    5  N   LIG     1      13.878  32.047  17.971  1.00  0.00    -0.352 N 
HETATM    6  O   LIG     1      12.414  30.641  16.846  1.00  0.00    -0.247 OA
HETATM    7  O   LIG     1      13.161  29.541  14.537  1.00  0.00    -0.274 OA
HETATM    8  H   LIG     1      15.420  31.467  15.889  1.00  0.00     0.173 HD
HETATM    9  H   LIG     1      13.193  32.208  18.743  1.00  0.00     0.160 HD
HETATM   10  H   LIG     1      14.809  32.517  18.015  1.00  0.00     0.160 HD
ENDROOT
TORSDOF 0
ENDMDL
MODEL 10
REMARK VINA RESULT:      -4.2      3.421      4.242
REMARK  0 active torsions:
REMARK  status: ('A' for Active; 'I' for Inactive)
REMARK       I    between atoms: C_2  and  N_3 
REMARK       I    between atoms: N_3  and  C_4 
REMARK       I    between atoms: C_4  and  N_5 
ROOT
HETATM    1  C   LIG     1      18.979  37.474  19.921  1.00  0.00     0.117 C 
HETATM    2  C   LIG     1      18.331  38.285  20.995  1.00  0.00     0.221 C 
HETATM    3  N   LIG     1      17.155  37.788  21.652  1.00  0.00    -0.280 N 
HETATM    4  C   LIG     1      16.458  38.488  22.693  1.00  0.00     0.320 C 
HETATM    5  N   LIG     1      15.296  37.907  23.285  1.00  0.00    -0.352 N 
HETATM    6  O   LIG     1      16.857  39.613  23.094  1.00  0.00    -0.247 OA
HETATM    7  O   LIG     1      18.826  39.402  21.311  1.00  0.00    -0.274 OA
HETATM    8  H   LIG     1      16.785  36.857  21.353  1.00  0.00     0.173 HD
HETATM    9  H   LIG     1      14.782  38.408  24.042  1.00  0.00     0.160 HD
HETATM   10  H   LIG     1      14.947  36.975  22.967  1.00  0.00     0.160 HD
ENDROOT
TORSDOF 0
ENDMDL
MODEL 11
REMARK VINA RESULT:      -4.2      6.250      6.648
REMARK  0 active torsions:
REMARK  status: ('A' for Active; 'I' for Inactive)
REMARK       I    between atoms: C_2  and  N_3 
REMARK       I    between atoms: N_3  and  C_4 
REMARK       I    between atoms: C_4  and  N_5 
ROOT
HETATM    1  C   LIG     1      16.365  35.852  21.912  1.00  0.00     0.117 C 
HETATM    2  C   LIG     1      16.160  34.992  20.708  1.00  0.00     0.221 C 
HETATM    3  N   LIG     1      15.411  33.772  20.824  1.00  0.00    -0.280 N 
HETATM    4  C   LIG     1      15.157  32.877  19.731  1.00  0.00     0.320 C 
HETATM    5  N   LIG     1      14.399  31.687  19.949  1.00  0.00    -0.352 N 
HETATM    6  O   LIG     1      15.596  33.126  18.576  1.00  0.00    -0.247 OA
HETATM    7  O   LIG     1      16.649  35.348  19.601  1.00  0.00    -0.274 OA
HETATM    8  H   LIG     1      15.026  33.522  21.763  1.00  0.00     0.173 HD
HETATM    9  H   LIG     1      14.210  31.029  19.161  1.00  0.00     0.160 HD
HETATM   10  H   LIG     1      14.027  31.461  20.898  1.00  0.00     0.160 HD
ENDROOT
TORSDOF 0
ENDMDL
MODEL 12
REMARK VINA RESULT:      -4.2      2.219      3.738
REMARK  0 active torsions:
REMARK  status: ('A' for Active; 'I' for Inactive)
REMARK       I    between atoms: C_2  and  N_3 
REMARK       I    between atoms: N_3  and  C_4 
REMARK       I    between atoms: C_4  and  N_5 
ROOT
HETATM    1  C   LIG     1      16.663  38.256  22.446  1.00  0.00     0.117 C 
HETATM    2  C   LIG     1      16.915  37.011  23.234  1.00  0.00     0.221 C 
HETATM    3  N   LIG     1      17.234  37.105  24.631  1.00  0.00    -0.280 N 
HETATM    4  C   LIG     1      17.492  35.973  25.475  1.00  0.00     0.320 C 
HETATM    5  N   LIG     1      17.801  36.172  26.855  1.00  0.00    -0.352 N 
HETATM    6  O   LIG     1      17.451  34.801  25.015  1.00  0.00    -0.247 OA
HETATM    7  O   LIG     1      16.843  35.890  22.660  1.00  0.00    -0.274 OA
HETATM    8  H   LIG     1      17.281  38.058  25.059  1.00  0.00     0.173 HD
HETATM    9  H   LIG     1      17.991  35.355  27.476  1.00  0.00     0.160 HD
HETATM   10  H   LIG     1      17.841  37.135  27.257  1.00  0.00     0.160 HD
ENDROOT
TORSDOF 0
ENDMDL
MODEL 13
REMARK VINA RESULT:      -4.1      6.620      6.808
REMARK  0 active torsions:
REMARK  status: ('A' for Active; 'I' for Inactive)
REMARK       I    between atoms: C_2  and  N_3 
REMARK       I    between atoms: N_3  and  C_4 
REMARK       I    between atoms: C_4  and  N_5 
ROOT
HETATM    1  C   LIG     1      14.796  31.118  20.079  1.00  0.00     0.117 C 
HETATM    2  C   LIG     1      15.272  32.472  19.664  1.00  0.00     0.221 C 
HETATM    3  N   LIG     1      15.226  33.560  20.599  1.00  0.00    -0.280 N 
HETATM    4  C   LIG     1      15.658  34.896  20.301  1.00  0.00     0.320 C 
HETATM    5  N   LIG     1      15.572  35.911  21.301  1.00  0.00    -0.352 N 
HETATM    6  O   LIG     1      16.114  35.189  19.163  1.00  0.00    -0.247 OA
HETATM    7  O   LIG     1      15.710  32.642  18.494  1.00  0.00    -0.274 OA
HETATM    8  H   LIG     1      14.854  33.367  21.557  1.00  0.00     0.173 HD
HETATM    9  H   LIG     1      15.884  36.885  21.094  1.00  0.00     0.160 HD
HETATM   10  H   LIG     1      15.197  35.690  22.250  1.00  0.00     0.160 HD
ENDROOT
TORSDOF 0
ENDMDL
MODEL 14
REMARK VINA RESULT:      -4.1     12.144     12.456
REMARK  0 active torsions:
REMARK  status: ('A' for Active; 'I' for Inactive)
REMARK       I    between atoms: C_2  and  N_3 
REMARK       I    between atoms: N_3  and  C_4 
REMARK       I    between atoms: C_4  and  N_5 
ROOT
HETATM    1  C   LIG     1      15.527  31.052  13.995  1.00  0.00     0.117 C 
HETATM    2  C   LIG     1      16.196  32.388  14.006  1.00  0.00     0.221 C 
HETATM    3  N   LIG     1      16.974  32.804  12.874  1.00  0.00    -0.280 N 
HETATM    4  C   LIG     1      17.655  34.064  12.784  1.00  0.00     0.320 C 
HETATM    5  N   LIG     1      18.405  34.385  11.612  1.00  0.00    -0.352 N 
HETATM    6  O   LIG     1      17.602  34.895  13.730  1.00  0.00    -0.247 OA
HETATM    7  O   LIG     1      16.068  33.136  15.014  1.00  0.00    -0.274 OA
HETATM    8  H   LIG     1      17.049  32.147  12.064  1.00  0.00     0.173 HD
HETATM    9  H   LIG     1      18.904  35.299  11.539  1.00  0.00     0.160 HD
HETATM   10  H   LIG     1      18.462  33.711  10.818  1.00  0.00     0.160 HD
ENDROOT
TORSDOF 0
ENDMDL
MODEL 15
REMARK VINA RESULT:      -4.1      8.840      9.050
REMARK  0 active torsions:
REMARK  status: ('A' for Active; 'I' for Inactive)
REMARK       I    between atoms: C_2  and  N_3 
REMARK       I    between atoms: N_3  and  C_4 
REMARK       I    between atoms: C_4  and  N_5 
ROOT
HETATM    1  C   LIG     1      14.793  31.347  20.163  1.00  0.00     0.117 C 
HETATM    2  C   LIG     1      14.638  31.831  18.758  1.00  0.00     0.221 C 
HETATM    3  N   LIG     1      15.336  33.011  18.331  1.00  0.00    -0.280 N 
HETATM    4  C   LIG     1      15.256  33.558  17.007  1.00  0.00     0.320 C 
HETATM    5  N   LIG     1      15.990  34.738  16.680  1.00  0.00    -0.352 N 
HETATM    6  O   LIG     1      14.543  33.011  16.124  1.00  0.00    -0.247 OA
HETATM    7  O   LIG     1      13.894  31.195  17.963  1.00  0.00    -0.274 OA
HETATM    8  H   LIG     1      15.940  33.502  19.029  1.00  0.00     0.173 HD
HETATM    9  H   LIG     1      15.937  35.144  15.719  1.00  0.00     0.160 HD
HETATM   10  H   LIG     1      16.586  35.208  17.397  1.00  0.00     0.160 HD
ENDROOT
TORSDOF 0
ENDMDL
MODEL 16
REMARK VINA RESULT:      -4.0     10.151     10.591
REMARK  0 active torsions:
REMARK  status: ('A' for Active; 'I' for Inactive)
REMARK       I    between atoms: C_2  and  N_3 
REMARK       I    between atoms: N_3  and  C_4 
REMARK       I    between atoms: C_4  and  N_5 
ROOT
HETATM    1  C   LIG     1      16.127  32.113  13.637  1.00  0.00     0.117 C 
HETATM    2  C   LIG     1      16.070  32.403  15.102  1.00  0.00     0.221 C 
HETATM    3  N   LIG     1      14.902  32.040  15.854  1.00  0.00    -0.280 N 
HETATM    4  C   LIG     1      14.747  32.274  17.262  1.00  0.00     0.320 C 
HETATM    5  N   LIG     1      13.545  31.874  17.920  1.00  0.00    -0.352 N 
HETATM    6  O   LIG     1      15.659  32.831  17.929  1.00  0.00    -0.247 OA
HETATM    7  O   LIG     1      17.051  32.966  15.661  1.00  0.00    -0.274 OA
HETATM    8  H   LIG     1      14.116  31.576  15.344  1.00  0.00     0.173 HD
HETATM    9  H   LIG     1      13.422  32.041  18.943  1.00  0.00     0.160 HD
HETATM   10  H   LIG     1      12.775  31.412  17.387  1.00  0.00     0.160 HD
ENDROOT
TORSDOF 0
ENDMDL
MODEL 17
REMARK VINA RESULT:      -4.0      3.954      4.392
REMARK  0 active torsions:
REMARK  status: ('A' for Active; 'I' for Inactive)
REMARK       I    between atoms: C_2  and  N_3 
REMARK       I    between atoms: N_3  and  C_4 
REMARK       I    between atoms: C_4  and  N_5 
ROOT
HETATM    1  C   LIG     1      16.854  35.485  21.326  1.00  0.00     0.117 C 
HETATM    2  C   LIG     1      17.234  36.891  21.662  1.00  0.00     0.221 C 
HETATM    3  N   LIG     1      18.174  37.592  20.833  1.00  0.00    -0.280 N 
HETATM    4  C   LIG     1      18.603  38.942  21.068  1.00  0.00     0.320 C 
HETATM    5  N   LIG     1      19.544  39.552  20.184  1.00  0.00    -0.352 N 
HETATM    6  O   LIG     1      18.162  39.599  22.048  1.00  0.00    -0.247 OA
HETATM    7  O   LIG     1      16.721  37.446  22.672  1.00  0.00    -0.274 OA
HETATM    8  H   LIG     1      18.569  37.088  20.008  1.00  0.00     0.173 HD
HETATM    9  H   LIG     1      19.863  40.532  20.347  1.00  0.00     0.160 HD
HETATM   10  H   LIG     1      19.923  39.025  19.366  1.00  0.00     0.160 HD
ENDROOT
TORSDOF 0
ENDMDL
MODEL 18
REMARK VINA RESULT:      -4.0      4.738      5.069
REMARK  0 active torsions:
REMARK  status: ('A' for Active; 'I' for Inactive)
REMARK       I    between atoms: C_2  and  N_3 
REMARK       I    between atoms: N_3  and  C_4 
REMARK       I    between atoms: C_4  and  N_5 
ROOT
HETATM    1  C   LIG     1      19.181  36.809  19.549  1.00  0.00     0.117 C 
HETATM    2  C   LIG     1      17.968  36.779  20.421  1.00  0.00     0.221 C 
HETATM    3  N   LIG     1      17.030  35.699  20.297  1.00  0.00    -0.280 N 
HETATM    4  C   LIG     1      15.836  35.577  21.085  1.00  0.00     0.320 C 
HETATM    5  N   LIG     1      14.965  34.462  20.887  1.00  0.00    -0.352 N 
HETATM    6  O   LIG     1      15.543  36.442  21.953  1.00  0.00    -0.247 OA
HETATM    7  O   LIG     1      17.783  37.705  21.257  1.00  0.00    -0.274 OA
HETATM    8  H   LIG     1      17.229  34.956  19.590  1.00  0.00     0.173 HD
HETATM    9  H   LIG     1      14.095  34.365  21.455  1.00  0.00     0.160 HD
HETATM   10  H   LIG     1      15.189  33.734  20.173  1.00  0.00     0.160 HD
ENDROOT
TORSDOF 0
ENDMDL
MODEL 19
REMARK VINA RESULT:      -4.0      3.020      3.622
REMARK  0 active torsions:
REMARK  status: ('A' for Active; 'I' for Inactive)
REMARK       I    between atoms: C_2  and  N_3 
REMARK       I    between atoms: N_3  and  C_4 
REMARK       I    between atoms: C_4  and  N_5 
ROOT
HETATM    1  C   LIG     1      16.397  34.845  21.253  1.00  0.00     0.117 C 
HETATM    2  C   LIG     1      17.008  36.141  21.677  1.00  0.00     0.221 C 
HETATM    3  N   LIG     1      16.735  36.662  22.987  1.00  0.00    -0.280 N 
HETATM    4  C   LIG     1      17.271  37.895  23.491  1.00  0.00     0.320 C 
HETATM    5  N   LIG     1      16.939  38.327  24.810  1.00  0.00    -0.352 N 
HETATM    6  O   LIG     1      18.032  38.605  22.782  1.00  0.00    -0.247 OA
HETATM    7  O   LIG     1      17.758  36.764  20.876  1.00  0.00    -0.274 OA
HETATM    8  H   LIG     1      16.107  36.108  23.613  1.00  0.00     0.173 HD
HETATM    9  H   LIG     1      17.323  39.222  25.185  1.00  0.00     0.160 HD
HETATM   10  H   LIG     1      16.310  37.753  25.414  1.00  0.00     0.160 HD
ENDROOT
TORSDOF 0
ENDMDL
MODEL 20
REMARK VINA RESULT:      -3.9     12.135     12.449
REMARK  0 active torsions:
REMARK  status: ('A' for Active; 'I' for Inactive)
REMARK       I    between atoms: C_2  and  N_3 
REMARK       I    between atoms: N_3  and  C_4 
REMARK       I    between atoms: C_4  and  N_5 
ROOT
HETATM    1  C   LIG     1      14.257  32.112  17.542  1.00  0.00     0.117 C 
HETATM    2  C   LIG     1      13.790  31.128  16.518  1.00  0.00     0.221 C 
HETATM    3  N   LIG     1      14.641  30.797  15.410  1.00  0.00    -0.280 N 
HETATM    4  C   LIG     1      14.288  29.866  14.375  1.00  0.00     0.320 C 
HETATM    5  N   LIG     1      15.205  29.604  13.313  1.00  0.00    -0.352 N 
HETATM    6  O   LIG     1      13.176  29.275  14.390  1.00  0.00    -0.247 OA
HETATM    7  O   LIG     1      12.652  30.599  16.642  1.00  0.00    -0.274 OA
HETATM    8  H   LIG     1      15.575  31.263  15.354  1.00  0.00     0.173 HD
HETATM    9  H   LIG     1      14.958  28.929  12.556  1.00  0.00     0.160 HD
HETATM   10  H   LIG     1      16.132  30.083  13.281  1.00  0.00     0.160 HD
ENDROOT
TORSDOF 0
ENDMDL
