REMARK  0 active torsions:
REMARK  status: ('A' for Active; 'I' for Inactive)
ROOT
HETATM    1  C   LIG     1       2.494   0.305   0.080  1.00  0.00     0.043 C 
HETATM    2  C   LIG     1       0.997   0.171   0.135  1.00  0.00    -0.087 C 
HETATM    3  C   LIG     1       0.231   1.244  -0.158  1.00  0.00    -0.024 C 
HETATM    4  C   LIG     1      -1.276   1.222  -0.080  1.00  0.00     0.027 C 
HETATM    5  C   LIG     1      -1.846  -0.197  -0.168  1.00  0.00     0.004 C 
HETATM    6  C   LIG     1      -1.091  -1.127   0.781  1.00  0.00     0.005 C 
HETATM    7  C   LIG     1       0.391  -1.195   0.392  1.00  0.00     0.033 C 
ENDROOT
TORSDOF 0
