REMARK  0 active torsions:
REMARK  status: ('A' for Active; 'I' for Inactive)
ROOT
HETATM    1  C   LIG     1      -2.231   0.271   0.112  1.00  0.00     0.048 C 
HETATM    2  C   LIG     1      -0.746   0.068   0.037  1.00  0.00    -0.061 A 
HETATM    3  C   LIG     1       0.130   1.165   0.005  1.00  0.00     0.025 A 
HETATM    4  C   LIG     1       1.513   0.960  -0.065  1.00  0.00     0.011 A 
HETATM    5 BR   LIG     1       2.700   2.456  -0.108  1.00  0.00    -0.051 Br
HETATM    6  C   LIG     1       2.026  -0.341  -0.102  1.00  0.00     0.019 A 
HETATM    7  C   LIG     1       1.159  -1.436  -0.071  1.00  0.00     0.002 A 
HETATM    8  C   LIG     1      -0.223  -1.234  -0.001  1.00  0.00     0.007 A 
ENDROOT
TORSDOF 0
