MODEL 1
REMARK VINA RESULT:      -5.9      0.000      0.000
REMARK  0 active torsions:
REMARK  status: ('A' for Active; 'I' for Inactive)
ROOT
HETATM    1  C   LIG     1      16.713  35.479  22.535  1.00  0.00     0.043 C 
HETATM    2  C   LIG     1      17.154  35.879  23.916  1.00  0.00    -0.087 C 
HETATM    3  C   LIG     1      17.428  34.916  24.822  1.00  0.00    -0.024 C 
HETATM    4  C   LIG     1      17.827  35.219  26.246  1.00  0.00     0.027 C 
HETATM    5  C   LIG     1      18.393  36.633  26.407  1.00  0.00     0.004 C 
HETATM    6  C   LIG     1      17.483  37.646  25.713  1.00  0.00     0.005 C 
HETATM    7  C   LIG     1      17.400  37.346  24.212  1.00  0.00     0.033 C 
ENDROOT
TORSDOF 0
ENDMDL
MODEL 2
REMARK VINA RESULT:      -5.5      3.754      4.945
REMARK  0 active torsions:
REMARK  status: ('A' for Active; 'I' for Inactive)
ROOT
HETATM    1  C   LIG     1      16.980  35.589  21.104  1.00  0.00     0.043 C 
HETATM    2  C   LIG     1      17.799  36.830  20.879  1.00  0.00    -0.087 C 
HETATM    3  C   LIG     1      18.654  36.872  19.835  1.00  0.00    -0.024 C 
HETATM    4  C   LIG     1      19.554  38.051  19.558  1.00  0.00     0.027 C 
HETATM    5  C   LIG     1      19.045  39.341  20.208  1.00  0.00     0.004 C 
HETATM    6  C   LIG     1      18.672  39.083  21.668  1.00  0.00     0.005 C 
HETATM    7  C   LIG     1      17.548  38.043  21.754  1.00  0.00     0.033 C 
ENDROOT
TORSDOF 0
ENDMDL
MODEL 3
REMARK VINA RESULT:      -5.5      0.672      1.979
REMARK  0 active torsions:
REMARK  status: ('A' for Active; 'I' for Inactive)
ROOT
HETATM    1  C   LIG     1      16.633  36.137  22.815  1.00  0.00     0.043 C 
HETATM    2  C   LIG     1      17.298  36.125  24.164  1.00  0.00    -0.087 C 
HETATM    3  C   LIG     1      17.802  37.277  24.657  1.00  0.00    -0.024 C 
HETATM    4  C   LIG     1      18.531  37.355  25.975  1.00  0.00     0.027 C 
HETATM    5  C   LIG     1      18.187  36.188  26.905  1.00  0.00     0.004 C 
HETATM    6  C   LIG     1      18.274  34.865  26.144  1.00  0.00     0.005 C 
HETATM    7  C   LIG     1      17.269  34.851  24.985  1.00  0.00     0.033 C 
ENDROOT
TORSDOF 0
ENDMDL
MODEL 4
REMARK VINA RESULT:      -5.4      3.700      5.041
REMARK  0 active torsions:
REMARK  status: ('A' for Active; 'I' for Inactive)
ROOT
HETATM    1  C   LIG     1      16.983  35.545  21.237  1.00  0.00     0.043 C 
HETATM    2  C   LIG     1      17.742  36.799  20.905  1.00  0.00    -0.087 C 
HETATM    3  C   LIG     1      17.588  37.887  21.690  1.00  0.00    -0.024 C 
HETATM    4  C   LIG     1      18.266  39.206  21.408  1.00  0.00     0.027 C 
HETATM    5  C   LIG     1      19.503  39.049  20.518  1.00  0.00     0.004 C 
HETATM    6  C   LIG     1      19.176  38.168  19.313  1.00  0.00     0.005 C 
HETATM    7  C   LIG     1      18.754  36.768  19.776  1.00  0.00     0.033 C 
ENDROOT
TORSDOF 0
ENDMDL
MODEL 5
REMARK VINA RESULT:      -5.4      0.838      2.734
REMARK  0 active torsions:
REMARK  status: ('A' for Active; 'I' for Inactive)
ROOT
HETATM    1  C   LIG     1      17.881  34.819  26.244  1.00  0.00     0.043 C 
HETATM    2  C   LIG     1      17.518  35.720  25.096  1.00  0.00    -0.087 C 
HETATM    3  C   LIG     1      17.155  35.169  23.918  1.00  0.00    -0.024 C 
HETATM    4  C   LIG     1      16.824  35.989  22.695  1.00  0.00     0.027 C 
HETATM    5  C   LIG     1      16.428  37.427  23.045  1.00  0.00     0.004 C 
HETATM    6  C   LIG     1      17.432  38.026  24.028  1.00  0.00     0.005 C 
HETATM    7  C   LIG     1      17.448  37.217  25.331  1.00  0.00     0.033 C 
ENDROOT
TORSDOF 0
ENDMDL
MODEL 6
REMARK VINA RESULT:      -5.4      3.563      5.081
REMARK  0 active torsions:
REMARK  status: ('A' for Active; 'I' for Inactive)
ROOT
HETATM    1  C   LIG     1      16.571  36.974  22.423  1.00  0.00     0.043 C 
HETATM    2  C   LIG     1      17.588  37.454  21.425  1.00  0.00    -0.087 C 
HETATM    3  C   LIG     1      18.044  36.594  20.488  1.00  0.00    -0.024 C 
HETATM    4  C   LIG     1      19.101  36.967  19.477  1.00  0.00     0.027 C 
HETATM    5  C   LIG     1      19.205  38.481  19.270  1.00  0.00     0.004 C 
HETATM    6  C   LIG     1      19.257  39.195  20.621  1.00  0.00     0.005 C 
HETATM    7  C   LIG     1      17.976  38.920  21.418  1.00  0.00     0.033 C 
ENDROOT
TORSDOF 0
ENDMDL
MODEL 7
REMARK VINA RESULT:      -5.3      3.619      4.884
REMARK  0 active torsions:
REMARK  status: ('A' for Active; 'I' for Inactive)
ROOT
HETATM    1  C   LIG     1      20.217  38.876  19.396  1.00  0.00     0.043 C 
HETATM    2  C   LIG     1      19.114  38.262  20.214  1.00  0.00    -0.087 C 
HETATM    3  C   LIG     1      18.696  37.012  19.919  1.00  0.00    -0.024 C 
HETATM    4  C   LIG     1      17.563  36.333  20.648  1.00  0.00     0.027 C 
HETATM    5  C   LIG     1      17.310  36.939  22.032  1.00  0.00     0.004 C 
HETATM    6  C   LIG     1      17.255  38.463  21.936  1.00  0.00     0.005 C 
HETATM    7  C   LIG     1      18.592  39.013  21.424  1.00  0.00     0.033 C 
ENDROOT
TORSDOF 0
ENDMDL
MODEL 8
REMARK VINA RESULT:      -5.2      1.062      3.227
REMARK  0 active torsions:
REMARK  status: ('A' for Active; 'I' for Inactive)
ROOT
HETATM    1  C   LIG     1      17.500  34.908  25.746  1.00  0.00     0.043 C 
HETATM    2  C   LIG     1      17.267  35.828  24.579  1.00  0.00    -0.087 C 
HETATM    3  C   LIG     1      17.376  37.162  24.764  1.00  0.00    -0.024 C 
HETATM    4  C   LIG     1      17.110  38.166  23.669  1.00  0.00     0.027 C 
HETATM    5  C   LIG     1      17.237  37.554  22.270  1.00  0.00     0.004 C 
HETATM    6  C   LIG     1      16.467  36.235  22.201  1.00  0.00     0.005 C 
HETATM    7  C   LIG     1      17.044  35.229  23.204  1.00  0.00     0.033 C 
ENDROOT
TORSDOF 0
ENDMDL
MODEL 9
REMARK VINA RESULT:      -5.2      2.900      4.293
REMARK  0 active torsions:
REMARK  status: ('A' for Active; 'I' for Inactive)
ROOT
HETATM    1  C   LIG     1      19.083  37.034  19.431  1.00  0.00     0.043 C 
HETATM    2  C   LIG     1      18.221  37.276  20.639  1.00  0.00    -0.087 C 
HETATM    3  C   LIG     1      18.171  38.515  21.172  1.00  0.00    -0.024 C 
HETATM    4  C   LIG     1      17.377  38.844  22.413  1.00  0.00     0.027 C 
HETATM    5  C   LIG     1      16.260  37.829  22.678  1.00  0.00     0.004 C 
HETATM    6  C   LIG     1      16.803  36.406  22.561  1.00  0.00     0.005 C 
HETATM    7  C   LIG     1      17.335  36.154  21.145  1.00  0.00     0.033 C 
ENDROOT
TORSDOF 0
ENDMDL
MODEL 10
REMARK VINA RESULT:      -5.1      0.965      2.352
REMARK  0 active torsions:
REMARK  status: ('A' for Active; 'I' for Inactive)
ROOT
HETATM    1  C   LIG     1      16.912  38.698  22.848  1.00  0.00     0.043 C 
HETATM    2  C   LIG     1      17.226  37.553  23.771  1.00  0.00    -0.087 C 
HETATM    3  C   LIG     1      17.780  37.813  24.975  1.00  0.00    -0.024 C 
HETATM    4  C   LIG     1      18.178  36.729  25.947  1.00  0.00     0.027 C 
HETATM    5  C   LIG     1      17.435  35.414  25.692  1.00  0.00     0.004 C 
HETATM    6  C   LIG     1      17.484  35.062  24.206  1.00  0.00     0.005 C 
HETATM    7  C   LIG     1      16.795  36.153  23.378  1.00  0.00     0.033 C 
ENDROOT
TORSDOF 0
ENDMDL
MODEL 11
REMARK VINA RESULT:      -4.9      1.899      4.210
REMARK  0 active torsions:
REMARK  status: ('A' for Active; 'I' for Inactive)
ROOT
HETATM    1  C   LIG     1      17.196  37.982  25.048  1.00  0.00     0.043 C 
HETATM    2  C   LIG     1      17.320  37.722  23.572  1.00  0.00    -0.087 C 
HETATM    3  C   LIG     1      17.896  38.659  22.788  1.00  0.00    -0.024 C 
HETATM    4  C   LIG     1      18.019  38.512  21.291  1.00  0.00     0.027 C 
HETATM    5  C   LIG     1      17.935  37.052  20.837  1.00  0.00     0.004 C 
HETATM    6  C   LIG     1      16.746  36.361  21.503  1.00  0.00     0.005 C 
HETATM    7  C   LIG     1      16.914  36.366  23.028  1.00  0.00     0.033 C 
ENDROOT
TORSDOF 0
ENDMDL
MODEL 12
REMARK VINA RESULT:      -4.8      9.228     10.757
REMARK  0 active torsions:
REMARK  status: ('A' for Active; 'I' for Inactive)
ROOT
HETATM    1  C   LIG     1      13.809  29.483  14.328  1.00  0.00     0.043 C 
HETATM    2  C   LIG     1      14.228  30.599  15.245  1.00  0.00    -0.087 C 
HETATM    3  C   LIG     1      15.317  31.333  14.930  1.00  0.00    -0.024 C 
HETATM    4  C   LIG     1      15.845  32.438  15.813  1.00  0.00     0.027 C 
HETATM    5  C   LIG     1      14.778  32.985  16.767  1.00  0.00     0.004 C 
HETATM    6  C   LIG     1      14.053  31.833  17.460  1.00  0.00     0.005 C 
HETATM    7  C   LIG     1      13.344  30.950  16.426  1.00  0.00     0.033 C 
ENDROOT
TORSDOF 0
ENDMDL
MODEL 13
REMARK VINA RESULT:      -4.8      2.049      3.903
REMARK  0 active torsions:
REMARK  status: ('A' for Active; 'I' for Inactive)
ROOT
HETATM    1  C   LIG     1      17.232  38.305  24.224  1.00  0.00     0.043 C 
HETATM    2  C   LIG     1      17.274  37.398  23.025  1.00  0.00    -0.087 C 
HETATM    3  C   LIG     1      16.888  36.111  23.161  1.00  0.00    -0.024 C 
HETATM    4  C   LIG     1      16.944  35.113  22.030  1.00  0.00     0.027 C 
HETATM    5  C   LIG     1      16.956  35.788  20.655  1.00  0.00     0.004 C 
HETATM    6  C   LIG     1      17.985  36.917  20.632  1.00  0.00     0.005 C 
HETATM    7  C   LIG     1      17.626  37.986  21.672  1.00  0.00     0.033 C 
ENDROOT
TORSDOF 0
ENDMDL
MODEL 14
REMARK VINA RESULT:      -4.7      1.451      2.152
REMARK  0 active torsions:
REMARK  status: ('A' for Active; 'I' for Inactive)
ROOT
HETATM    1  C   LIG     1      16.716  35.206  21.236  1.00  0.00     0.043 C 
HETATM    2  C   LIG     1      16.976  36.228  22.308  1.00  0.00    -0.087 C 
HETATM    3  C   LIG     1      17.052  35.824  23.594  1.00  0.00    -0.024 C 
HETATM    4  C   LIG     1      17.258  36.781  24.744  1.00  0.00     0.027 C 
HETATM    5  C   LIG     1      17.887  38.104  24.298  1.00  0.00     0.004 C 
HETATM    6  C   LIG     1      17.157  38.646  23.069  1.00  0.00     0.005 C 
HETATM    7  C   LIG     1      17.274  37.658  21.902  1.00  0.00     0.033 C 
ENDROOT
TORSDOF 0
ENDMDL
MODEL 15
REMARK VINA RESULT:      -4.7      8.996     11.535
REMARK  0 active torsions:
REMARK  status: ('A' for Active; 'I' for Inactive)
ROOT
HETATM    1  C   LIG     1      15.235  33.112  16.855  1.00  0.00     0.043 C 
HETATM    2  C   LIG     1      14.907  31.994  15.904  1.00  0.00    -0.087 C 
HETATM    3  C   LIG     1      15.661  31.834  14.795  1.00  0.00    -0.024 C 
HETATM    4  C   LIG     1      15.379  30.775  13.757  1.00  0.00     0.027 C 
HETATM    5  C   LIG     1      14.545  29.617  14.314  1.00  0.00     0.004 C 
HETATM    6  C   LIG     1      13.347  30.158  15.094  1.00  0.00     0.005 C 
HETATM    7  C   LIG     1      13.823  31.003  16.282  1.00  0.00     0.033 C 
ENDROOT
TORSDOF 0
ENDMDL
MODEL 16
REMARK VINA RESULT:      -4.7      9.018     10.636
REMARK  0 active torsions:
REMARK  status: ('A' for Active; 'I' for Inactive)
ROOT
HETATM    1  C   LIG     1      15.306  30.267  13.633  1.00  0.00     0.043 C 
HETATM    2  C   LIG     1      14.957  31.035  14.878  1.00  0.00    -0.087 C 
HETATM    3  C   LIG     1      13.876  30.662  15.597  1.00  0.00    -0.024 C 
HETATM    4  C   LIG     1      13.416  31.402  16.829  1.00  0.00     0.027 C 
HETATM    5  C   LIG     1      14.536  32.231  17.467  1.00  0.00     0.004 C 
HETATM    6  C   LIG     1      15.257  33.050  16.397  1.00  0.00     0.005 C 
HETATM    7  C   LIG     1      15.898  32.122  15.358  1.00  0.00     0.033 C 
ENDROOT
TORSDOF 0
ENDMDL
MODEL 17
REMARK VINA RESULT:      -4.6      3.142      4.235
REMARK  0 active torsions:
REMARK  status: ('A' for Active; 'I' for Inactive)
ROOT
HETATM    1  C   LIG     1      18.697  39.216  21.672  1.00  0.00     0.043 C 
HETATM    2  C   LIG     1      17.724  38.069  21.676  1.00  0.00    -0.087 C 
HETATM    3  C   LIG     1      17.917  37.043  20.819  1.00  0.00    -0.024 C 
HETATM    4  C   LIG     1      16.968  35.874  20.713  1.00  0.00     0.027 C 
HETATM    5  C   LIG     1      16.117  35.695  21.973  1.00  0.00     0.004 C 
HETATM    6  C   LIG     1      15.517  37.035  22.398  1.00  0.00     0.005 C 
HETATM    7  C   LIG     1      16.632  38.036  22.727  1.00  0.00     0.033 C 
ENDROOT
TORSDOF 0
ENDMDL
MODEL 18
REMARK VINA RESULT:      -4.6     10.164     11.560
REMARK  0 active torsions:
REMARK  status: ('A' for Active; 'I' for Inactive)
ROOT
HETATM    1  C   LIG     1      13.006  30.652  16.567  1.00  0.00     0.043 C 
HETATM    2  C   LIG     1      14.144  30.982  15.639  1.00  0.00    -0.087 C 
HETATM    3  C   LIG     1      14.254  30.312  14.472  1.00  0.00    -0.024 C 
HETATM    4  C   LIG     1      15.388  30.536  13.502  1.00  0.00     0.027 C 
HETATM    5  C   LIG     1      16.059  31.900  13.691  1.00  0.00     0.004 C 
HETATM    6  C   LIG     1      16.358  32.139  15.170  1.00  0.00     0.005 C 
HETATM    7  C   LIG     1      15.056  32.144  15.982  1.00  0.00     0.033 C 
ENDROOT
TORSDOF 0
ENDMDL
MODEL 19
REMARK VINA RESULT:      -4.3      3.727      5.249
REMARK  0 active torsions:
REMARK  status: ('A' for Active; 'I' for Inactive)
ROOT
HETATM    1  C   LIG     1      18.578  39.826  22.005  1.00  0.00     0.043 C 
HETATM    2  C   LIG     1      18.394  38.527  21.270  1.00  0.00    -0.087 C 
HETATM    3  C   LIG     1      17.528  37.613  21.760  1.00  0.00    -0.024 C 
HETATM    4  C   LIG     1      17.315  36.261  21.123  1.00  0.00     0.027 C 
HETATM    5  C   LIG     1      17.733  36.236  19.650  1.00  0.00     0.004 C 
HETATM    6  C   LIG     1      19.115  36.867  19.484  1.00  0.00     0.005 C 
HETATM    7  C   LIG     1      19.087  38.333  19.936  1.00  0.00     0.033 C 
ENDROOT
TORSDOF 0
ENDMDL
