MODEL 1
REMARK VINA RESULT:      -4.2      0.000      0.000
REMARK  2 active torsions:
REMARK  status: ('A' for Active; 'I' for Inactive)
REMARK    1  A    between atoms: C_2  and  C_3 
REMARK    2  A    between atoms: C_3  and  C_4 
ROOT
HETATM    1  C   LIG     1      18.576  36.728  26.421  1.00  0.00     0.052 C 
ENDROOT
BRANCH   1   2
HETATM    2  C   LIG     1      18.288  35.255  26.384  1.00  0.00    -0.033 C 
HETATM    3  C   LIG     1      17.265  34.755  25.682  1.00  0.00     0.007 C 
ENDBRANCH   1   2
BRANCH   1   4
HETATM    4  C   LIG     1      17.555  37.488  25.617  1.00  0.00    -0.033 C 
HETATM    5  C   LIG     1      17.881  38.155  24.506  1.00  0.00     0.007 C 
ENDBRANCH   1   4
TORSDOF 2
ENDMDL
MODEL 2
REMARK VINA RESULT:      -4.2      0.051      2.785
REMARK  2 active torsions:
REMARK  status: ('A' for Active; 'I' for Inactive)
REMARK    1  A    between atoms: C_2  and  C_3 
REMARK    2  A    between atoms: C_3  and  C_4 
ROOT
HETATM    1  C   LIG     1      18.579  36.708  26.475  1.00  0.00     0.052 C 
ENDROOT
BRANCH   1   2
HETATM    2  C   LIG     1      17.585  37.487  25.661  1.00  0.00    -0.033 C 
HETATM    3  C   LIG     1      17.939  38.131  24.544  1.00  0.00     0.007 C 
ENDBRANCH   1   2
BRANCH   1   4
HETATM    4  C   LIG     1      18.303  35.231  26.374  1.00  0.00    -0.033 C 
HETATM    5  C   LIG     1      17.255  34.749  25.701  1.00  0.00     0.007 C 
ENDBRANCH   1   4
TORSDOF 2
ENDMDL
MODEL 3
REMARK VINA RESULT:      -4.1      1.457      2.558
REMARK  2 active torsions:
REMARK  status: ('A' for Active; 'I' for Inactive)
REMARK    1  A    between atoms: C_2  and  C_3 
REMARK    2  A    between atoms: C_3  and  C_4 
ROOT
HETATM    1  C   LIG     1      17.281  34.810  25.431  1.00  0.00     0.052 C 
ENDROOT
BRANCH   1   2
HETATM    2  C   LIG     1      17.200  35.685  24.213  1.00  0.00    -0.033 C 
HETATM    3  C   LIG     1      16.994  35.176  22.993  1.00  0.00     0.007 C 
ENDBRANCH   1   2
BRANCH   1   4
HETATM    4  C   LIG     1      18.318  35.332  26.389  1.00  0.00    -0.033 C 
HETATM    5  C   LIG     1      18.518  36.639  26.575  1.00  0.00     0.007 C 
ENDBRANCH   1   4
TORSDOF 2
ENDMDL
MODEL 4
REMARK VINA RESULT:      -3.9      0.608      3.058
REMARK  2 active torsions:
REMARK  status: ('A' for Active; 'I' for Inactive)
REMARK    1  A    between atoms: C_2  and  C_3 
REMARK    2  A    between atoms: C_3  and  C_4 
ROOT
HETATM    1  C   LIG     1      17.531  37.246  25.764  1.00  0.00     0.052 C 
ENDROOT
BRANCH   1   2
HETATM    2  C   LIG     1      18.129  37.975  24.595  1.00  0.00    -0.033 C 
HETATM    3  C   LIG     1      17.387  38.366  23.554  1.00  0.00     0.007 C 
ENDBRANCH   1   2
BRANCH   1   4
HETATM    4  C   LIG     1      18.484  36.202  26.280  1.00  0.00    -0.033 C 
HETATM    5  C   LIG     1      18.182  34.900  26.272  1.00  0.00     0.007 C 
ENDBRANCH   1   4
TORSDOF 2
ENDMDL
MODEL 5
REMARK VINA RESULT:      -3.7      4.600      5.995
REMARK  2 active torsions:
REMARK  status: ('A' for Active; 'I' for Inactive)
REMARK    1  A    between atoms: C_2  and  C_3 
REMARK    2  A    between atoms: C_3  and  C_4 
ROOT
HETATM    1  C   LIG     1      18.894  39.340  20.263  1.00  0.00     0.052 C 
ENDROOT
BRANCH   1   2
HETATM    2  C   LIG     1      18.619  38.987  21.697  1.00  0.00    -0.033 C 
HETATM    3  C   LIG     1      17.373  38.908  22.176  1.00  0.00     0.007 C 
ENDBRANCH   1   2
BRANCH   1   4
HETATM    4  C   LIG     1      19.639  38.226  19.577  1.00  0.00    -0.033 C 
HETATM    5  C   LIG     1      19.153  36.983  19.512  1.00  0.00     0.007 C 
ENDBRANCH   1   4
TORSDOF 2
ENDMDL
MODEL 6
REMARK VINA RESULT:      -3.7      4.464      5.720
REMARK  2 active torsions:
REMARK  status: ('A' for Active; 'I' for Inactive)
REMARK    1  A    between atoms: C_2  and  C_3 
REMARK    2  A    between atoms: C_3  and  C_4 
ROOT
HETATM    1  C   LIG     1      18.823  39.142  20.729  1.00  0.00     0.052 C 
ENDROOT
BRANCH   1   2
HETATM    2  C   LIG     1      19.388  38.297  19.624  1.00  0.00    -0.033 C 
HETATM    3  C   LIG     1      19.116  36.991  19.526  1.00  0.00     0.007 C 
ENDBRANCH   1   2
BRANCH   1   4
HETATM    4  C   LIG     1      17.856  38.345  21.564  1.00  0.00    -0.033 C 
HETATM    5  C   LIG     1      17.030  38.924  22.440  1.00  0.00     0.007 C 
ENDBRANCH   1   4
TORSDOF 2
ENDMDL
MODEL 7
REMARK VINA RESULT:      -3.5      4.764      6.001
REMARK  2 active torsions:
REMARK  status: ('A' for Active; 'I' for Inactive)
REMARK    1  A    between atoms: C_2  and  C_3 
REMARK    2  A    between atoms: C_3  and  C_4 
ROOT
HETATM    1  C   LIG     1      18.007  38.333  21.273  1.00  0.00     0.052 C 
ENDROOT
BRANCH   1   2
HETATM    2  C   LIG     1      19.035  39.269  20.704  1.00  0.00    -0.033 C 
HETATM    3  C   LIG     1      19.935  38.862  19.803  1.00  0.00     0.007 C 
ENDBRANCH   1   2
BRANCH   1   4
HETATM    4  C   LIG     1      18.087  36.988  20.602  1.00  0.00    -0.033 C 
HETATM    5  C   LIG     1      17.340  35.953  20.997  1.00  0.00     0.007 C 
ENDBRANCH   1   4
TORSDOF 2
ENDMDL
MODEL 8
REMARK VINA RESULT:      -3.5      4.769      5.653
REMARK  2 active torsions:
REMARK  status: ('A' for Active; 'I' for Inactive)
REMARK    1  A    between atoms: C_2  and  C_3 
REMARK    2  A    between atoms: C_3  and  C_4 
ROOT
HETATM    1  C   LIG     1      18.613  36.910  19.949  1.00  0.00     0.052 C 
ENDROOT
BRANCH   1   2
HETATM    2  C   LIG     1      17.552  36.701  20.990  1.00  0.00    -0.033 C 
HETATM    3  C   LIG     1      17.098  35.481  21.298  1.00  0.00     0.007 C 
ENDBRANCH   1   2
BRANCH   1   4
HETATM    4  C   LIG     1      19.087  38.339  19.955  1.00  0.00    -0.033 C 
HETATM    5  C   LIG     1      20.290  38.689  19.493  1.00  0.00     0.007 C 
ENDBRANCH   1   4
TORSDOF 2
ENDMDL
MODEL 9
REMARK VINA RESULT:      -3.4     11.799     12.833
REMARK  2 active torsions:
REMARK  status: ('A' for Active; 'I' for Inactive)
REMARK    1  A    between atoms: C_2  and  C_3 
REMARK    2  A    between atoms: C_3  and  C_4 
ROOT
HETATM    1  C   LIG     1      13.323  30.027  14.925  1.00  0.00     0.052 C 
ENDROOT
BRANCH   1   2
HETATM    2  C   LIG     1      12.937  30.724  16.198  1.00  0.00    -0.033 C 
HETATM    3  C   LIG     1      13.816  31.451  16.897  1.00  0.00     0.007 C 
ENDBRANCH   1   2
BRANCH   1   4
HETATM    4  C   LIG     1      14.803  30.150  14.681  1.00  0.00    -0.033 C 
HETATM    5  C   LIG     1      15.297  30.581  13.517  1.00  0.00     0.007 C 
ENDBRANCH   1   4
TORSDOF 2
ENDMDL
MODEL 10
REMARK VINA RESULT:      -3.4      2.801      4.425
REMARK  2 active torsions:
REMARK  status: ('A' for Active; 'I' for Inactive)
REMARK    1  A    between atoms: C_2  and  C_3 
REMARK    2  A    between atoms: C_3  and  C_4 
ROOT
HETATM    1  C   LIG     1      17.517  38.159  21.876  1.00  0.00     0.052 C 
ENDROOT
BRANCH   1   2
HETATM    2  C   LIG     1      16.992  38.293  23.277  1.00  0.00    -0.033 C 
HETATM    3  C   LIG     1      17.786  38.146  24.343  1.00  0.00     0.007 C 
ENDBRANCH   1   2
BRANCH   1   4
HETATM    4  C   LIG     1      18.533  39.232  21.587  1.00  0.00    -0.033 C 
HETATM    5  C   LIG     1      19.176  39.302  20.418  1.00  0.00     0.007 C 
ENDBRANCH   1   4
TORSDOF 2
ENDMDL
MODEL 11
REMARK VINA RESULT:      -3.4     12.281     13.270
REMARK  2 active torsions:
REMARK  status: ('A' for Active; 'I' for Inactive)
REMARK    1  A    between atoms: C_2  and  C_3 
REMARK    2  A    between atoms: C_3  and  C_4 
ROOT
HETATM    1  C   LIG     1      14.858  30.776  14.826  1.00  0.00     0.052 C 
ENDROOT
BRANCH   1   2
HETATM    2  C   LIG     1      15.276  29.873  13.700  1.00  0.00    -0.033 C 
HETATM    3  C   LIG     1      15.257  28.541  13.822  1.00  0.00     0.007 C 
ENDBRANCH   1   2
BRANCH   1   4
HETATM    4  C   LIG     1      13.485  30.406  15.319  1.00  0.00    -0.033 C 
HETATM    5  C   LIG     1      12.930  30.996  16.381  1.00  0.00     0.007 C 
ENDBRANCH   1   4
TORSDOF 2
ENDMDL
MODEL 12
REMARK VINA RESULT:      -3.4      2.378      3.348
REMARK  2 active torsions:
REMARK  status: ('A' for Active; 'I' for Inactive)
REMARK    1  A    between atoms: C_2  and  C_3 
REMARK    2  A    between atoms: C_3  and  C_4 
ROOT
HETATM    1  C   LIG     1      17.096  37.779  22.639  1.00  0.00     0.052 C 
ENDROOT
BRANCH   1   2
HETATM    2  C   LIG     1      16.995  36.506  21.849  1.00  0.00    -0.033 C 
HETATM    3  C   LIG     1      16.916  35.312  22.446  1.00  0.00     0.007 C 
ENDBRANCH   1   2
BRANCH   1   4
HETATM    4  C   LIG     1      16.694  37.547  24.071  1.00  0.00    -0.033 C 
HETATM    5  C   LIG     1      17.386  38.057  25.094  1.00  0.00     0.007 C 
ENDBRANCH   1   4
TORSDOF 2
ENDMDL
MODEL 13
REMARK VINA RESULT:      -3.3      2.301      3.767
REMARK  2 active torsions:
REMARK  status: ('A' for Active; 'I' for Inactive)
REMARK    1  A    between atoms: C_2  and  C_3 
REMARK    2  A    between atoms: C_3  and  C_4 
ROOT
HETATM    1  C   LIG     1      16.485  37.755  22.899  1.00  0.00     0.052 C 
ENDROOT
BRANCH   1   2
HETATM    2  C   LIG     1      17.546  38.160  23.882  1.00  0.00    -0.033 C 
HETATM    3  C   LIG     1      17.359  38.054  25.202  1.00  0.00     0.007 C 
ENDBRANCH   1   2
BRANCH   1   4
HETATM    4  C   LIG     1      16.956  36.599  22.058  1.00  0.00    -0.033 C 
HETATM    5  C   LIG     1      16.905  35.338  22.494  1.00  0.00     0.007 C 
ENDBRANCH   1   4
TORSDOF 2
ENDMDL
MODEL 14
REMARK VINA RESULT:      -3.2      8.934      9.993
REMARK  2 active torsions:
REMARK  status: ('A' for Active; 'I' for Inactive)
REMARK    1  A    between atoms: C_2  and  C_3 
REMARK    2  A    between atoms: C_3  and  C_4 
ROOT
HETATM    1  C   LIG     1      14.679  32.508  17.582  1.00  0.00     0.052 C 
ENDROOT
BRANCH   1   2
HETATM    2  C   LIG     1      15.327  32.370  18.930  1.00  0.00    -0.033 C 
HETATM    3  C   LIG     1      14.871  31.508  19.845  1.00  0.00     0.007 C 
ENDBRANCH   1   2
BRANCH   1   4
HETATM    4  C   LIG     1      13.877  31.278  17.251  1.00  0.00    -0.033 C 
HETATM    5  C   LIG     1      13.679  30.878  15.992  1.00  0.00     0.007 C 
ENDBRANCH   1   4
TORSDOF 2
ENDMDL
MODEL 15
REMARK VINA RESULT:      -3.2      9.240     10.320
REMARK  2 active torsions:
REMARK  status: ('A' for Active; 'I' for Inactive)
REMARK    1  A    between atoms: C_2  and  C_3 
REMARK    2  A    between atoms: C_3  and  C_4 
ROOT
HETATM    1  C   LIG     1      14.494  32.094  17.478  1.00  0.00     0.052 C 
ENDROOT
BRANCH   1   2
HETATM    2  C   LIG     1      13.586  31.159  16.731  1.00  0.00    -0.033 C 
HETATM    3  C   LIG     1      13.928  30.641  15.547  1.00  0.00     0.007 C 
ENDBRANCH   1   2
BRANCH   1   4
HETATM    4  C   LIG     1      14.627  31.669  18.915  1.00  0.00    -0.033 C 
HETATM    5  C   LIG     1      15.578  32.159  19.715  1.00  0.00     0.007 C 
ENDBRANCH   1   4
TORSDOF 2
ENDMDL
MODEL 16
REMARK VINA RESULT:      -3.2      4.477      5.617
REMARK  2 active torsions:
REMARK  status: ('A' for Active; 'I' for Inactive)
REMARK    1  A    between atoms: C_2  and  C_3 
REMARK    2  A    between atoms: C_3  and  C_4 
ROOT
HETATM    1  C   LIG     1      17.334  36.476  21.617  1.00  0.00     0.052 C 
ENDROOT
BRANCH   1   2
HETATM    2  C   LIG     1      18.096  37.351  20.663  1.00  0.00    -0.033 C 
HETATM    3  C   LIG     1      18.882  36.837  19.711  1.00  0.00     0.007 C 
ENDBRANCH   1   2
BRANCH   1   4
HETATM    4  C   LIG     1      16.375  35.588  20.871  1.00  0.00    -0.033 C 
HETATM    5  C   LIG     1      15.080  35.516  21.192  1.00  0.00     0.007 C 
ENDBRANCH   1   4
TORSDOF 2
ENDMDL
MODEL 17
REMARK VINA RESULT:      -3.2     11.692     12.291
REMARK  2 active torsions:
REMARK  status: ('A' for Active; 'I' for Inactive)
REMARK    1  A    between atoms: C_2  and  C_3 
REMARK    2  A    between atoms: C_3  and  C_4 
ROOT
HETATM    1  C   LIG     1      14.936  30.592  14.635  1.00  0.00     0.052 C 
ENDROOT
BRANCH   1   2
HETATM    2  C   LIG     1      13.554  30.259  15.121  1.00  0.00    -0.033 C 
HETATM    3  C   LIG     1      13.054  30.793  16.240  1.00  0.00     0.007 C 
ENDBRANCH   1   2
BRANCH   1   4
HETATM    4  C   LIG     1      15.452  31.832  15.315  1.00  0.00    -0.033 C 
HETATM    5  C   LIG     1      16.568  32.448  14.915  1.00  0.00     0.007 C 
ENDBRANCH   1   4
TORSDOF 2
ENDMDL
MODEL 18
REMARK VINA RESULT:      -3.2     10.805     11.870
REMARK  2 active torsions:
REMARK  status: ('A' for Active; 'I' for Inactive)
REMARK    1  A    between atoms: C_2  and  C_3 
REMARK    2  A    between atoms: C_3  and  C_4 
ROOT
HETATM    1  C   LIG     1      13.742  31.180  16.727  1.00  0.00     0.052 C 
ENDROOT
BRANCH   1   2
HETATM    2  C   LIG     1      14.838  32.152  16.395  1.00  0.00    -0.033 C 
HETATM    3  C   LIG     1      14.824  33.410  16.847  1.00  0.00     0.007 C 
ENDBRANCH   1   2
BRANCH   1   4
HETATM    4  C   LIG     1      13.294  30.445  15.492  1.00  0.00    -0.033 C 
HETATM    5  C   LIG     1      14.163  29.984  14.588  1.00  0.00     0.007 C 
ENDBRANCH   1   4
TORSDOF 2
ENDMDL
MODEL 19
REMARK VINA RESULT:      -3.2      4.021      4.841
REMARK  2 active torsions:
REMARK  status: ('A' for Active; 'I' for Inactive)
REMARK    1  A    between atoms: C_2  and  C_3 
REMARK    2  A    between atoms: C_3  and  C_4 
ROOT
HETATM    1  C   LIG     1      16.168  36.122  21.982  1.00  0.00     0.052 C 
ENDROOT
BRANCH   1   2
HETATM    2  C   LIG     1      15.434  35.415  20.878  1.00  0.00    -0.033 C 
HETATM    3  C   LIG     1      15.685  34.138  20.570  1.00  0.00     0.007 C 
ENDBRANCH   1   2
BRANCH   1   4
HETATM    4  C   LIG     1      17.056  35.161  22.727  1.00  0.00    -0.033 C 
HETATM    5  C   LIG     1      17.128  35.151  24.060  1.00  0.00     0.007 C 
ENDBRANCH   1   4
TORSDOF 2
ENDMDL
