MODEL 1
REMARK VINA RESULT:      -5.7      0.000      0.000
REMARK  0 active torsions:
REMARK  status: ('A' for Active; 'I' for Inactive)
ROOT
HETATM    1  O   LIG     1      17.192  35.835  19.824  1.00  0.00    -0.298 OA
HETATM    2  C   LIG     1      17.976  36.663  20.261  1.00  0.00     0.127 C 
HETATM    3  C   LIG     1      19.319  36.859  19.612  1.00  0.00     0.082 C 
HETATM    4  C   LIG     1      19.631  38.359  19.436  1.00  0.00    -0.012 C 
HETATM    5  C   LIG     1      18.853  38.958  18.254  1.00  0.00     0.010 C 
HETATM    6  C   LIG     1      19.382  39.138  20.749  1.00  0.00     0.005 C 
HETATM    7  C   LIG     1      17.960  38.929  21.300  1.00  0.00     0.008 C 
HETATM    8  C   LIG     1      17.646  37.441  21.503  1.00  0.00     0.078 C 
ENDROOT
TORSDOF 0
ENDMDL
MODEL 2
REMARK VINA RESULT:      -5.4      2.619      3.922
REMARK  0 active torsions:
REMARK  status: ('A' for Active; 'I' for Inactive)
ROOT
HETATM    1  O   LIG     1      16.126  37.899  24.365  1.00  0.00    -0.298 OA
HETATM    2  C   LIG     1      16.854  37.432  23.503  1.00  0.00     0.127 C 
HETATM    3  C   LIG     1      16.926  35.945  23.288  1.00  0.00     0.082 C 
HETATM    4  C   LIG     1      16.864  35.603  21.786  1.00  0.00    -0.012 C 
HETATM    5  C   LIG     1      15.432  35.721  21.243  1.00  0.00     0.010 C 
HETATM    6  C   LIG     1      17.863  36.464  20.977  1.00  0.00     0.005 C 
HETATM    7  C   LIG     1      17.669  37.973  21.211  1.00  0.00     0.008 C 
HETATM    8  C   LIG     1      17.753  38.329  22.700  1.00  0.00     0.078 C 
ENDROOT
TORSDOF 0
ENDMDL
MODEL 3
REMARK VINA RESULT:      -5.2      3.336      4.654
REMARK  0 active torsions:
REMARK  status: ('A' for Active; 'I' for Inactive)
ROOT
HETATM    1  O   LIG     1      18.300  36.575  25.660  1.00  0.00    -0.298 OA
HETATM    2  C   LIG     1      17.461  36.477  24.778  1.00  0.00     0.127 C 
HETATM    3  C   LIG     1      16.655  37.675  24.356  1.00  0.00     0.082 C 
HETATM    4  C   LIG     1      16.580  37.773  22.819  1.00  0.00    -0.012 C 
HETATM    5  C   LIG     1      17.891  38.313  22.227  1.00  0.00     0.010 C 
HETATM    6  C   LIG     1      16.177  36.418  22.193  1.00  0.00     0.005 C 
HETATM    7  C   LIG     1      17.099  35.266  22.630  1.00  0.00     0.008 C 
HETATM    8  C   LIG     1      17.163  35.142  24.157  1.00  0.00     0.078 C 
ENDROOT
TORSDOF 0
ENDMDL
MODEL 4
REMARK VINA RESULT:      -5.1      1.699      3.392
REMARK  0 active torsions:
REMARK  status: ('A' for Active; 'I' for Inactive)
ROOT
HETATM    1  O   LIG     1      19.080  36.354  19.822  1.00  0.00    -0.298 OA
HETATM    2  C   LIG     1      18.119  36.814  20.418  1.00  0.00     0.127 C 
HETATM    3  C   LIG     1      16.847  36.020  20.542  1.00  0.00     0.082 C 
HETATM    4  C   LIG     1      16.302  36.076  21.983  1.00  0.00    -0.012 C 
HETATM    5  C   LIG     1      17.096  35.152  22.920  1.00  0.00     0.010 C 
HETATM    6  C   LIG     1      16.258  37.531  22.506  1.00  0.00     0.005 C 
HETATM    7  C   LIG     1      17.620  38.239  22.400  1.00  0.00     0.008 C 
HETATM    8  C   LIG     1      18.161  38.212  20.965  1.00  0.00     0.078 C 
ENDROOT
TORSDOF 0
ENDMDL
MODEL 5
REMARK VINA RESULT:      -5.0      1.927      3.431
REMARK  0 active torsions:
REMARK  status: ('A' for Active; 'I' for Inactive)
ROOT
HETATM    1  O   LIG     1      18.988  39.673  19.849  1.00  0.00    -0.298 OA
HETATM    2  C   LIG     1      18.799  38.736  20.608  1.00  0.00     0.127 C 
HETATM    3  C   LIG     1      18.709  38.963  22.092  1.00  0.00     0.082 C 
HETATM    4  C   LIG     1      17.520  38.190  22.696  1.00  0.00    -0.012 C 
HETATM    5  C   LIG     1      16.185  38.892  22.400  1.00  0.00     0.010 C 
HETATM    6  C   LIG     1      17.516  36.716  22.225  1.00  0.00     0.005 C 
HETATM    7  C   LIG     1      17.541  36.586  20.691  1.00  0.00     0.008 C 
HETATM    8  C   LIG     1      18.734  37.331  20.081  1.00  0.00     0.078 C 
ENDROOT
TORSDOF 0
ENDMDL
MODEL 6
REMARK VINA RESULT:      -4.9      1.730      3.316
REMARK  0 active torsions:
REMARK  status: ('A' for Active; 'I' for Inactive)
ROOT
HETATM    1  O   LIG     1      17.147  34.970  21.954  1.00  0.00    -0.298 OA
HETATM    2  C   LIG     1      17.077  36.160  21.689  1.00  0.00     0.127 C 
HETATM    3  C   LIG     1      16.148  37.059  22.457  1.00  0.00     0.082 C 
HETATM    4  C   LIG     1      16.852  38.372  22.851  1.00  0.00    -0.012 C 
HETATM    5  C   LIG     1      17.805  38.164  24.038  1.00  0.00     0.010 C 
HETATM    6  C   LIG     1      17.572  39.004  21.635  1.00  0.00     0.005 C 
HETATM    7  C   LIG     1      18.552  38.030  20.956  1.00  0.00     0.008 C 
HETATM    8  C   LIG     1      17.856  36.729  20.538  1.00  0.00     0.078 C 
ENDROOT
TORSDOF 0
ENDMDL
MODEL 7
REMARK VINA RESULT:      -4.8      2.889      4.280
REMARK  0 active torsions:
REMARK  status: ('A' for Active; 'I' for Inactive)
ROOT
HETATM    1  O   LIG     1      18.137  38.297  24.279  1.00  0.00    -0.298 OA
HETATM    2  C   LIG     1      17.366  37.471  23.815  1.00  0.00     0.127 C 
HETATM    3  C   LIG     1      16.548  37.793  22.594  1.00  0.00     0.082 C 
HETATM    4  C   LIG     1      16.577  36.625  21.589  1.00  0.00    -0.012 C 
HETATM    5  C   LIG     1      17.905  36.582  20.818  1.00  0.00     0.010 C 
HETATM    6  C   LIG     1      16.269  35.280  22.288  1.00  0.00     0.005 C 
HETATM    7  C   LIG     1      17.201  35.007  23.482  1.00  0.00     0.008 C 
HETATM    8  C   LIG     1      17.162  36.152  24.502  1.00  0.00     0.078 C 
ENDROOT
TORSDOF 0
ENDMDL
MODEL 8
REMARK VINA RESULT:      -4.7      3.939      4.651
REMARK  0 active torsions:
REMARK  status: ('A' for Active; 'I' for Inactive)
ROOT
HETATM    1  O   LIG     1      16.667  34.695  25.261  1.00  0.00    -0.298 OA
HETATM    2  C   LIG     1      17.208  35.661  24.747  1.00  0.00     0.127 C 
HETATM    3  C   LIG     1      17.245  35.808  23.250  1.00  0.00     0.082 C 
HETATM    4  C   LIG     1      16.881  37.246  22.830  1.00  0.00    -0.012 C 
HETATM    5  C   LIG     1      15.367  37.492  22.923  1.00  0.00     0.010 C 
HETATM    6  C   LIG     1      17.688  38.286  23.643  1.00  0.00     0.005 C 
HETATM    7  C   LIG     1      17.534  38.097  25.163  1.00  0.00     0.008 C 
HETATM    8  C   LIG     1      17.917  36.677  25.597  1.00  0.00     0.078 C 
ENDROOT
TORSDOF 0
ENDMDL
MODEL 9
REMARK VINA RESULT:      -4.7      8.480      9.676
REMARK  0 active torsions:
REMARK  status: ('A' for Active; 'I' for Inactive)
ROOT
HETATM    1  O   LIG     1      17.238  32.111  15.037  1.00  0.00    -0.298 OA
HETATM    2  C   LIG     1      16.063  31.810  14.893  1.00  0.00     0.127 C 
HETATM    3  C   LIG     1      15.574  31.248  13.586  1.00  0.00     0.082 C 
HETATM    4  C   LIG     1      14.658  30.031  13.819  1.00  0.00    -0.012 C 
HETATM    5  C   LIG     1      15.472  28.777  14.175  1.00  0.00     0.010 C 
HETATM    6  C   LIG     1      13.577  30.341  14.881  1.00  0.00     0.005 C 
HETATM    7  C   LIG     1      14.177  30.844  16.206  1.00  0.00     0.008 C 
HETATM    8  C   LIG     1      15.071  32.072  15.990  1.00  0.00     0.078 C 
ENDROOT
TORSDOF 0
ENDMDL
MODEL 10
REMARK VINA RESULT:      -4.7      1.094      2.597
REMARK  0 active torsions:
REMARK  status: ('A' for Active; 'I' for Inactive)
ROOT
HETATM    1  O   LIG     1      17.654  35.650  21.463  1.00  0.00    -0.298 OA
HETATM    2  C   LIG     1      17.807  36.770  21.001  1.00  0.00     0.127 C 
HETATM    3  C   LIG     1      17.123  37.954  21.630  1.00  0.00     0.082 C 
HETATM    4  C   LIG     1      18.098  39.139  21.775  1.00  0.00    -0.012 C 
HETATM    5  C   LIG     1      19.060  38.932  22.955  1.00  0.00     0.010 C 
HETATM    6  C   LIG     1      18.854  39.404  20.451  1.00  0.00     0.005 C 
HETATM    7  C   LIG     1      19.577  38.153  19.922  1.00  0.00     0.008 C 
HETATM    8  C   LIG     1      18.612  36.973  19.750  1.00  0.00     0.078 C 
ENDROOT
TORSDOF 0
ENDMDL
MODEL 11
REMARK VINA RESULT:      -4.6      2.589      3.979
REMARK  0 active torsions:
REMARK  status: ('A' for Active; 'I' for Inactive)
ROOT
HETATM    1  O   LIG     1      18.641  38.681  22.548  1.00  0.00    -0.298 OA
HETATM    2  C   LIG     1      17.614  38.181  22.115  1.00  0.00     0.127 C 
HETATM    3  C   LIG     1      17.673  37.015  21.167  1.00  0.00     0.082 C 
HETATM    4  C   LIG     1      16.661  35.925  21.571  1.00  0.00    -0.012 C 
HETATM    5  C   LIG     1      17.164  35.111  22.773  1.00  0.00     0.010 C 
HETATM    6  C   LIG     1      15.261  36.532  21.827  1.00  0.00     0.005 C 
HETATM    7  C   LIG     1      15.291  37.672  22.861  1.00  0.00     0.008 C 
HETATM    8  C   LIG     1      16.277  38.775  22.457  1.00  0.00     0.078 C 
ENDROOT
TORSDOF 0
ENDMDL
MODEL 12
REMARK VINA RESULT:      -4.5      6.920      8.391
REMARK  0 active torsions:
REMARK  status: ('A' for Active; 'I' for Inactive)
ROOT
HETATM    1  O   LIG     1      15.723  34.424  16.409  1.00  0.00    -0.298 OA
HETATM    2  C   LIG     1      15.573  33.214  16.351  1.00  0.00     0.127 C 
HETATM    3  C   LIG     1      14.964  32.464  17.504  1.00  0.00     0.082 C 
HETATM    4  C   LIG     1      13.909  31.455  17.008  1.00  0.00    -0.012 C 
HETATM    5  C   LIG     1      12.595  32.157  16.632  1.00  0.00     0.010 C 
HETATM    6  C   LIG     1      14.461  30.597  15.845  1.00  0.00     0.005 C 
HETATM    7  C   LIG     1      15.000  31.452  14.684  1.00  0.00     0.008 C 
HETATM    8  C   LIG     1      16.069  32.443  15.161  1.00  0.00     0.078 C 
ENDROOT
TORSDOF 0
ENDMDL
MODEL 13
REMARK VINA RESULT:      -4.5      2.480      4.198
REMARK  0 active torsions:
REMARK  status: ('A' for Active; 'I' for Inactive)
ROOT
HETATM    1  O   LIG     1      17.724  37.061  20.834  1.00  0.00    -0.298 OA
HETATM    2  C   LIG     1      17.455  37.605  21.894  1.00  0.00     0.127 C 
HETATM    3  C   LIG     1      16.237  37.193  22.675  1.00  0.00     0.082 C 
HETATM    4  C   LIG     1      16.571  37.034  24.171  1.00  0.00    -0.012 C 
HETATM    5  C   LIG     1      17.321  35.720  24.442  1.00  0.00     0.010 C 
HETATM    6  C   LIG     1      17.346  38.262  24.703  1.00  0.00     0.005 C 
HETATM    7  C   LIG     1      18.612  38.565  23.881  1.00  0.00     0.008 C 
HETATM    8  C   LIG     1      18.289  38.750  22.394  1.00  0.00     0.078 C 
ENDROOT
TORSDOF 0
ENDMDL
MODEL 14
REMARK VINA RESULT:      -4.4      7.161      8.363
REMARK  0 active torsions:
REMARK  status: ('A' for Active; 'I' for Inactive)
ROOT
HETATM    1  O   LIG     1      15.699  31.878  13.765  1.00  0.00    -0.298 OA
HETATM    2  C   LIG     1      15.403  31.582  14.912  1.00  0.00     0.127 C 
HETATM    3  C   LIG     1      16.210  32.107  16.068  1.00  0.00     0.082 C 
HETATM    4  C   LIG     1      15.290  32.622  17.192  1.00  0.00    -0.012 C 
HETATM    5  C   LIG     1      14.696  33.996  16.845  1.00  0.00     0.010 C 
HETATM    6  C   LIG     1      14.193  31.586  17.534  1.00  0.00     0.005 C 
HETATM    7  C   LIG     1      13.377  31.160  16.300  1.00  0.00     0.008 C 
HETATM    8  C   LIG     1      14.280  30.622  15.184  1.00  0.00     0.078 C 
ENDROOT
TORSDOF 0
ENDMDL
MODEL 15
REMARK VINA RESULT:      -4.1      1.126      1.462
REMARK  0 active torsions:
REMARK  status: ('A' for Active; 'I' for Inactive)
ROOT
HETATM    1  O   LIG     1      16.332  36.976  21.611  1.00  0.00    -0.298 OA
HETATM    2  C   LIG     1      17.472  37.363  21.407  1.00  0.00     0.127 C 
HETATM    3  C   LIG     1      18.472  36.467  20.731  1.00  0.00     0.082 C 
HETATM    4  C   LIG     1      19.253  37.234  19.645  1.00  0.00    -0.012 C 
HETATM    5  C   LIG     1      18.408  37.426  18.377  1.00  0.00     0.010 C 
HETATM    6  C   LIG     1      19.792  38.577  20.191  1.00  0.00     0.005 C 
HETATM    7  C   LIG     1      18.685  39.454  20.803  1.00  0.00     0.008 C 
HETATM    8  C   LIG     1      17.917  38.710  21.902  1.00  0.00     0.078 C 
ENDROOT
TORSDOF 0
ENDMDL
MODEL 16
REMARK VINA RESULT:      -4.1      7.849      9.032
REMARK  0 active torsions:
REMARK  status: ('A' for Active; 'I' for Inactive)
ROOT
HETATM    1  O   LIG     1      13.860  31.008  17.522  1.00  0.00    -0.298 OA
HETATM    2  C   LIG     1      14.108  31.223  16.345  1.00  0.00     0.127 C 
HETATM    3  C   LIG     1      14.709  32.536  15.921  1.00  0.00     0.082 C 
HETATM    4  C   LIG     1      15.866  32.315  14.926  1.00  0.00    -0.012 C 
HETATM    5  C   LIG     1      17.140  31.843  15.644  1.00  0.00     0.010 C 
HETATM    6  C   LIG     1      15.449  31.350  13.791  1.00  0.00     0.005 C 
HETATM    7  C   LIG     1      14.911  30.009  14.323  1.00  0.00     0.008 C 
HETATM    8  C   LIG     1      13.742  30.215  15.294  1.00  0.00     0.078 C 
ENDROOT
TORSDOF 0
ENDMDL
MODEL 17
REMARK VINA RESULT:      -4.1      2.180      3.304
REMARK  0 active torsions:
REMARK  status: ('A' for Active; 'I' for Inactive)
ROOT
HETATM    1  O   LIG     1      16.011  34.547  19.572  1.00  0.00    -0.298 OA
HETATM    2  C   LIG     1      16.063  35.056  20.680  1.00  0.00     0.127 C 
HETATM    3  C   LIG     1      17.374  35.165  21.409  1.00  0.00     0.082 C 
HETATM    4  C   LIG     1      17.546  36.566  22.028  1.00  0.00    -0.012 C 
HETATM    5  C   LIG     1      17.930  37.606  20.963  1.00  0.00     0.010 C 
HETATM    6  C   LIG     1      16.283  36.985  22.817  1.00  0.00     0.005 C 
HETATM    7  C   LIG     1      15.002  36.907  21.969  1.00  0.00     0.008 C 
HETATM    8  C   LIG     1      14.807  35.509  21.368  1.00  0.00     0.078 C 
ENDROOT
TORSDOF 0
ENDMDL
MODEL 18
REMARK VINA RESULT:      -3.7     20.059     20.913
REMARK  0 active torsions:
REMARK  status: ('A' for Active; 'I' for Inactive)
ROOT
HETATM    1  O   LIG     1       5.625  40.488  35.848  1.00  0.00    -0.298 OA
HETATM    2  C   LIG     1       4.579  40.750  35.275  1.00  0.00     0.127 C 
HETATM    3  C   LIG     1       3.732  41.908  35.727  1.00  0.00     0.082 C 
HETATM    4  C   LIG     1       3.254  42.744  34.523  1.00  0.00    -0.012 C 
HETATM    5  C   LIG     1       4.378  43.640  33.981  1.00  0.00     0.010 C 
HETATM    6  C   LIG     1       2.652  41.840  33.421  1.00  0.00     0.005 C 
HETATM    7  C   LIG     1       3.618  40.727  32.976  1.00  0.00     0.008 C 
HETATM    8  C   LIG     1       4.081  39.873  34.162  1.00  0.00     0.078 C 
ENDROOT
TORSDOF 0
ENDMDL
MODEL 19
REMARK VINA RESULT:      -3.5     18.869     19.700
REMARK  0 active torsions:
REMARK  status: ('A' for Active; 'I' for Inactive)
ROOT
HETATM    1  O   LIG     1      26.813  29.774  34.303  1.00  0.00    -0.298 OA
HETATM    2  C   LIG     1      26.998  30.662  35.120  1.00  0.00     0.127 C 
HETATM    3  C   LIG     1      25.834  31.311  35.817  1.00  0.00     0.082 C 
HETATM    4  C   LIG     1      26.105  31.451  37.328  1.00  0.00    -0.012 C 
HETATM    5  C   LIG     1      25.930  30.109  38.056  1.00  0.00     0.010 C 
HETATM    6  C   LIG     1      27.497  32.074  37.589  1.00  0.00     0.005 C 
HETATM    7  C   LIG     1      28.631  31.302  36.891  1.00  0.00     0.008 C 
HETATM    8  C   LIG     1      28.384  31.178  35.383  1.00  0.00     0.078 C 
ENDROOT
TORSDOF 0
ENDMDL
MODEL 20
REMARK VINA RESULT:      -3.5     19.266     20.096
REMARK  0 active torsions:
REMARK  status: ('A' for Active; 'I' for Inactive)
ROOT
HETATM    1  O   LIG     1      27.590  28.263  37.474  1.00  0.00    -0.298 OA
HETATM    2  C   LIG     1      26.848  29.079  36.950  1.00  0.00     0.127 C 
HETATM    3  C   LIG     1      25.932  29.926  37.789  1.00  0.00     0.082 C 
HETATM    4  C   LIG     1      25.974  31.399  37.334  1.00  0.00    -0.012 C 
HETATM    5  C   LIG     1      27.249  32.101  37.824  1.00  0.00     0.010 C 
HETATM    6  C   LIG     1      25.803  31.513  35.801  1.00  0.00     0.005 C 
HETATM    7  C   LIG     1      26.827  30.664  35.027  1.00  0.00     0.008 C 
HETATM    8  C   LIG     1      26.778  29.191  35.453  1.00  0.00     0.078 C 
ENDROOT
TORSDOF 0
ENDMDL
