REMARK  0 active torsions:
REMARK  status: ('A' for Active; 'I' for Inactive)
REMARK       I    between atoms: C_2  and  N_3 
REMARK       I    between atoms: N_3  and  C_4 
REMARK       I    between atoms: C_4  and  N_5 
ROOT
HETATM    1  C   LIG     1      -2.320  -0.267   0.108  1.00  0.00     0.117 C 
HETATM    2  C   LIG     1      -1.050   0.515   0.018  1.00  0.00     0.221 C 
HETATM    3  N   LIG     1       0.210  -0.173  -0.000  1.00  0.00    -0.280 N 
HETATM    4  C   LIG     1       1.484   0.483  -0.084  1.00  0.00     0.320 C 
HETATM    5  N   LIG     1       2.683  -0.292  -0.096  1.00  0.00    -0.352 N 
HETATM    6  O   LIG     1       1.561   1.739  -0.147  1.00  0.00    -0.247 OA
HETATM    7  O   LIG     1      -1.101   1.774  -0.041  1.00  0.00    -0.274 OA
HETATM    8  H   LIG     1       0.198  -1.217   0.051  1.00  0.00     0.173 HD
HETATM    9  H   LIG     1       3.614   0.176  -0.156  1.00  0.00     0.160 HD
HETATM   10  H   LIG     1       2.642  -1.334  -0.044  1.00  0.00     0.160 HD
ENDROOT
TORSDOF 0
