REMARK  3 active torsions:
REMARK  status: ('A' for Active; 'I' for Inactive)
REMARK    1  A    between atoms: C_2  and  C_3 
REMARK    2  A    between atoms: C_3  and  C_4 
REMARK    3  A    between atoms: C_4  and  C_5 
ROOT
HETATM    1  C   LIG     1      -0.545  -0.060   0.528  1.00  0.00     0.077 C 
ENDROOT
BRANCH   1   2
HETATM    2  C   LIG     1      -1.913  -0.559   0.140  1.00  0.00     0.123 C 
HETATM    3  C   LIG     1      -2.873   0.305  -0.624  1.00  0.00     0.091 C 
HETATM    4  O   LIG     1      -2.255  -1.687   0.462  1.00  0.00    -0.298 OA
ENDBRANCH   1   2
BRANCH   1   5
HETATM    5  C   LIG     1       0.546  -0.814  -0.245  1.00  0.00     0.007 C 
BRANCH   5   6
HETATM    6  C   LIG     1       1.963  -0.415   0.194  1.00  0.00    -0.004 C 
HETATM    7  C   LIG     1       2.351   0.991  -0.262  1.00  0.00     0.005 C 
ENDBRANCH   5   6
ENDBRANCH   1   5
TORSDOF 3
