REMARK  0 active torsions:
REMARK  status: ('A' for Active; 'I' for Inactive)
ROOT
HETATM    1  O   LIG     1      -1.475   2.090   1.048  1.00  0.00    -0.298 OA
HETATM    2  C   LIG     1      -1.116   1.173   0.326  1.00  0.00     0.127 C 
HETATM    3  C   LIG     1       0.011   1.368  -0.651  1.00  0.00     0.082 C 
HETATM    4  C   LIG     1       0.991   0.179  -0.605  1.00  0.00    -0.012 C 
HETATM    5  C   LIG     1       1.905   0.253   0.628  1.00  0.00     0.010 C 
HETATM    6  C   LIG     1       0.236  -1.169  -0.686  1.00  0.00     0.005 C 
HETATM    7  C   LIG     1      -0.851  -1.304   0.395  1.00  0.00     0.008 C 
HETATM    8  C   LIG     1      -1.847  -0.139   0.343  1.00  0.00     0.078 C 
ENDROOT
TORSDOF 0
