REMARK  2 active torsions:
REMARK  status: ('A' for Active; 'I' for Inactive)
REMARK    1  A    between atoms: C_2  and  C_3 
REMARK    2  A    between atoms: C_3  and  C_4 
ROOT
HETATM    1  C   LIG     1       0.236  -0.786  -0.104  1.00  0.00     0.052 C 
ENDROOT
BRANCH   1   2
HETATM    2  C   LIG     1      -1.100  -0.405  -0.675  1.00  0.00    -0.033 C 
HETATM    3  C   LIG     1      -2.139  -0.098   0.109  1.00  0.00     0.007 C 
ENDBRANCH   1   2
BRANCH   1   4
HETATM    4  C   LIG     1       0.895   0.404   0.541  1.00  0.00    -0.033 C 
HETATM    5  C   LIG     1       2.044   0.911   0.086  1.00  0.00     0.007 C 
ENDBRANCH   1   4
TORSDOF 2
