REMARK  0 active torsions:
REMARK  status: ('A' for Active; 'I' for Inactive)
ROOT
HETATM    1  I   LIG     1       3.417  -0.204  -0.106  1.00  0.00    -0.045 I 
HETATM    2  C   LIG     1       1.312  -0.078  -0.041  1.00  0.00     0.006 A 
HETATM    3  C   LIG     1       0.541  -1.246  -0.010  1.00  0.00     0.018 A 
HETATM    4  C   LIG     1      -0.855  -1.163   0.033  1.00  0.00     0.001 A 
HETATM    5  C   LIG     1      -1.481   0.088   0.046  1.00  0.00     0.000 A 
HETATM    6  C   LIG     1      -0.711   1.256   0.015  1.00  0.00     0.001 A 
HETATM    7  C   LIG     1       0.685   1.173  -0.028  1.00  0.00     0.018 A 
ENDROOT
TORSDOF 0
