MODEL 1
REMARK VINA RESULT:      -5.0      0.000      0.000
REMARK  4 active torsions:
REMARK  status: ('A' for Active; 'I' for Inactive)
REMARK       I    between atoms: N_1  and  C_2 
REMARK    1  A    between atoms: C_2  and  O_3 
REMARK    2  A    between atoms: O_3  and  C_4 
REMARK    3  A    between atoms: C_4  and  C_5 
REMARK    4  A    between atoms: C_5  and  C_6 
ROOT
HETATM    1  N   LIG     1      15.318  38.118  23.164  1.00  0.00    -0.346 N 
HETATM    2  C   LIG     1      16.714  38.327  22.977  1.00  0.00     0.358 C 
HETATM    3  O   LIG     1      17.118  39.007  21.995  1.00  0.00    -0.239 OA
HETATM    4  H   LIG     1      14.626  38.526  22.497  1.00  0.00     0.161 HD
HETATM    5  H   LIG     1      14.976  37.554  23.973  1.00  0.00     0.161 HD
ENDROOT
BRANCH   2   6
HETATM    6  O   LIG     1      17.622  37.767  23.881  1.00  0.00    -0.304 OA
BRANCH   6   7
HETATM    7  C   LIG     1      17.402  37.722  25.291  1.00  0.00     0.180 C 
BRANCH   7   8
HETATM    8  C   LIG     1      18.603  37.086  26.002  1.00  0.00     0.026 C 
BRANCH   8   9
HETATM    9  C   LIG     1      18.255  35.744  26.664  1.00  0.00    -0.002 C 
HETATM   10  C   LIG     1      17.426  34.836  25.757  1.00  0.00     0.005 C 
ENDBRANCH   8   9
ENDBRANCH   7   8
ENDBRANCH   6   7
ENDBRANCH   2   6
TORSDOF 4
ENDMDL
MODEL 2
REMARK VINA RESULT:      -4.8      2.314      4.327
REMARK  4 active torsions:
REMARK  status: ('A' for Active; 'I' for Inactive)
REMARK       I    between atoms: N_1  and  C_2 
REMARK    1  A    between atoms: C_2  and  O_3 
REMARK    2  A    between atoms: O_3  and  C_4 
REMARK    3  A    between atoms: C_4  and  C_5 
REMARK    4  A    between atoms: C_5  and  C_6 
ROOT
HETATM    1  N   LIG     1      17.569  38.175  25.961  1.00  0.00    -0.346 N 
HETATM    2  C   LIG     1      16.974  37.429  24.904  1.00  0.00     0.358 C 
HETATM    3  O   LIG     1      17.368  36.254  24.671  1.00  0.00    -0.239 OA
HETATM    4  H   LIG     1      18.326  37.756  26.547  1.00  0.00     0.161 HD
HETATM    5  H   LIG     1      17.251  39.149  26.159  1.00  0.00     0.161 HD
ENDROOT
BRANCH   2   6
HETATM    6  O   LIG     1      15.965  38.013  24.132  1.00  0.00    -0.304 OA
BRANCH   6   7
HETATM    7  C   LIG     1      16.039  38.148  22.713  1.00  0.00     0.180 C 
BRANCH   7   8
HETATM    8  C   LIG     1      17.221  39.046  22.321  1.00  0.00     0.026 C 
BRANCH   8   9
HETATM    9  C   LIG     1      18.177  38.365  21.331  1.00  0.00    -0.002 C 
HETATM   10  C   LIG     1      18.855  39.358  20.387  1.00  0.00     0.005 C 
ENDBRANCH   8   9
ENDBRANCH   7   8
ENDBRANCH   6   7
ENDBRANCH   2   6
TORSDOF 4
ENDMDL
MODEL 3
REMARK VINA RESULT:      -4.6      1.730      2.128
REMARK  4 active torsions:
REMARK  status: ('A' for Active; 'I' for Inactive)
REMARK       I    between atoms: N_1  and  C_2 
REMARK    1  A    between atoms: C_2  and  O_3 
REMARK    2  A    between atoms: O_3  and  C_4 
REMARK    3  A    between atoms: C_4  and  C_5 
REMARK    4  A    between atoms: C_5  and  C_6 
ROOT
HETATM    1  N   LIG     1      16.898  36.510  21.306  1.00  0.00    -0.346 N 
HETATM    2  C   LIG     1      16.819  36.281  22.710  1.00  0.00     0.358 C 
HETATM    3  O   LIG     1      17.036  35.126  23.167  1.00  0.00    -0.239 OA
HETATM    4  H   LIG     1      17.137  35.730  20.653  1.00  0.00     0.161 HD
HETATM    5  H   LIG     1      16.717  37.462  20.919  1.00  0.00     0.161 HD
ENDROOT
BRANCH   2   6
HETATM    6  O   LIG     1      16.493  37.340  23.564  1.00  0.00    -0.304 OA
BRANCH   6   7
HETATM    7  C   LIG     1      17.463  38.077  24.308  1.00  0.00     0.180 C 
BRANCH   7   8
HETATM    8  C   LIG     1      17.451  37.645  25.780  1.00  0.00     0.026 C 
BRANCH   8   9
HETATM    9  C   LIG     1      18.634  36.734  26.138  1.00  0.00    -0.002 C 
HETATM   10  C   LIG     1      18.209  35.290  26.402  1.00  0.00     0.005 C 
ENDBRANCH   8   9
ENDBRANCH   7   8
ENDBRANCH   6   7
ENDBRANCH   2   6
TORSDOF 4
ENDMDL
MODEL 4
REMARK VINA RESULT:      -4.6      2.752      3.002
REMARK  4 active torsions:
REMARK  status: ('A' for Active; 'I' for Inactive)
REMARK       I    between atoms: N_1  and  C_2 
REMARK    1  A    between atoms: C_2  and  O_3 
REMARK    2  A    between atoms: O_3  and  C_4 
REMARK    3  A    between atoms: C_4  and  C_5 
REMARK    4  A    between atoms: C_5  and  C_6 
ROOT
HETATM    1  N   LIG     1      14.420  35.621  21.215  1.00  0.00    -0.346 N 
HETATM    2  C   LIG     1      15.830  35.576  21.015  1.00  0.00     0.358 C 
HETATM    3  O   LIG     1      16.291  35.175  19.913  1.00  0.00    -0.239 OA
HETATM    4  H   LIG     1      13.766  35.329  20.455  1.00  0.00     0.161 HD
HETATM    5  H   LIG     1      14.030  35.949  22.126  1.00  0.00     0.161 HD
ENDROOT
BRANCH   2   6
HETATM    6  O   LIG     1      16.685  35.968  22.050  1.00  0.00    -0.304 OA
BRANCH   6   7
HETATM    7  C   LIG     1      17.019  35.129  23.155  1.00  0.00     0.180 C 
BRANCH   7   8
HETATM    8  C   LIG     1      17.213  35.967  24.426  1.00  0.00     0.026 C 
BRANCH   8   9
HETATM    9  C   LIG     1      17.711  35.132  25.615  1.00  0.00    -0.002 C 
HETATM   10  C   LIG     1      18.277  35.993  26.744  1.00  0.00     0.005 C 
ENDBRANCH   8   9
ENDBRANCH   7   8
ENDBRANCH   6   7
ENDBRANCH   2   6
TORSDOF 4
ENDMDL
MODEL 5
REMARK VINA RESULT:      -4.5      2.587      4.186
REMARK  4 active torsions:
REMARK  status: ('A' for Active; 'I' for Inactive)
REMARK       I    between atoms: N_1  and  C_2 
REMARK    1  A    between atoms: C_2  and  O_3 
REMARK    2  A    between atoms: O_3  and  C_4 
REMARK    3  A    between atoms: C_4  and  C_5 
REMARK    4  A    between atoms: C_5  and  C_6 
ROOT
HETATM    1  N   LIG     1      15.228  38.319  23.133  1.00  0.00    -0.346 N 
HETATM    2  C   LIG     1      16.353  37.719  23.767  1.00  0.00     0.358 C 
HETATM    3  O   LIG     1      16.825  38.231  24.817  1.00  0.00    -0.239 OA
HETATM    4  H   LIG     1      14.788  39.178  23.533  1.00  0.00     0.161 HD
HETATM    5  H   LIG     1      14.833  37.902  22.261  1.00  0.00     0.161 HD
ENDROOT
BRANCH   2   6
HETATM    6  O   LIG     1      16.927  36.571  23.210  1.00  0.00    -0.304 OA
BRANCH   6   7
HETATM    7  C   LIG     1      16.372  35.878  22.092  1.00  0.00     0.180 C 
BRANCH   7   8
HETATM    8  C   LIG     1      17.417  35.737  20.977  1.00  0.00     0.026 C 
BRANCH   8   9
HETATM    9  C   LIG     1      18.058  37.080  20.595  1.00  0.00    -0.002 C 
HETATM   10  C   LIG     1      19.144  36.933  19.530  1.00  0.00     0.005 C 
ENDBRANCH   8   9
ENDBRANCH   7   8
ENDBRANCH   6   7
ENDBRANCH   2   6
TORSDOF 4
ENDMDL
MODEL 6
REMARK VINA RESULT:      -4.5      2.334      3.636
REMARK  4 active torsions:
REMARK  status: ('A' for Active; 'I' for Inactive)
REMARK       I    between atoms: N_1  and  C_2 
REMARK    1  A    between atoms: C_2  and  O_3 
REMARK    2  A    between atoms: O_3  and  C_4 
REMARK    3  A    between atoms: C_4  and  C_5 
REMARK    4  A    between atoms: C_5  and  C_6 
ROOT
HETATM    1  N   LIG     1      17.072  36.205  25.259  1.00  0.00    -0.346 N 
HETATM    2  C   LIG     1      16.930  37.579  24.911  1.00  0.00     0.358 C 
HETATM    3  O   LIG     1      17.748  38.425  25.362  1.00  0.00    -0.239 OA
HETATM    4  H   LIG     1      17.851  35.893  25.882  1.00  0.00     0.161 HD
HETATM    5  H   LIG     1      16.397  35.498  24.893  1.00  0.00     0.161 HD
ENDROOT
BRANCH   2   6
HETATM    6  O   LIG     1      15.877  37.973  24.079  1.00  0.00    -0.304 OA
BRANCH   6   7
HETATM    7  C   LIG     1      15.733  37.530  22.730  1.00  0.00     0.180 C 
BRANCH   7   8
HETATM    8  C   LIG     1      17.060  37.677  21.973  1.00  0.00     0.026 C 
BRANCH   8   9
HETATM    9  C   LIG     1      17.468  36.390  21.240  1.00  0.00    -0.002 C 
HETATM   10  C   LIG     1      16.763  35.150  21.789  1.00  0.00     0.005 C 
ENDBRANCH   8   9
ENDBRANCH   7   8
ENDBRANCH   6   7
ENDBRANCH   2   6
TORSDOF 4
ENDMDL
MODEL 7
REMARK VINA RESULT:      -4.5      6.023      6.696
REMARK  4 active torsions:
REMARK  status: ('A' for Active; 'I' for Inactive)
REMARK       I    between atoms: N_1  and  C_2 
REMARK    1  A    between atoms: C_2  and  O_3 
REMARK    2  A    between atoms: O_3  and  C_4 
REMARK    3  A    between atoms: C_4  and  C_5 
REMARK    4  A    between atoms: C_5  and  C_6 
ROOT
HETATM    1  N   LIG     1      14.049  31.924  18.440  1.00  0.00    -0.346 N 
HETATM    2  C   LIG     1      14.934  31.827  19.552  1.00  0.00     0.358 C 
HETATM    3  O   LIG     1      14.953  30.774  20.244  1.00  0.00    -0.239 OA
HETATM    4  H   LIG     1      13.419  31.129  18.192  1.00  0.00     0.161 HD
HETATM    5  H   LIG     1      14.025  32.794  17.863  1.00  0.00     0.161 HD
ENDROOT
BRANCH   2   6
HETATM    6  O   LIG     1      15.766  32.907  19.867  1.00  0.00    -0.304 OA
BRANCH   6   7
HETATM    7  C   LIG     1      15.401  33.940  20.781  1.00  0.00     0.180 C 
BRANCH   7   8
HETATM    8  C   LIG     1      16.016  35.278  20.352  1.00  0.00     0.026 C 
BRANCH   8   9
HETATM    9  C   LIG     1      17.170  35.718  21.265  1.00  0.00    -0.002 C 
HETATM   10  C   LIG     1      16.961  35.305  22.721  1.00  0.00     0.005 C 
ENDBRANCH   8   9
ENDBRANCH   7   8
ENDBRANCH   6   7
ENDBRANCH   2   6
TORSDOF 4
ENDMDL
MODEL 8
REMARK VINA RESULT:      -4.4      2.802      4.602
REMARK  4 active torsions:
REMARK  status: ('A' for Active; 'I' for Inactive)
REMARK       I    between atoms: N_1  and  C_2 
REMARK    1  A    between atoms: C_2  and  O_3 
REMARK    2  A    between atoms: O_3  and  C_4 
REMARK    3  A    between atoms: C_4  and  C_5 
REMARK    4  A    between atoms: C_5  and  C_6 
ROOT
HETATM    1  N   LIG     1      17.020  36.729  23.710  1.00  0.00    -0.346 N 
HETATM    2  C   LIG     1      17.215  38.128  23.898  1.00  0.00     0.358 C 
HETATM    3  O   LIG     1      17.017  38.639  25.033  1.00  0.00    -0.239 OA
HETATM    4  H   LIG     1      16.717  36.124  24.506  1.00  0.00     0.161 HD
HETATM    5  H   LIG     1      17.180  36.299  22.773  1.00  0.00     0.161 HD
ENDROOT
BRANCH   2   6
HETATM    6  O   LIG     1      17.617  38.919  22.816  1.00  0.00    -0.304 OA
BRANCH   6   7
HETATM    7  C   LIG     1      17.882  38.395  21.515  1.00  0.00     0.180 C 
BRANCH   7   8
HETATM    8  C   LIG     1      18.980  39.212  20.822  1.00  0.00     0.026 C 
BRANCH   8   9
HETATM    9  C   LIG     1      19.604  38.471  19.630  1.00  0.00    -0.002 C 
HETATM   10  C   LIG     1      19.184  37.003  19.561  1.00  0.00     0.005 C 
ENDBRANCH   8   9
ENDBRANCH   7   8
ENDBRANCH   6   7
ENDBRANCH   2   6
TORSDOF 4
ENDMDL
MODEL 9
REMARK VINA RESULT:      -4.3      8.739      9.692
REMARK  4 active torsions:
REMARK  status: ('A' for Active; 'I' for Inactive)
REMARK       I    between atoms: N_1  and  C_2 
REMARK    1  A    between atoms: C_2  and  O_3 
REMARK    2  A    between atoms: O_3  and  C_4 
REMARK    3  A    between atoms: C_4  and  C_5 
REMARK    4  A    between atoms: C_5  and  C_6 
ROOT
HETATM    1  N   LIG     1      14.790  33.254  20.548  1.00  0.00    -0.346 N 
HETATM    2  C   LIG     1      14.994  32.229  19.581  1.00  0.00     0.358 C 
HETATM    3  O   LIG     1      14.608  31.054  19.827  1.00  0.00    -0.239 OA
HETATM    4  H   LIG     1      14.322  33.042  21.457  1.00  0.00     0.161 HD
HETATM    5  H   LIG     1      15.110  34.229  20.354  1.00  0.00     0.161 HD
ENDROOT
BRANCH   2   6
HETATM    6  O   LIG     1      15.628  32.537  18.373  1.00  0.00    -0.304 OA
BRANCH   6   7
HETATM    7  C   LIG     1      14.937  33.034  17.227  1.00  0.00     0.180 C 
BRANCH   7   8
HETATM    8  C   LIG     1      14.816  31.940  16.158  1.00  0.00     0.026 C 
BRANCH   8   9
HETATM    9  C   LIG     1      13.550  31.086  16.328  1.00  0.00    -0.002 C 
HETATM   10  C   LIG     1      13.302  30.157  15.140  1.00  0.00     0.005 C 
ENDBRANCH   8   9
ENDBRANCH   7   8
ENDBRANCH   6   7
ENDBRANCH   2   6
TORSDOF 4
ENDMDL
MODEL 10
REMARK VINA RESULT:      -4.3      9.766     10.752
REMARK  4 active torsions:
REMARK  status: ('A' for Active; 'I' for Inactive)
REMARK       I    between atoms: N_1  and  C_2 
REMARK    1  A    between atoms: C_2  and  O_3 
REMARK    2  A    between atoms: O_3  and  C_4 
REMARK    3  A    between atoms: C_4  and  C_5 
REMARK    4  A    between atoms: C_5  and  C_6 
ROOT
HETATM    1  N   LIG     1      13.922  32.882  17.118  1.00  0.00    -0.346 N 
HETATM    2  C   LIG     1      15.169  33.381  16.643  1.00  0.00     0.358 C 
HETATM    3  O   LIG     1      15.313  34.619  16.451  1.00  0.00    -0.239 OA
HETATM    4  H   LIG     1      13.129  33.533  17.312  1.00  0.00     0.161 HD
HETATM    5  H   LIG     1      13.793  31.858  17.276  1.00  0.00     0.161 HD
ENDROOT
BRANCH   2   6
HETATM    6  O   LIG     1      16.215  32.489  16.386  1.00  0.00    -0.304 OA
BRANCH   6   7
HETATM    7  C   LIG     1      16.790  32.303  15.093  1.00  0.00     0.180 C 
BRANCH   7   8
HETATM    8  C   LIG     1      15.763  31.690  14.133  1.00  0.00     0.026 C 
BRANCH   8   9
HETATM    9  C   LIG     1      15.354  30.265  14.535  1.00  0.00    -0.002 C 
HETATM   10  C   LIG     1      13.853  30.130  14.788  1.00  0.00     0.005 C 
ENDBRANCH   8   9
ENDBRANCH   7   8
ENDBRANCH   6   7
ENDBRANCH   2   6
TORSDOF 4
ENDMDL
MODEL 11
REMARK VINA RESULT:      -4.2      4.614      5.229
REMARK  4 active torsions:
REMARK  status: ('A' for Active; 'I' for Inactive)
REMARK       I    between atoms: N_1  and  C_2 
REMARK    1  A    between atoms: C_2  and  O_3 
REMARK    2  A    between atoms: O_3  and  C_4 
REMARK    3  A    between atoms: C_4  and  C_5 
REMARK    4  A    between atoms: C_5  and  C_6 
ROOT
HETATM    1  N   LIG     1      20.538  39.273  18.997  1.00  0.00    -0.346 N 
HETATM    2  C   LIG     1      19.204  38.989  18.587  1.00  0.00     0.358 C 
HETATM    3  O   LIG     1      18.478  39.917  18.138  1.00  0.00    -0.239 OA
HETATM    4  H   LIG     1      20.921  40.242  18.926  1.00  0.00     0.161 HD
HETATM    5  H   LIG     1      21.144  38.511  19.374  1.00  0.00     0.161 HD
ENDROOT
BRANCH   2   6
HETATM    6  O   LIG     1      18.712  37.684  18.697  1.00  0.00    -0.304 OA
BRANCH   6   7
HETATM    7  C   LIG     1      18.696  36.950  19.921  1.00  0.00     0.180 C 
BRANCH   7   8
HETATM    8  C   LIG     1      18.055  37.783  21.038  1.00  0.00     0.026 C 
BRANCH   8   9
HETATM    9  C   LIG     1      16.968  37.012  21.801  1.00  0.00    -0.002 C 
HETATM   10  C   LIG     1      17.069  35.499  21.603  1.00  0.00     0.005 C 
ENDBRANCH   8   9
ENDBRANCH   7   8
ENDBRANCH   6   7
ENDBRANCH   2   6
TORSDOF 4
ENDMDL
MODEL 12
REMARK VINA RESULT:      -4.2      3.867      4.882
REMARK  4 active torsions:
REMARK  status: ('A' for Active; 'I' for Inactive)
REMARK       I    between atoms: N_1  and  C_2 
REMARK    1  A    between atoms: C_2  and  O_3 
REMARK    2  A    between atoms: O_3  and  C_4 
REMARK    3  A    between atoms: C_4  and  C_5 
REMARK    4  A    between atoms: C_5  and  C_6 
ROOT
HETATM    1  N   LIG     1      14.693  34.507  21.409  1.00  0.00    -0.346 N 
HETATM    2  C   LIG     1      15.842  34.964  20.701  1.00  0.00     0.358 C 
HETATM    3  O   LIG     1      15.888  34.851  19.447  1.00  0.00    -0.239 OA
HETATM    4  H   LIG     1      13.888  34.082  20.897  1.00  0.00     0.161 HD
HETATM    5  H   LIG     1      14.648  34.595  22.448  1.00  0.00     0.161 HD
ENDROOT
BRANCH   2   6
HETATM    6  O   LIG     1      16.909  35.527  21.410  1.00  0.00    -0.304 OA
BRANCH   6   7
HETATM    7  C   LIG     1      17.562  36.734  21.020  1.00  0.00     0.180 C 
BRANCH   7   8
HETATM    8  C   LIG     1      17.311  37.838  22.055  1.00  0.00     0.026 C 
BRANCH   8   9
HETATM    9  C   LIG     1      18.168  39.088  21.806  1.00  0.00    -0.002 C 
HETATM   10  C   LIG     1      18.868  39.063  20.447  1.00  0.00     0.005 C 
ENDBRANCH   8   9
ENDBRANCH   7   8
ENDBRANCH   6   7
ENDBRANCH   2   6
TORSDOF 4
ENDMDL
MODEL 13
REMARK VINA RESULT:      -4.2      3.479      4.184
REMARK  4 active torsions:
REMARK  status: ('A' for Active; 'I' for Inactive)
REMARK       I    between atoms: N_1  and  C_2 
REMARK    1  A    between atoms: C_2  and  O_3 
REMARK    2  A    between atoms: O_3  and  C_4 
REMARK    3  A    between atoms: C_4  and  C_5 
REMARK    4  A    between atoms: C_5  and  C_6 
ROOT
HETATM    1  N   LIG     1      19.216  37.477  19.331  1.00  0.00    -0.346 N 
HETATM    2  C   LIG     1      19.642  38.695  19.934  1.00  0.00     0.358 C 
HETATM    3  O   LIG     1      20.409  39.470  19.301  1.00  0.00    -0.239 OA
HETATM    4  H   LIG     1      19.531  37.222  18.368  1.00  0.00     0.161 HD
HETATM    5  H   LIG     1      18.583  36.828  19.849  1.00  0.00     0.161 HD
ENDROOT
BRANCH   2   6
HETATM    6  O   LIG     1      19.210  39.012  21.226  1.00  0.00    -0.304 OA
BRANCH   6   7
HETATM    7  C   LIG     1      17.836  39.026  21.614  1.00  0.00     0.180 C 
BRANCH   7   8
HETATM    8  C   LIG     1      17.663  38.374  22.992  1.00  0.00     0.026 C 
BRANCH   8   9
HETATM    9  C   LIG     1      16.675  37.198  22.969  1.00  0.00    -0.002 C 
HETATM   10  C   LIG     1      16.995  36.180  21.874  1.00  0.00     0.005 C 
ENDBRANCH   8   9
ENDBRANCH   7   8
ENDBRANCH   6   7
ENDBRANCH   2   6
TORSDOF 4
ENDMDL
MODEL 14
REMARK VINA RESULT:      -4.1      9.815     10.681
REMARK  4 active torsions:
REMARK  status: ('A' for Active; 'I' for Inactive)
REMARK       I    between atoms: N_1  and  C_2 
REMARK    1  A    between atoms: C_2  and  O_3 
REMARK    2  A    between atoms: O_3  and  C_4 
REMARK    3  A    between atoms: C_4  and  C_5 
REMARK    4  A    between atoms: C_5  and  C_6 
ROOT
HETATM    1  N   LIG     1      17.723  33.510  15.000  1.00  0.00    -0.346 N 
HETATM    2  C   LIG     1      16.865  32.441  15.388  1.00  0.00     0.358 C 
HETATM    3  O   LIG     1      16.744  31.435  14.639  1.00  0.00    -0.239 OA
HETATM    4  H   LIG     1      18.254  33.466  14.102  1.00  0.00     0.161 HD
HETATM    5  H   LIG     1      17.826  34.349  15.613  1.00  0.00     0.161 HD
ENDROOT
BRANCH   2   6
HETATM    6  O   LIG     1      16.161  32.526  16.594  1.00  0.00    -0.304 OA
BRANCH   6   7
HETATM    7  C   LIG     1      14.772  32.844  16.672  1.00  0.00     0.180 C 
BRANCH   7   8
HETATM    8  C   LIG     1      13.995  31.693  17.324  1.00  0.00     0.026 C 
BRANCH   8   9
HETATM    9  C   LIG     1      12.901  31.124  16.408  1.00  0.00    -0.002 C 
HETATM   10  C   LIG     1      13.470  30.314  15.243  1.00  0.00     0.005 C 
ENDBRANCH   8   9
ENDBRANCH   7   8
ENDBRANCH   6   7
ENDBRANCH   2   6
TORSDOF 4
ENDMDL
MODEL 15
REMARK VINA RESULT:      -4.0      3.295      4.102
REMARK  4 active torsions:
REMARK  status: ('A' for Active; 'I' for Inactive)
REMARK       I    between atoms: N_1  and  C_2 
REMARK    1  A    between atoms: C_2  and  O_3 
REMARK    2  A    between atoms: O_3  and  C_4 
REMARK    3  A    between atoms: C_4  and  C_5 
REMARK    4  A    between atoms: C_5  and  C_6 
ROOT
HETATM    1  N   LIG     1      15.382  35.111  19.741  1.00  0.00    -0.346 N 
HETATM    2  C   LIG     1      15.442  34.778  21.125  1.00  0.00     0.358 C 
HETATM    3  O   LIG     1      14.553  34.040  21.628  1.00  0.00    -0.239 OA
HETATM    4  H   LIG     1      14.610  34.746  19.140  1.00  0.00     0.161 HD
HETATM    5  H   LIG     1      16.113  35.724  19.317  1.00  0.00     0.161 HD
ENDROOT
BRANCH   2   6
HETATM    6  O   LIG     1      16.484  35.282  21.910  1.00  0.00    -0.304 OA
BRANCH   6   7
HETATM    7  C   LIG     1      17.178  36.493  21.612  1.00  0.00     0.180 C 
BRANCH   7   8
HETATM    8  C   LIG     1      16.742  37.611  22.569  1.00  0.00     0.026 C 
BRANCH   8   9
HETATM    9  C   LIG     1      16.784  37.177  24.042  1.00  0.00    -0.002 C 
HETATM   10  C   LIG     1      17.546  38.164  24.926  1.00  0.00     0.005 C 
ENDBRANCH   8   9
ENDBRANCH   7   8
ENDBRANCH   6   7
ENDBRANCH   2   6
TORSDOF 4
ENDMDL
MODEL 16
REMARK VINA RESULT:      -4.0      4.029      5.418
REMARK  4 active torsions:
REMARK  status: ('A' for Active; 'I' for Inactive)
REMARK       I    between atoms: N_1  and  C_2 
REMARK    1  A    between atoms: C_2  and  O_3 
REMARK    2  A    between atoms: O_3  and  C_4 
REMARK    3  A    between atoms: C_4  and  C_5 
REMARK    4  A    between atoms: C_5  and  C_6 
ROOT
HETATM    1  N   LIG     1      16.436  35.398  19.941  1.00  0.00    -0.346 N 
HETATM    2  C   LIG     1      17.243  35.795  21.046  1.00  0.00     0.358 C 
HETATM    3  O   LIG     1      17.184  35.147  22.126  1.00  0.00    -0.239 OA
HETATM    4  H   LIG     1      15.800  34.574  20.017  1.00  0.00     0.161 HD
HETATM    5  H   LIG     1      16.477  35.931  19.045  1.00  0.00     0.161 HD
ENDROOT
BRANCH   2   6
HETATM    6  O   LIG     1      18.085  36.905  20.922  1.00  0.00    -0.304 OA
BRANCH   6   7
HETATM    7  C   LIG     1      17.827  38.161  21.548  1.00  0.00     0.180 C 
BRANCH   7   8
HETATM    8  C   LIG     1      18.579  39.286  20.824  1.00  0.00     0.026 C 
BRANCH   8   9
HETATM    9  C   LIG     1      19.553  38.756  19.761  1.00  0.00    -0.002 C 
HETATM   10  C   LIG     1      19.130  39.122  18.339  1.00  0.00     0.005 C 
ENDBRANCH   8   9
ENDBRANCH   7   8
ENDBRANCH   6   7
ENDBRANCH   2   6
TORSDOF 4
ENDMDL
MODEL 17
REMARK VINA RESULT:      -3.9      3.681      4.181
REMARK  4 active torsions:
REMARK  status: ('A' for Active; 'I' for Inactive)
REMARK       I    between atoms: N_1  and  C_2 
REMARK    1  A    between atoms: C_2  and  O_3 
REMARK    2  A    between atoms: O_3  and  C_4 
REMARK    3  A    between atoms: C_4  and  C_5 
REMARK    4  A    between atoms: C_5  and  C_6 
ROOT
HETATM    1  N   LIG     1      19.283  39.397  22.271  1.00  0.00    -0.346 N 
HETATM    2  C   LIG     1      18.472  38.873  21.225  1.00  0.00     0.358 C 
HETATM    3  O   LIG     1      18.577  39.340  20.059  1.00  0.00    -0.239 OA
HETATM    4  H   LIG     1      19.967  40.163  22.080  1.00  0.00     0.161 HD
HETATM    5  H   LIG     1      19.200  39.017  23.240  1.00  0.00     0.161 HD
ENDROOT
BRANCH   2   6
HETATM    6  O   LIG     1      17.561  37.849  21.507  1.00  0.00    -0.304 OA
BRANCH   6   7
HETATM    7  C   LIG     1      17.627  36.552  20.914  1.00  0.00     0.180 C 
BRANCH   7   8
HETATM    8  C   LIG     1      17.202  35.479  21.924  1.00  0.00     0.026 C 
BRANCH   8   9
HETATM    9  C   LIG     1      15.953  34.705  21.474  1.00  0.00    -0.002 C 
HETATM   10  C   LIG     1      14.762  35.620  21.192  1.00  0.00     0.005 C 
ENDBRANCH   8   9
ENDBRANCH   7   8
ENDBRANCH   6   7
ENDBRANCH   2   6
TORSDOF 4
ENDMDL
MODEL 18
REMARK VINA RESULT:      -3.9     11.326     12.190
REMARK  4 active torsions:
REMARK  status: ('A' for Active; 'I' for Inactive)
REMARK       I    between atoms: N_1  and  C_2 
REMARK    1  A    between atoms: C_2  and  O_3 
REMARK    2  A    between atoms: O_3  and  C_4 
REMARK    3  A    between atoms: C_4  and  C_5 
REMARK    4  A    between atoms: C_5  and  C_6 
ROOT
HETATM    1  N   LIG     1      17.563  33.388  12.899  1.00  0.00    -0.346 N 
HETATM    2  C   LIG     1      17.264  33.022  14.243  1.00  0.00     0.358 C 
HETATM    3  O   LIG     1      18.203  32.806  15.054  1.00  0.00    -0.239 OA
HETATM    4  H   LIG     1      18.554  33.481  12.582  1.00  0.00     0.161 HD
HETATM    5  H   LIG     1      16.791  33.567  12.219  1.00  0.00     0.161 HD
ENDROOT
BRANCH   2   6
HETATM    6  O   LIG     1      15.929  32.900  14.642  1.00  0.00    -0.304 OA
BRANCH   6   7
HETATM    7  C   LIG     1      15.334  31.661  15.027  1.00  0.00     0.180 C 
BRANCH   7   8
HETATM    8  C   LIG     1      15.361  30.667  13.859  1.00  0.00     0.026 C 
BRANCH   8   9
HETATM    9  C   LIG     1      14.560  29.390  14.150  1.00  0.00    -0.002 C 
HETATM   10  C   LIG     1      15.278  28.123  13.685  1.00  0.00     0.005 C 
ENDBRANCH   8   9
ENDBRANCH   7   8
ENDBRANCH   6   7
ENDBRANCH   2   6
TORSDOF 4
ENDMDL
MODEL 19
REMARK VINA RESULT:      -3.9      9.826     10.770
REMARK  4 active torsions:
REMARK  status: ('A' for Active; 'I' for Inactive)
REMARK       I    between atoms: N_1  and  C_2 
REMARK    1  A    between atoms: C_2  and  O_3 
REMARK    2  A    between atoms: O_3  and  C_4 
REMARK    3  A    between atoms: C_4  and  C_5 
REMARK    4  A    between atoms: C_5  and  C_6 
ROOT
HETATM    1  N   LIG     1      14.878  31.921  19.012  1.00  0.00    -0.346 N 
HETATM    2  C   LIG     1      14.945  32.724  17.837  1.00  0.00     0.358 C 
HETATM    3  O   LIG     1      15.536  33.836  17.874  1.00  0.00    -0.239 OA
HETATM    4  H   LIG     1      15.319  32.245  19.902  1.00  0.00     0.161 HD
HETATM    5  H   LIG     1      14.388  31.000  18.991  1.00  0.00     0.161 HD
ENDROOT
BRANCH   2   6
HETATM    6  O   LIG     1      14.344  32.271  16.658  1.00  0.00    -0.304 OA
BRANCH   6   7
HETATM    7  C   LIG     1      13.234  31.373  16.636  1.00  0.00     0.180 C 
BRANCH   7   8
HETATM    8  C   LIG     1      13.344  30.414  15.443  1.00  0.00     0.026 C 
BRANCH   8   9
HETATM    9  C   LIG     1      14.657  30.587  14.665  1.00  0.00    -0.002 C 
HETATM   10  C   LIG     1      15.183  29.270  14.095  1.00  0.00     0.005 C 
ENDBRANCH   8   9
ENDBRANCH   7   8
ENDBRANCH   6   7
ENDBRANCH   2   6
TORSDOF 4
ENDMDL
MODEL 20
REMARK VINA RESULT:      -3.8     10.934     11.823
REMARK  4 active torsions:
REMARK  status: ('A' for Active; 'I' for Inactive)
REMARK       I    between atoms: N_1  and  C_2 
REMARK    1  A    between atoms: C_2  and  O_3 
REMARK    2  A    between atoms: O_3  and  C_4 
REMARK    3  A    between atoms: C_4  and  C_5 
REMARK    4  A    between atoms: C_5  and  C_6 
ROOT
HETATM    1  N   LIG     1      16.457  33.020  15.580  1.00  0.00    -0.346 N 
HETATM    2  C   LIG     1      16.518  32.440  14.281  1.00  0.00     0.358 C 
HETATM    3  O   LIG     1      17.430  32.787  13.484  1.00  0.00    -0.239 OA
HETATM    4  H   LIG     1      17.164  33.729  15.879  1.00  0.00     0.161 HD
HETATM    5  H   LIG     1      15.703  32.740  16.245  1.00  0.00     0.161 HD
ENDROOT
BRANCH   2   6
HETATM    6  O   LIG     1      15.558  31.495  13.903  1.00  0.00    -0.304 OA
BRANCH   6   7
HETATM    7  C   LIG     1      15.335  30.274  14.608  1.00  0.00     0.180 C 
BRANCH   7   8
HETATM    8  C   LIG     1      13.866  29.848  14.492  1.00  0.00     0.026 C 
BRANCH   8   9
HETATM    9  C   LIG     1      12.975  30.501  15.559  1.00  0.00    -0.002 C 
HETATM   10  C   LIG     1      13.767  30.984  16.774  1.00  0.00     0.005 C 
ENDBRANCH   8   9
ENDBRANCH   7   8
ENDBRANCH   6   7
ENDBRANCH   2   6
TORSDOF 4
ENDMDL
