REMARK  3 active torsions:
REMARK  status: ('A' for Active; 'I' for Inactive)
REMARK    1  A    between atoms: C_2  and  C_3 
REMARK    2  A    between atoms: C_3  and  C_4 
REMARK    3  A    between atoms: C_4  and  C_5 
ROOT
HETATM    1  C   LIG     1       0.584  -0.003   0.785  1.00  0.00     0.026 C 
ENDROOT
BRANCH   1   2
HETATM    2  C   LIG     1       2.003  -0.499   0.752  1.00  0.00    -0.037 C 
HETATM    3  C   LIG     1       2.841  -0.171  -0.237  1.00  0.00     0.007 C 
ENDBRANCH   1   2
BRANCH   1   4
HETATM    4  C   LIG     1      -0.263  -0.674  -0.307  1.00  0.00     0.003 C 
BRANCH   4   5
HETATM    5  C   LIG     1      -1.753  -0.315  -0.202  1.00  0.00    -0.004 C 
HETATM    6  C   LIG     1      -2.038   1.139  -0.580  1.00  0.00     0.005 C 
ENDBRANCH   4   5
ENDBRANCH   1   4
TORSDOF 3
