REMARK  4 active torsions:
REMARK  status: ('A' for Active; 'I' for Inactive)
REMARK       I    between atoms: N_1  and  C_2 
REMARK    1  A    between atoms: C_2  and  O_3 
REMARK    2  A    between atoms: O_3  and  C_4 
REMARK    3  A    between atoms: C_4  and  C_5 
REMARK    4  A    between atoms: C_5  and  C_6 
ROOT
HETATM    1  N   LIG     1       3.784  -0.505   0.972  1.00  0.00    -0.346 N 
HETATM    2  C   LIG     1       2.580  -0.401   0.218  1.00  0.00     0.358 C 
HETATM    3  O   LIG     1       2.406  -1.143  -0.786  1.00  0.00    -0.239 OA
HETATM    4  H   LIG     1       4.522  -1.193   0.702  1.00  0.00     0.161 HD
HETATM    5  H   LIG     1       3.937   0.108   1.803  1.00  0.00     0.161 HD
ENDROOT
BRANCH   2   6
HETATM    6  O   LIG     1       1.608   0.531   0.597  1.00  0.00    -0.304 OA
BRANCH   6   7
HETATM    7  C   LIG     1       0.355   0.676  -0.071  1.00  0.00     0.180 C 
BRANCH   7   8
HETATM    8  C   LIG     1      -0.603  -0.451   0.336  1.00  0.00     0.026 C 
BRANCH   8   9
HETATM    9  C   LIG     1      -1.933  -0.402  -0.431  1.00  0.00    -0.002 C 
HETATM   10  C   LIG     1      -2.814   0.774  -0.010  1.00  0.00     0.005 C 
ENDBRANCH   8   9
ENDBRANCH   7   8
ENDBRANCH   6   7
ENDBRANCH   2   6
TORSDOF 4
