MODEL 1
REMARK VINA RESULT:      -4.5      0.000      0.000
REMARK  3 active torsions:
REMARK  status: ('A' for Active; 'I' for Inactive)
REMARK    1  A    between atoms: C_2  and  C_3 
REMARK    2  A    between atoms: C_3  and  C_4 
REMARK    3  A    between atoms: C_4  and  C_5 
ROOT
HETATM    1  C   LIG     1      18.629  36.965  26.089  1.00  0.00     0.026 C 
ENDROOT
BRANCH   1   2
HETATM    2  C   LIG     1      18.262  35.565  26.498  1.00  0.00    -0.037 C 
HETATM    3  C   LIG     1      17.397  34.829  25.791  1.00  0.00     0.007 C 
ENDBRANCH   1   2
BRANCH   1   4
HETATM    4  C   LIG     1      17.419  37.705  25.499  1.00  0.00     0.003 C 
BRANCH   4   5
HETATM    5  C   LIG     1      17.667  38.193  24.064  1.00  0.00    -0.004 C 
HETATM    6  C   LIG     1      16.892  37.384  23.023  1.00  0.00     0.005 C 
ENDBRANCH   4   5
ENDBRANCH   1   4
TORSDOF 3
ENDMDL
MODEL 2
REMARK VINA RESULT:      -4.4      0.675      3.353
REMARK  3 active torsions:
REMARK  status: ('A' for Active; 'I' for Inactive)
REMARK    1  A    between atoms: C_2  and  C_3 
REMARK    2  A    between atoms: C_3  and  C_4 
REMARK    3  A    between atoms: C_4  and  C_5 
ROOT
HETATM    1  C   LIG     1      17.282  37.963  25.397  1.00  0.00     0.026 C 
ENDROOT
BRANCH   1   2
HETATM    2  C   LIG     1      16.893  37.783  23.956  1.00  0.00    -0.037 C 
HETATM    3  C   LIG     1      17.547  38.401  22.967  1.00  0.00     0.007 C 
ENDBRANCH   1   2
BRANCH   1   4
HETATM    4  C   LIG     1      18.562  37.181  25.727  1.00  0.00     0.003 C 
BRANCH   4   5
HETATM    5  C   LIG     1      18.315  36.038  26.725  1.00  0.00    -0.004 C 
HETATM    6  C   LIG     1      17.621  34.836  26.084  1.00  0.00     0.005 C 
ENDBRANCH   4   5
ENDBRANCH   1   4
TORSDOF 3
ENDMDL
MODEL 3
REMARK VINA RESULT:      -4.4      1.371      2.045
REMARK  3 active torsions:
REMARK  status: ('A' for Active; 'I' for Inactive)
REMARK    1  A    between atoms: C_2  and  C_3 
REMARK    2  A    between atoms: C_3  and  C_4 
REMARK    3  A    between atoms: C_4  and  C_5 
ROOT
HETATM    1  C   LIG     1      17.343  35.004  24.920  1.00  0.00     0.026 C 
ENDROOT
BRANCH   1   2
HETATM    2  C   LIG     1      18.124  34.994  26.205  1.00  0.00    -0.037 C 
HETATM    3  C   LIG     1      18.467  36.125  26.830  1.00  0.00     0.007 C 
ENDBRANCH   1   2
BRANCH   1   4
HETATM    4  C   LIG     1      17.185  36.433  24.379  1.00  0.00     0.003 C 
BRANCH   4   5
HETATM    5  C   LIG     1      16.832  36.462  22.884  1.00  0.00    -0.004 C 
HETATM    6  C   LIG     1      17.004  35.100  22.210  1.00  0.00     0.005 C 
ENDBRANCH   4   5
ENDBRANCH   1   4
TORSDOF 3
ENDMDL
MODEL 4
REMARK VINA RESULT:      -4.0      3.741      4.933
REMARK  3 active torsions:
REMARK  status: ('A' for Active; 'I' for Inactive)
REMARK    1  A    between atoms: C_2  and  C_3 
REMARK    2  A    between atoms: C_3  and  C_4 
REMARK    3  A    between atoms: C_4  and  C_5 
ROOT
HETATM    1  C   LIG     1      17.826  37.000  20.892  1.00  0.00     0.026 C 
ENDROOT
BRANCH   1   2
HETATM    2  C   LIG     1      17.118  35.695  21.130  1.00  0.00    -0.037 C 
HETATM    3  C   LIG     1      16.918  35.217  22.362  1.00  0.00     0.007 C 
ENDBRANCH   1   2
BRANCH   1   4
HETATM    4  C   LIG     1      18.837  36.880  19.742  1.00  0.00     0.003 C 
BRANCH   4   5
HETATM    5  C   LIG     1      19.628  38.177  19.513  1.00  0.00    -0.004 C 
HETATM    6  C   LIG     1      19.172  39.315  20.427  1.00  0.00     0.005 C 
ENDBRANCH   4   5
ENDBRANCH   1   4
TORSDOF 3
ENDMDL
MODEL 5
REMARK VINA RESULT:      -4.0      1.621      4.122
REMARK  3 active torsions:
REMARK  status: ('A' for Active; 'I' for Inactive)
REMARK    1  A    between atoms: C_2  and  C_3 
REMARK    2  A    between atoms: C_3  and  C_4 
REMARK    3  A    between atoms: C_4  and  C_5 
ROOT
HETATM    1  C   LIG     1      17.083  37.796  22.407  1.00  0.00     0.026 C 
ENDROOT
BRANCH   1   2
HETATM    2  C   LIG     1      18.090  38.911  22.346  1.00  0.00    -0.037 C 
HETATM    3  C   LIG     1      18.714  39.236  21.209  1.00  0.00     0.007 C 
ENDBRANCH   1   2
BRANCH   1   4
HETATM    4  C   LIG     1      16.929  37.266  23.840  1.00  0.00     0.003 C 
BRANCH   4   5
HETATM    5  C   LIG     1      17.936  37.895  24.814  1.00  0.00    -0.004 C 
HETATM    6  C   LIG     1      18.364  36.934  25.924  1.00  0.00     0.005 C 
ENDBRANCH   4   5
ENDBRANCH   1   4
TORSDOF 3
ENDMDL
MODEL 6
REMARK VINA RESULT:      -4.0      1.357      2.257
REMARK  3 active torsions:
REMARK  status: ('A' for Active; 'I' for Inactive)
REMARK    1  A    between atoms: C_2  and  C_3 
REMARK    2  A    between atoms: C_3  and  C_4 
REMARK    3  A    between atoms: C_4  and  C_5 
ROOT
HETATM    1  C   LIG     1      17.168  36.882  24.311  1.00  0.00     0.026 C 
ENDROOT
BRANCH   1   2
HETATM    2  C   LIG     1      17.808  37.412  25.564  1.00  0.00    -0.037 C 
HETATM    3  C   LIG     1      18.422  36.606  26.436  1.00  0.00     0.007 C 
ENDBRANCH   1   2
BRANCH   1   4
HETATM    4  C   LIG     1      16.734  38.027  23.384  1.00  0.00     0.003 C 
BRANCH   4   5
HETATM    5  C   LIG     1      17.482  38.017  22.042  1.00  0.00    -0.004 C 
HETATM    6  C   LIG     1      18.473  39.174  21.910  1.00  0.00     0.005 C 
ENDBRANCH   4   5
ENDBRANCH   1   4
TORSDOF 3
ENDMDL
MODEL 7
REMARK VINA RESULT:      -3.9      3.446      4.613
REMARK  3 active torsions:
REMARK  status: ('A' for Active; 'I' for Inactive)
REMARK    1  A    between atoms: C_2  and  C_3 
REMARK    2  A    between atoms: C_3  and  C_4 
REMARK    3  A    between atoms: C_4  and  C_5 
ROOT
HETATM    1  C   LIG     1      17.388  38.842  22.051  1.00  0.00     0.026 C 
ENDROOT
BRANCH   1   2
HETATM    2  C   LIG     1      17.093  37.400  22.358  1.00  0.00    -0.037 C 
HETATM    3  C   LIG     1      17.191  36.446  21.426  1.00  0.00     0.007 C 
ENDBRANCH   1   2
BRANCH   1   4
HETATM    4  C   LIG     1      18.855  39.031  21.637  1.00  0.00     0.003 C 
BRANCH   4   5
HETATM    5  C   LIG     1      19.007  39.406  20.155  1.00  0.00    -0.004 C 
HETATM    6  C   LIG     1      20.238  38.771  19.508  1.00  0.00     0.005 C 
ENDBRANCH   4   5
ENDBRANCH   1   4
TORSDOF 3
ENDMDL
MODEL 8
REMARK VINA RESULT:      -3.9      3.261      5.024
REMARK  3 active torsions:
REMARK  status: ('A' for Active; 'I' for Inactive)
REMARK    1  A    between atoms: C_2  and  C_3 
REMARK    2  A    between atoms: C_3  and  C_4 
REMARK    3  A    between atoms: C_4  and  C_5 
ROOT
HETATM    1  C   LIG     1      17.545  38.014  21.858  1.00  0.00     0.026 C 
ENDROOT
BRANCH   1   2
HETATM    2  C   LIG     1      18.410  39.203  21.547  1.00  0.00    -0.037 C 
HETATM    3  C   LIG     1      19.151  39.263  20.436  1.00  0.00     0.007 C 
ENDBRANCH   1   2
BRANCH   1   4
HETATM    4  C   LIG     1      17.803  36.867  20.869  1.00  0.00     0.003 C 
BRANCH   4   5
HETATM    5  C   LIG     1      16.985  35.609  21.198  1.00  0.00    -0.004 C 
HETATM    6  C   LIG     1      16.946  35.304  22.696  1.00  0.00     0.005 C 
ENDBRANCH   4   5
ENDBRANCH   1   4
TORSDOF 3
ENDMDL
MODEL 9
REMARK VINA RESULT:      -3.9      2.889      5.123
REMARK  3 active torsions:
REMARK  status: ('A' for Active; 'I' for Inactive)
REMARK    1  A    between atoms: C_2  and  C_3 
REMARK    2  A    between atoms: C_3  and  C_4 
REMARK    3  A    between atoms: C_4  and  C_5 
ROOT
HETATM    1  C   LIG     1      18.604  39.172  21.673  1.00  0.00     0.026 C 
ENDROOT
BRANCH   1   2
HETATM    2  C   LIG     1      19.020  39.409  20.247  1.00  0.00    -0.037 C 
HETATM    3  C   LIG     1      20.095  38.814  19.719  1.00  0.00     0.007 C 
ENDBRANCH   1   2
BRANCH   1   4
HETATM    4  C   LIG     1      17.569  38.041  21.768  1.00  0.00     0.003 C 
BRANCH   4   5
HETATM    5  C   LIG     1      16.824  38.034  23.111  1.00  0.00    -0.004 C 
HETATM    6  C   LIG     1      17.768  38.129  24.310  1.00  0.00     0.005 C 
ENDBRANCH   4   5
ENDBRANCH   1   4
TORSDOF 3
ENDMDL
MODEL 10
REMARK VINA RESULT:      -3.8      2.139      4.229
REMARK  3 active torsions:
REMARK  status: ('A' for Active; 'I' for Inactive)
REMARK    1  A    between atoms: C_2  and  C_3 
REMARK    2  A    between atoms: C_3  and  C_4 
REMARK    3  A    between atoms: C_4  and  C_5 
ROOT
HETATM    1  C   LIG     1      17.050  35.622  22.743  1.00  0.00     0.026 C 
ENDROOT
BRANCH   1   2
HETATM    2  C   LIG     1      16.203  34.854  21.766  1.00  0.00    -0.037 C 
HETATM    3  C   LIG     1      15.921  35.334  20.550  1.00  0.00     0.007 C 
ENDBRANCH   1   2
BRANCH   1   4
HETATM    4  C   LIG     1      17.090  34.921  24.110  1.00  0.00     0.003 C 
BRANCH   4   5
HETATM    5  C   LIG     1      17.533  35.861  25.242  1.00  0.00    -0.004 C 
HETATM    6  C   LIG     1      18.270  35.129  26.364  1.00  0.00     0.005 C 
ENDBRANCH   4   5
ENDBRANCH   1   4
TORSDOF 3
ENDMDL
MODEL 11
REMARK VINA RESULT:      -3.7      3.800      4.427
REMARK  3 active torsions:
REMARK  status: ('A' for Active; 'I' for Inactive)
REMARK    1  A    between atoms: C_2  and  C_3 
REMARK    2  A    between atoms: C_3  and  C_4 
REMARK    3  A    between atoms: C_4  and  C_5 
ROOT
HETATM    1  C   LIG     1      17.620  36.640  20.932  1.00  0.00     0.026 C 
ENDROOT
BRANCH   1   2
HETATM    2  C   LIG     1      16.661  35.482  20.964  1.00  0.00    -0.037 C 
HETATM    3  C   LIG     1      15.354  35.655  21.186  1.00  0.00     0.007 C 
ENDBRANCH   1   2
BRANCH   1   4
HETATM    4  C   LIG     1      17.244  37.699  21.980  1.00  0.00     0.003 C 
BRANCH   4   5
HETATM    5  C   LIG     1      18.159  38.932  21.928  1.00  0.00    -0.004 C 
HETATM    6  C   LIG     1      18.700  39.207  20.524  1.00  0.00     0.005 C 
ENDBRANCH   4   5
ENDBRANCH   1   4
TORSDOF 3
ENDMDL
MODEL 12
REMARK VINA RESULT:      -3.6      4.551      5.930
REMARK  3 active torsions:
REMARK  status: ('A' for Active; 'I' for Inactive)
REMARK    1  A    between atoms: C_2  and  C_3 
REMARK    2  A    between atoms: C_3  and  C_4 
REMARK    3  A    between atoms: C_4  and  C_5 
ROOT
HETATM    1  C   LIG     1      15.762  35.118  20.960  1.00  0.00     0.026 C 
ENDROOT
BRANCH   1   2
HETATM    2  C   LIG     1      17.010  35.064  21.796  1.00  0.00    -0.037 C 
HETATM    3  C   LIG     1      16.983  35.278  23.116  1.00  0.00     0.007 C 
ENDBRANCH   1   2
BRANCH   1   4
HETATM    4  C   LIG     1      15.020  33.772  20.984  1.00  0.00     0.003 C 
BRANCH   4   5
HETATM    5  C   LIG     1      15.502  32.813  19.885  1.00  0.00    -0.004 C 
HETATM    6  C   LIG     1      14.844  31.435  19.974  1.00  0.00     0.005 C 
ENDBRANCH   4   5
ENDBRANCH   1   4
TORSDOF 3
ENDMDL
MODEL 13
REMARK VINA RESULT:      -3.6      1.851      3.522
REMARK  3 active torsions:
REMARK  status: ('A' for Active; 'I' for Inactive)
REMARK    1  A    between atoms: C_2  and  C_3 
REMARK    2  A    between atoms: C_3  and  C_4 
REMARK    3  A    between atoms: C_4  and  C_5 
ROOT
HETATM    1  C   LIG     1      16.441  37.438  23.102  1.00  0.00     0.026 C 
ENDROOT
BRANCH   1   2
HETATM    2  C   LIG     1      17.499  37.913  24.059  1.00  0.00    -0.037 C 
HETATM    3  C   LIG     1      17.313  37.889  25.383  1.00  0.00     0.007 C 
ENDBRANCH   1   2
BRANCH   1   4
HETATM    4  C   LIG     1      17.070  36.806  21.850  1.00  0.00     0.003 C 
BRANCH   4   5
HETATM    5  C   LIG     1      17.039  35.270  21.886  1.00  0.00    -0.004 C 
HETATM    6  C   LIG     1      15.669  34.699  21.518  1.00  0.00     0.005 C 
ENDBRANCH   4   5
ENDBRANCH   1   4
TORSDOF 3
ENDMDL
MODEL 14
REMARK VINA RESULT:      -3.6     11.461     13.015
REMARK  3 active torsions:
REMARK  status: ('A' for Active; 'I' for Inactive)
REMARK    1  A    between atoms: C_2  and  C_3 
REMARK    2  A    between atoms: C_3  and  C_4 
REMARK    3  A    between atoms: C_4  and  C_5 
ROOT
HETATM    1  C   LIG     1      15.113  30.185  13.848  1.00  0.00     0.026 C 
ENDROOT
BRANCH   1   2
HETATM    2  C   LIG     1      14.635  28.766  13.980  1.00  0.00    -0.037 C 
HETATM    3  C   LIG     1      15.395  27.729  13.610  1.00  0.00     0.007 C 
ENDBRANCH   1   2
BRANCH   1   4
HETATM    4  C   LIG     1      14.836  30.985  15.130  1.00  0.00     0.003 C 
BRANCH   4   5
HETATM    5  C   LIG     1      13.466  30.658  15.744  1.00  0.00    -0.004 C 
HETATM    6  C   LIG     1      13.032  31.680  16.796  1.00  0.00     0.005 C 
ENDBRANCH   4   5
ENDBRANCH   1   4
TORSDOF 3
ENDMDL
MODEL 15
REMARK VINA RESULT:      -3.5      9.057     10.527
REMARK  3 active torsions:
REMARK  status: ('A' for Active; 'I' for Inactive)
REMARK    1  A    between atoms: C_2  and  C_3 
REMARK    2  A    between atoms: C_3  and  C_4 
REMARK    3  A    between atoms: C_4  and  C_5 
ROOT
HETATM    1  C   LIG     1      14.083  31.700  17.685  1.00  0.00     0.026 C 
ENDROOT
BRANCH   1   2
HETATM    2  C   LIG     1      15.156  32.363  18.503  1.00  0.00    -0.037 C 
HETATM    3  C   LIG     1      15.335  32.076  19.796  1.00  0.00     0.007 C 
ENDBRANCH   1   2
BRANCH   1   4
HETATM    4  C   LIG     1      14.440  31.707  16.191  1.00  0.00     0.003 C 
BRANCH   4   5
HETATM    5  C   LIG     1      13.840  30.512  15.435  1.00  0.00    -0.004 C 
HETATM    6  C   LIG     1      14.763  29.987  14.334  1.00  0.00     0.005 C 
ENDBRANCH   4   5
ENDBRANCH   1   4
TORSDOF 3
ENDMDL
MODEL 16
REMARK VINA RESULT:      -3.5      3.416      4.878
REMARK  3 active torsions:
REMARK  status: ('A' for Active; 'I' for Inactive)
REMARK    1  A    between atoms: C_2  and  C_3 
REMARK    2  A    between atoms: C_3  and  C_4 
REMARK    3  A    between atoms: C_4  and  C_5 
ROOT
HETATM    1  C   LIG     1      17.356  36.629  21.258  1.00  0.00     0.026 C 
ENDROOT
BRANCH   1   2
HETATM    2  C   LIG     1      17.106  37.545  22.425  1.00  0.00    -0.037 C 
HETATM    3  C   LIG     1      15.868  37.823  22.848  1.00  0.00     0.007 C 
ENDBRANCH   1   2
BRANCH   1   4
HETATM    4  C   LIG     1      16.751  35.239  21.505  1.00  0.00     0.003 C 
BRANCH   4   5
HETATM    5  C   LIG     1      15.662  34.879  20.483  1.00  0.00    -0.004 C 
HETATM    6  C   LIG     1      15.553  33.373  20.242  1.00  0.00     0.005 C 
ENDBRANCH   4   5
ENDBRANCH   1   4
TORSDOF 3
ENDMDL
MODEL 17
REMARK VINA RESULT:      -3.4      4.206      5.786
REMARK  3 active torsions:
REMARK  status: ('A' for Active; 'I' for Inactive)
REMARK    1  A    between atoms: C_2  and  C_3 
REMARK    2  A    between atoms: C_3  and  C_4 
REMARK    3  A    between atoms: C_4  and  C_5 
ROOT
HETATM    1  C   LIG     1      15.645  34.758  19.888  1.00  0.00     0.026 C 
ENDROOT
BRANCH   1   2
HETATM    2  C   LIG     1      15.442  33.334  20.326  1.00  0.00    -0.037 C 
HETATM    3  C   LIG     1      15.395  32.327  19.448  1.00  0.00     0.007 C 
ENDBRANCH   1   2
BRANCH   1   4
HETATM    4  C   LIG     1      15.780  35.696  21.097  1.00  0.00     0.003 C 
BRANCH   4   5
HETATM    5  C   LIG     1      17.244  35.947  21.489  1.00  0.00    -0.004 C 
HETATM    6  C   LIG     1      18.061  36.566  20.354  1.00  0.00     0.005 C 
ENDBRANCH   4   5
ENDBRANCH   1   4
TORSDOF 3
ENDMDL
MODEL 18
REMARK VINA RESULT:      -3.3      9.770     11.486
REMARK  3 active torsions:
REMARK  status: ('A' for Active; 'I' for Inactive)
REMARK    1  A    between atoms: C_2  and  C_3 
REMARK    2  A    between atoms: C_3  and  C_4 
REMARK    3  A    between atoms: C_4  and  C_5 
ROOT
HETATM    1  C   LIG     1      15.372  31.106  14.531  1.00  0.00     0.026 C 
ENDROOT
BRANCH   1   2
HETATM    2  C   LIG     1      14.197  30.569  15.300  1.00  0.00    -0.037 C 
HETATM    3  C   LIG     1      13.268  29.802  14.721  1.00  0.00     0.007 C 
ENDBRANCH   1   2
BRANCH   1   4
HETATM    4  C   LIG     1      15.906  32.399  15.166  1.00  0.00     0.003 C 
BRANCH   4   5
HETATM    5  C   LIG     1      15.406  32.601  16.604  1.00  0.00    -0.004 C 
HETATM    6  C   LIG     1      15.021  34.051  16.898  1.00  0.00     0.005 C 
ENDBRANCH   4   5
ENDBRANCH   1   4
TORSDOF 3
ENDMDL
MODEL 19
REMARK VINA RESULT:      -3.3      5.662      7.292
REMARK  3 active torsions:
REMARK  status: ('A' for Active; 'I' for Inactive)
REMARK    1  A    between atoms: C_2  and  C_3 
REMARK    2  A    between atoms: C_3  and  C_4 
REMARK    3  A    between atoms: C_4  and  C_5 
ROOT
HETATM    1  C   LIG     1      15.242  32.306  19.990  1.00  0.00     0.026 C 
ENDROOT
BRANCH   1   2
HETATM    2  C   LIG     1      14.658  31.931  18.656  1.00  0.00    -0.037 C 
HETATM    3  C   LIG     1      15.014  32.558  17.530  1.00  0.00     0.007 C 
ENDBRANCH   1   2
BRANCH   1   4
HETATM    4  C   LIG     1      15.609  33.797  20.035  1.00  0.00     0.003 C 
BRANCH   4   5
HETATM    5  C   LIG     1      15.256  34.451  21.379  1.00  0.00    -0.004 C 
HETATM    6  C   LIG     1      16.471  35.071  22.071  1.00  0.00     0.005 C 
ENDBRANCH   4   5
ENDBRANCH   1   4
TORSDOF 3
ENDMDL
MODEL 20
REMARK VINA RESULT:      -3.2     11.571     12.057
REMARK  3 active torsions:
REMARK  status: ('A' for Active; 'I' for Inactive)
REMARK    1  A    between atoms: C_2  and  C_3 
REMARK    2  A    between atoms: C_3  and  C_4 
REMARK    3  A    between atoms: C_4  and  C_5 
ROOT
HETATM    1  C   LIG     1      15.203  30.985  14.596  1.00  0.00     0.026 C 
ENDROOT
BRANCH   1   2
HETATM    2  C   LIG     1      14.220  30.863  15.727  1.00  0.00    -0.037 C 
HETATM    3  C   LIG     1      12.971  30.430  15.531  1.00  0.00     0.007 C 
ENDBRANCH   1   2
BRANCH   1   4
HETATM    4  C   LIG     1      16.114  32.209  14.783  1.00  0.00     0.003 C 
BRANCH   4   5
HETATM    5  C   LIG     1      16.708  32.709  13.458  1.00  0.00    -0.004 C 
HETATM    6  C   LIG     1      17.983  33.530  13.656  1.00  0.00     0.005 C 
ENDBRANCH   4   5
ENDBRANCH   1   4
TORSDOF 3
ENDMDL
