REMARK  1 active torsions:
REMARK  status: ('A' for Active; 'I' for Inactive)
REMARK    1  A    between atoms: C_2  and  C_5 
ROOT
HETATM    1  C   LIG     1      -0.722  -1.170   0.749  1.00  0.00     0.032 C 
HETATM    2  C   LIG     1      -0.459   0.276   0.291  1.00  0.00     0.029 C 
HETATM    3  C   LIG     1      -1.706   0.811  -0.431  1.00  0.00     0.032 C 
HETATM    4 CL   LIG     1      -0.182   1.301   1.735  1.00  0.00    -0.120 Cl
ENDROOT
BRANCH   2   5
HETATM    5  C   LIG     1       0.758   0.362  -0.666  1.00  0.00     0.020 C 
HETATM    6  C   LIG     1       2.071  -0.161  -0.075  1.00  0.00     0.007 C 
ENDBRANCH   2   5
TORSDOF 1
