MODEL 1
REMARK VINA RESULT:      -5.4      0.000      0.000
REMARK  2 active torsions:
REMARK  status: ('A' for Active; 'I' for Inactive)
REMARK    1  A    between atoms: C_2  and  C_5 
REMARK    2  A    between atoms: C_2  and  O_4 
ROOT
HETATM    1  C   LIG     1      17.315  38.788  22.275  1.00  0.00     0.046 C 
HETATM    2  C   LIG     1      16.449  37.663  22.904  1.00  0.00     0.057 C 
HETATM    3  C   LIG     1      16.936  37.485  24.361  1.00  0.00     0.046 C 
ENDROOT
BRANCH   2   4
HETATM    4  C   LIG     1      16.514  36.296  22.079  1.00  0.00    -0.021 C 
HETATM    5  C   LIG     1      15.126  35.906  21.508  1.00  0.00     0.017 C 
HETATM    6  C   LIG     1      16.977  35.130  22.991  1.00  0.00     0.017 C 
HETATM    7  C   LIG     1      17.500  36.378  20.886  1.00  0.00     0.017 C 
ENDBRANCH   2   4
BRANCH   2   8
HETATM    8  O   LIG     1      15.114  38.111  22.987  1.00  0.00    -0.390 OA
HETATM    9  H   LIG     1      14.546  37.533  22.414  1.00  0.00     0.210 HD
ENDBRANCH   2   8
TORSDOF 2
ENDMDL
MODEL 2
REMARK VINA RESULT:      -4.5      1.117      3.067
REMARK  2 active torsions:
REMARK  status: ('A' for Active; 'I' for Inactive)
REMARK    1  A    between atoms: C_2  and  C_5 
REMARK    2  A    between atoms: C_2  and  O_4 
ROOT
HETATM    1  C   LIG     1      17.039  35.329  23.075  1.00  0.00     0.046 C 
HETATM    2  C   LIG     1      16.698  36.452  22.058  1.00  0.00     0.057 C 
HETATM    3  C   LIG     1      17.447  36.113  20.749  1.00  0.00     0.046 C 
ENDROOT
BRANCH   2   4
HETATM    4  C   LIG     1      17.064  37.910  22.598  1.00  0.00    -0.021 C 
HETATM    5  C   LIG     1      15.831  38.852  22.580  1.00  0.00     0.017 C 
HETATM    6  C   LIG     1      18.152  38.564  21.708  1.00  0.00     0.017 C 
HETATM    7  C   LIG     1      17.601  37.879  24.051  1.00  0.00     0.017 C 
ENDBRANCH   2   4
BRANCH   2   8
HETATM    8  O   LIG     1      15.322  36.383  21.753  1.00  0.00    -0.390 OA
HETATM    9  H   LIG     1      14.826  36.115  22.569  1.00  0.00     0.210 HD
ENDBRANCH   2   8
TORSDOF 2
ENDMDL
MODEL 3
REMARK VINA RESULT:      -4.5      1.113      3.070
REMARK  2 active torsions:
REMARK  status: ('A' for Active; 'I' for Inactive)
REMARK    1  A    between atoms: C_2  and  C_5 
REMARK    2  A    between atoms: C_2  and  O_4 
ROOT
HETATM    1  C   LIG     1      17.035  35.347  23.075  1.00  0.00     0.046 C 
HETATM    2  C   LIG     1      16.683  36.459  22.050  1.00  0.00     0.057 C 
HETATM    3  C   LIG     1      17.407  36.099  20.733  1.00  0.00     0.046 C 
ENDROOT
BRANCH   2   4
HETATM    4  C   LIG     1      17.066  37.922  22.565  1.00  0.00    -0.021 C 
HETATM    5  C   LIG     1      17.616  37.892  24.015  1.00  0.00     0.017 C 
HETATM    6  C   LIG     1      15.820  38.844  22.567  1.00  0.00     0.017 C 
HETATM    7  C   LIG     1      18.145  38.591  21.675  1.00  0.00     0.017 C 
ENDBRANCH   2   4
BRANCH   2   8
HETATM    8  O   LIG     1      15.301  36.395  21.770  1.00  0.00    -0.390 OA
HETATM    9  H   LIG     1      15.125  36.877  20.921  1.00  0.00     0.210 HD
ENDBRANCH   2   8
TORSDOF 2
ENDMDL
MODEL 4
REMARK VINA RESULT:      -4.5      1.191      1.547
REMARK  2 active torsions:
REMARK  status: ('A' for Active; 'I' for Inactive)
REMARK    1  A    between atoms: C_2  and  C_5 
REMARK    2  A    between atoms: C_2  and  O_4 
ROOT
HETATM    1  C   LIG     1      15.675  38.555  22.735  1.00  0.00     0.046 C 
HETATM    2  C   LIG     1      16.966  37.700  22.618  1.00  0.00     0.057 C 
HETATM    3  C   LIG     1      17.992  38.545  21.828  1.00  0.00     0.046 C 
ENDROOT
BRANCH   2   4
HETATM    4  C   LIG     1      16.708  36.279  21.936  1.00  0.00    -0.021 C 
HETATM    5  C   LIG     1      15.222  36.100  21.531  1.00  0.00     0.017 C 
HETATM    6  C   LIG     1      17.056  35.131  22.918  1.00  0.00     0.017 C 
HETATM    7  C   LIG     1      17.563  36.079  20.658  1.00  0.00     0.017 C 
ENDBRANCH   2   4
BRANCH   2   8
HETATM    8  O   LIG     1      17.511  37.523  23.907  1.00  0.00    -0.390 OA
HETATM    9  H   LIG     1      17.597  38.410  24.343  1.00  0.00     0.210 HD
ENDBRANCH   2   8
TORSDOF 2
ENDMDL
MODEL 5
REMARK VINA RESULT:      -4.5      1.532      3.055
REMARK  2 active torsions:
REMARK  status: ('A' for Active; 'I' for Inactive)
REMARK    1  A    between atoms: C_2  and  C_5 
REMARK    2  A    between atoms: C_2  and  O_4 
ROOT
HETATM    1  C   LIG     1      17.700  36.281  20.541  1.00  0.00     0.046 C 
HETATM    2  C   LIG     1      16.805  36.073  21.792  1.00  0.00     0.057 C 
HETATM    3  C   LIG     1      15.392  35.714  21.276  1.00  0.00     0.046 C 
ENDROOT
BRANCH   2   4
HETATM    4  C   LIG     1      16.784  37.345  22.759  1.00  0.00    -0.021 C 
HETATM    5  C   LIG     1      17.777  38.439  22.286  1.00  0.00     0.017 C 
HETATM    6  C   LIG     1      17.198  36.943  24.198  1.00  0.00     0.017 C 
HETATM    7  C   LIG     1      15.380  37.998  22.838  1.00  0.00     0.017 C 
ENDBRANCH   2   4
BRANCH   2   8
HETATM    8  O   LIG     1      17.266  34.941  22.497  1.00  0.00    -0.390 OA
HETATM    9  H   LIG     1      16.489  34.482  22.908  1.00  0.00     0.210 HD
ENDBRANCH   2   8
TORSDOF 2
ENDMDL
MODEL 6
REMARK VINA RESULT:      -4.3      1.264      2.194
REMARK  2 active torsions:
REMARK  status: ('A' for Active; 'I' for Inactive)
REMARK    1  A    between atoms: C_2  and  C_5 
REMARK    2  A    between atoms: C_2  and  O_4 
ROOT
HETATM    1  C   LIG     1      17.563  37.811  23.917  1.00  0.00     0.046 C 
HETATM    2  C   LIG     1      16.967  37.808  22.483  1.00  0.00     0.057 C 
HETATM    3  C   LIG     1      15.688  38.675  22.529  1.00  0.00     0.046 C 
ENDROOT
BRANCH   2   4
HETATM    4  C   LIG     1      16.673  36.335  21.937  1.00  0.00    -0.021 C 
HETATM    5  C   LIG     1      17.471  36.036  20.641  1.00  0.00     0.017 C 
HETATM    6  C   LIG     1      15.169  36.170  21.597  1.00  0.00     0.017 C 
HETATM    7  C   LIG     1      17.044  35.242  22.972  1.00  0.00     0.017 C 
ENDBRANCH   2   4
BRANCH   2   8
HETATM    8  O   LIG     1      17.862  38.471  21.618  1.00  0.00    -0.390 OA
HETATM    9  H   LIG     1      18.563  38.914  22.161  1.00  0.00     0.210 HD
ENDBRANCH   2   8
TORSDOF 2
ENDMDL
MODEL 7
REMARK VINA RESULT:      -3.9     10.454     11.994
REMARK  2 active torsions:
REMARK  status: ('A' for Active; 'I' for Inactive)
REMARK    1  A    between atoms: C_2  and  C_5 
REMARK    2  A    between atoms: C_2  and  O_4 
ROOT
HETATM    1  C   LIG     1      18.300  34.874  11.094  1.00  0.00     0.046 C 
HETATM    2  C   LIG     1      19.133  33.796  11.839  1.00  0.00     0.057 C 
HETATM    3  C   LIG     1      18.876  33.998  13.351  1.00  0.00     0.046 C 
ENDROOT
BRANCH   2   4
HETATM    4  C   LIG     1      20.689  33.857  11.482  1.00  0.00    -0.021 C 
HETATM    5  C   LIG     1      20.995  34.973  10.449  1.00  0.00     0.017 C 
HETATM    6  C   LIG     1      21.160  32.518  10.860  1.00  0.00     0.017 C 
HETATM    7  C   LIG     1      21.566  34.130  12.731  1.00  0.00     0.017 C 
ENDBRANCH   2   4
BRANCH   2   8
HETATM    8  O   LIG     1      18.616  32.523  11.519  1.00  0.00    -0.390 OA
HETATM    9  H   LIG     1      19.358  31.949  11.195  1.00  0.00     0.210 HD
ENDBRANCH   2   8
TORSDOF 2
ENDMDL
MODEL 8
REMARK VINA RESULT:      -3.6      6.654      8.203
REMARK  2 active torsions:
REMARK  status: ('A' for Active; 'I' for Inactive)
REMARK    1  A    between atoms: C_2  and  C_5 
REMARK    2  A    between atoms: C_2  and  O_4 
ROOT
HETATM    1  C   LIG     1      14.105  30.754  15.451  1.00  0.00     0.046 C 
HETATM    2  C   LIG     1      13.838  31.538  16.764  1.00  0.00     0.057 C 
HETATM    3  C   LIG     1      12.445  32.194  16.619  1.00  0.00     0.046 C 
ENDROOT
BRANCH   2   4
HETATM    4  C   LIG     1      14.975  32.613  17.087  1.00  0.00    -0.021 C 
HETATM    5  C   LIG     1      16.200  32.448  16.150  1.00  0.00     0.017 C 
HETATM    6  C   LIG     1      15.486  32.447  18.541  1.00  0.00     0.017 C 
HETATM    7  C   LIG     1      14.466  34.069  16.931  1.00  0.00     0.017 C 
ENDBRANCH   2   4
BRANCH   2   8
HETATM    8  O   LIG     1      13.731  30.618  17.828  1.00  0.00    -0.390 OA
HETATM    9  H   LIG     1      13.615  29.707  17.453  1.00  0.00     0.210 HD
ENDBRANCH   2   8
TORSDOF 2
ENDMDL
MODEL 9
REMARK VINA RESULT:      -3.5     19.179     20.675
REMARK  2 active torsions:
REMARK  status: ('A' for Active; 'I' for Inactive)
REMARK    1  A    between atoms: C_2  and  C_5 
REMARK    2  A    between atoms: C_2  and  O_4 
ROOT
HETATM    1  C   LIG     1      20.245  22.374  35.956  1.00  0.00     0.046 C 
HETATM    2  C   LIG     1      21.492  23.299  35.977  1.00  0.00     0.057 C 
HETATM    3  C   LIG     1      21.906  23.527  34.504  1.00  0.00     0.046 C 
ENDROOT
BRANCH   2   4
HETATM    4  C   LIG     1      22.690  22.705  36.851  1.00  0.00    -0.021 C 
HETATM    5  C   LIG     1      22.938  23.547  38.129  1.00  0.00     0.017 C 
HETATM    6  C   LIG     1      24.011  22.708  36.039  1.00  0.00     0.017 C 
HETATM    7  C   LIG     1      22.419  21.247  37.302  1.00  0.00     0.017 C 
ENDBRANCH   2   4
BRANCH   2   8
HETATM    8  O   LIG     1      21.112  24.562  36.478  1.00  0.00    -0.390 OA
HETATM    9  H   LIG     1      20.599  24.432  37.318  1.00  0.00     0.210 HD
ENDBRANCH   2   8
TORSDOF 2
ENDMDL
MODEL 10
REMARK VINA RESULT:      -3.3      1.808      3.305
REMARK  2 active torsions:
REMARK  status: ('A' for Active; 'I' for Inactive)
REMARK    1  A    between atoms: C_2  and  C_5 
REMARK    2  A    between atoms: C_2  and  O_4 
ROOT
HETATM    1  C   LIG     1      15.855  34.941  19.725  1.00  0.00     0.046 C 
HETATM    2  C   LIG     1      15.520  35.246  21.210  1.00  0.00     0.057 C 
HETATM    3  C   LIG     1      14.248  36.126  21.210  1.00  0.00     0.046 C 
ENDROOT
BRANCH   2   4
HETATM    4  C   LIG     1      16.730  35.941  21.989  1.00  0.00    -0.021 C 
HETATM    5  C   LIG     1      16.319  37.319  22.570  1.00  0.00     0.017 C 
HETATM    6  C   LIG     1      17.925  36.187  21.033  1.00  0.00     0.017 C 
HETATM    7  C   LIG     1      17.241  35.075  23.168  1.00  0.00     0.017 C 
ENDBRANCH   2   4
BRANCH   2   8
HETATM    8  O   LIG     1      15.165  34.041  21.852  1.00  0.00    -0.390 OA
HETATM    9  H   LIG     1      14.221  34.103  22.151  1.00  0.00     0.210 HD
ENDBRANCH   2   8
TORSDOF 2
ENDMDL
MODEL 11
REMARK VINA RESULT:      -3.1     15.440     16.901
REMARK  2 active torsions:
REMARK  status: ('A' for Active; 'I' for Inactive)
REMARK    1  A    between atoms: C_2  and  C_5 
REMARK    2  A    between atoms: C_2  and  O_4 
ROOT
HETATM    1  C   LIG     1      22.971  20.270  18.920  1.00  0.00     0.046 C 
HETATM    2  C   LIG     1      23.159  21.774  19.256  1.00  0.00     0.057 C 
HETATM    3  C   LIG     1      24.451  22.234  18.543  1.00  0.00     0.046 C 
ENDROOT
BRANCH   2   4
HETATM    4  C   LIG     1      23.209  22.056  20.828  1.00  0.00    -0.021 C 
HETATM    5  C   LIG     1      23.162  20.740  21.647  1.00  0.00     0.017 C 
HETATM    6  C   LIG     1      21.993  22.912  21.268  1.00  0.00     0.017 C 
HETATM    7  C   LIG     1      24.494  22.816  21.246  1.00  0.00     0.017 C 
ENDBRANCH   2   4
BRANCH   2   8
HETATM    8  O   LIG     1      22.104  22.505  18.670  1.00  0.00    -0.390 OA
HETATM    9  H   LIG     1      22.091  23.417  19.060  1.00  0.00     0.210 HD
ENDBRANCH   2   8
TORSDOF 2
ENDMDL
MODEL 12
REMARK VINA RESULT:      -3.1     17.570     18.725
REMARK  2 active torsions:
REMARK  status: ('A' for Active; 'I' for Inactive)
REMARK    1  A    between atoms: C_2  and  C_5 
REMARK    2  A    between atoms: C_2  and  O_4 
ROOT
HETATM    1  C   LIG     1      27.703  30.595  38.129  1.00  0.00     0.046 C 
HETATM    2  C   LIG     1      26.719  29.842  37.195  1.00  0.00     0.057 C 
HETATM    3  C   LIG     1      27.129  28.351  37.219  1.00  0.00     0.046 C 
ENDROOT
BRANCH   2   4
HETATM    4  C   LIG     1      26.697  30.433  35.710  1.00  0.00    -0.021 C 
HETATM    5  C   LIG     1      26.336  29.344  34.667  1.00  0.00     0.017 C 
HETATM    6  C   LIG     1      28.091  30.991  35.325  1.00  0.00     0.017 C 
HETATM    7  C   LIG     1      25.670  31.584  35.553  1.00  0.00     0.017 C 
ENDBRANCH   2   4
BRANCH   2   8
HETATM    8  O   LIG     1      25.425  29.903  37.755  1.00  0.00    -0.390 OA
HETATM    9  H   LIG     1      25.299  29.124  38.356  1.00  0.00     0.210 HD
ENDBRANCH   2   8
TORSDOF 2
ENDMDL
MODEL 13
REMARK VINA RESULT:      -3.1     15.763     17.219
REMARK  2 active torsions:
REMARK  status: ('A' for Active; 'I' for Inactive)
REMARK    1  A    between atoms: C_2  and  C_5 
REMARK    2  A    between atoms: C_2  and  O_4 
ROOT
HETATM    1  C   LIG     1      22.892  21.783  18.875  1.00  0.00     0.046 C 
HETATM    2  C   LIG     1      23.583  21.192  20.134  1.00  0.00     0.057 C 
HETATM    3  C   LIG     1      23.243  19.683  20.163  1.00  0.00     0.046 C 
ENDROOT
BRANCH   2   4
HETATM    4  C   LIG     1      23.151  21.930  21.483  1.00  0.00    -0.021 C 
HETATM    5  C   LIG     1      24.320  22.753  22.084  1.00  0.00     0.017 C 
HETATM    6  C   LIG     1      22.721  20.897  22.557  1.00  0.00     0.017 C 
HETATM    7  C   LIG     1      21.964  22.902  21.265  1.00  0.00     0.017 C 
ENDBRANCH   2   4
BRANCH   2   8
HETATM    8  O   LIG     1      24.981  21.277  19.965  1.00  0.00    -0.390 OA
HETATM    9  H   LIG     1      25.327  22.013  20.533  1.00  0.00     0.210 HD
ENDBRANCH   2   8
TORSDOF 2
ENDMDL
MODEL 14
REMARK VINA RESULT:      -3.1     18.102     19.259
REMARK  2 active torsions:
REMARK  status: ('A' for Active; 'I' for Inactive)
REMARK    1  A    between atoms: C_2  and  C_5 
REMARK    2  A    between atoms: C_2  and  O_4 
ROOT
HETATM    1  C   LIG     1      25.809  31.284  35.807  1.00  0.00     0.046 C 
HETATM    2  C   LIG     1      26.344  30.710  37.147  1.00  0.00     0.057 C 
HETATM    3  C   LIG     1      26.581  31.914  38.087  1.00  0.00     0.046 C 
ENDROOT
BRANCH   2   4
HETATM    4  C   LIG     1      27.661  29.825  36.961  1.00  0.00    -0.021 C 
HETATM    5  C   LIG     1      28.408  30.181  35.649  1.00  0.00     0.017 C 
HETATM    6  C   LIG     1      27.301  28.319  36.888  1.00  0.00     0.017 C 
HETATM    7  C   LIG     1      28.662  30.014  38.129  1.00  0.00     0.017 C 
ENDBRANCH   2   4
BRANCH   2   8
HETATM    8  O   LIG     1      25.327  29.937  37.747  1.00  0.00    -0.390 OA
HETATM    9  H   LIG     1      25.735  29.129  38.151  1.00  0.00     0.210 HD
ENDBRANCH   2   8
TORSDOF 2
ENDMDL
MODEL 15
REMARK VINA RESULT:      -3.0     15.711     16.942
REMARK  2 active torsions:
REMARK  status: ('A' for Active; 'I' for Inactive)
REMARK    1  A    between atoms: C_2  and  C_5 
REMARK    2  A    between atoms: C_2  and  O_4 
ROOT
HETATM    1  C   LIG     1      25.001  22.791  19.703  1.00  0.00     0.046 C 
HETATM    2  C   LIG     1      23.906  21.759  20.084  1.00  0.00     0.057 C 
HETATM    3  C   LIG     1      22.880  21.749  18.928  1.00  0.00     0.046 C 
ENDROOT
BRANCH   2   4
HETATM    4  C   LIG     1      23.220  22.073  21.492  1.00  0.00    -0.021 C 
HETATM    5  C   LIG     1      21.950  22.948  21.327  1.00  0.00     0.017 C 
HETATM    6  C   LIG     1      24.195  22.851  22.413  1.00  0.00     0.017 C 
HETATM    7  C   LIG     1      22.798  20.781  22.238  1.00  0.00     0.017 C 
ENDBRANCH   2   4
BRANCH   2   8
HETATM    8  O   LIG     1      24.485  20.472  20.108  1.00  0.00    -0.390 OA
HETATM    9  H   LIG     1      23.818  19.815  19.781  1.00  0.00     0.210 HD
ENDBRANCH   2   8
TORSDOF 2
ENDMDL
MODEL 16
REMARK VINA RESULT:      -2.9     18.862     20.336
REMARK  2 active torsions:
REMARK  status: ('A' for Active; 'I' for Inactive)
REMARK    1  A    between atoms: C_2  and  C_5 
REMARK    2  A    between atoms: C_2  and  O_4 
ROOT
HETATM    1  C   LIG     1      19.722  20.672  35.957  1.00  0.00     0.046 C 
HETATM    2  C   LIG     1      21.066  21.354  35.585  1.00  0.00     0.057 C 
HETATM    3  C   LIG     1      21.964  21.288  36.843  1.00  0.00     0.046 C 
ENDROOT
BRANCH   2   4
HETATM    4  C   LIG     1      20.879  22.852  35.061  1.00  0.00    -0.021 C 
HETATM    5  C   LIG     1      20.230  23.758  36.140  1.00  0.00     0.017 C 
HETATM    6  C   LIG     1      19.951  22.883  33.819  1.00  0.00     0.017 C 
HETATM    7  C   LIG     1      22.226  23.504  34.658  1.00  0.00     0.017 C 
ENDBRANCH   2   4
BRANCH   2   8
HETATM    8  O   LIG     1      21.712  20.578  34.600  1.00  0.00    -0.390 OA
HETATM    9  H   LIG     1      22.083  19.763  35.027  1.00  0.00     0.210 HD
ENDBRANCH   2   8
TORSDOF 2
ENDMDL
MODEL 17
REMARK VINA RESULT:      -2.9     15.942     17.362
REMARK  2 active torsions:
REMARK  status: ('A' for Active; 'I' for Inactive)
REMARK    1  A    between atoms: C_2  and  C_5 
REMARK    2  A    between atoms: C_2  and  O_4 
ROOT
HETATM    1  C   LIG     1      23.152  19.428  20.483  1.00  0.00     0.046 C 
HETATM    2  C   LIG     1      23.522  20.640  21.379  1.00  0.00     0.057 C 
HETATM    3  C   LIG     1      22.697  20.504  22.680  1.00  0.00     0.046 C 
ENDROOT
BRANCH   2   4
HETATM    4  C   LIG     1      23.275  22.044  20.657  1.00  0.00    -0.021 C 
HETATM    5  C   LIG     1      22.113  22.830  21.318  1.00  0.00     0.017 C 
HETATM    6  C   LIG     1      22.897  21.833  19.169  1.00  0.00     0.017 C 
HETATM    7  C   LIG     1      24.531  22.952  20.699  1.00  0.00     0.017 C 
ENDBRANCH   2   4
BRANCH   2   8
HETATM    8  O   LIG     1      24.876  20.526  21.758  1.00  0.00    -0.390 OA
HETATM    9  H   LIG     1      25.260  19.715  21.335  1.00  0.00     0.210 HD
ENDBRANCH   2   8
TORSDOF 2
ENDMDL
MODEL 18
REMARK VINA RESULT:      -2.9     18.549     19.986
REMARK  2 active torsions:
REMARK  status: ('A' for Active; 'I' for Inactive)
REMARK    1  A    between atoms: C_2  and  C_5 
REMARK    2  A    between atoms: C_2  and  O_4 
ROOT
HETATM    1  C   LIG     1      21.776  20.998  33.629  1.00  0.00     0.046 C 
HETATM    2  C   LIG     1      20.759  21.904  34.375  1.00  0.00     0.057 C 
HETATM    3  C   LIG     1      20.116  22.825  33.313  1.00  0.00     0.046 C 
ENDROOT
BRANCH   2   4
HETATM    4  C   LIG     1      21.427  22.737  35.564  1.00  0.00    -0.021 C 
HETATM    5  C   LIG     1      20.425  23.740  36.192  1.00  0.00     0.017 C 
HETATM    6  C   LIG     1      22.633  23.560  35.043  1.00  0.00     0.017 C 
HETATM    7  C   LIG     1      21.941  21.820  36.704  1.00  0.00     0.017 C 
ENDBRANCH   2   4
BRANCH   2   8
HETATM    8  O   LIG     1      19.718  21.097  34.880  1.00  0.00    -0.390 OA
HETATM    9  H   LIG     1      19.053  20.945  34.160  1.00  0.00     0.210 HD
ENDBRANCH   2   8
TORSDOF 2
ENDMDL
MODEL 19
REMARK VINA RESULT:      -2.8     19.148     20.003
REMARK  2 active torsions:
REMARK  status: ('A' for Active; 'I' for Inactive)
REMARK    1  A    between atoms: C_2  and  C_5 
REMARK    2  A    between atoms: C_2  and  O_4 
ROOT
HETATM    1  C   LIG     1      19.425  20.949  35.444  1.00  0.00     0.046 C 
HETATM    2  C   LIG     1      20.323  21.937  34.652  1.00  0.00     0.057 C 
HETATM    3  C   LIG     1      21.128  21.093  33.636  1.00  0.00     0.046 C 
ENDROOT
BRANCH   2   4
HETATM    4  C   LIG     1      21.275  22.804  35.598  1.00  0.00    -0.021 C 
HETATM    5  C   LIG     1      21.945  21.931  36.690  1.00  0.00     0.017 C 
HETATM    6  C   LIG     1      20.463  23.905  36.327  1.00  0.00     0.017 C 
HETATM    7  C   LIG     1      22.408  23.504  34.804  1.00  0.00     0.017 C 
ENDBRANCH   2   4
BRANCH   2   8
HETATM    8  O   LIG     1      19.497  22.789  33.889  1.00  0.00    -0.390 OA
HETATM    9  H   LIG     1      19.530  23.700  34.280  1.00  0.00     0.210 HD
ENDBRANCH   2   8
TORSDOF 2
ENDMDL
