MODEL 1
REMARK VINA RESULT:      -4.9      0.000      0.000
REMARK  2 active torsions:
REMARK  status: ('A' for Active; 'I' for Inactive)
REMARK    1  A    between atoms: C_2  and  C_5 
REMARK    2  A    between atoms: C_2  and  O_4 
ROOT
HETATM    1  C   LIG     1      16.878  36.335  22.770  1.00  0.00     0.045 C 
HETATM    2  C   LIG     1      17.029  37.269  23.995  1.00  0.00     0.053 C 
HETATM    3  C   LIG     1      18.147  38.299  23.711  1.00  0.00     0.045 C 
ENDROOT
BRANCH   2   4
HETATM    4  C   LIG     1      17.336  36.476  25.313  1.00  0.00     0.011 C 
HETATM    5  C   LIG     1      18.598  36.945  26.063  1.00  0.00     0.012 C 
HETATM    6  C   LIG     1      17.413  34.956  25.085  1.00  0.00     0.012 C 
ENDBRANCH   2   4
BRANCH   2   7
HETATM    7  O   LIG     1      15.822  37.972  24.190  1.00  0.00    -0.390 OA
HETATM    8  H   LIG     1      15.678  38.090  25.166  1.00  0.00     0.210 HD
ENDBRANCH   2   7
TORSDOF 2
ENDMDL
MODEL 2
REMARK VINA RESULT:      -4.8      1.398      2.709
REMARK  2 active torsions:
REMARK  status: ('A' for Active; 'I' for Inactive)
REMARK    1  A    between atoms: C_2  and  C_5 
REMARK    2  A    between atoms: C_2  and  O_4 
ROOT
HETATM    1  C   LIG     1      17.145  38.866  22.547  1.00  0.00     0.045 C 
HETATM    2  C   LIG     1      16.469  37.686  23.286  1.00  0.00     0.053 C 
HETATM    3  C   LIG     1      17.150  37.494  24.662  1.00  0.00     0.045 C 
ENDROOT
BRANCH   2   4
HETATM    4  C   LIG     1      16.525  36.356  22.457  1.00  0.00     0.011 C 
HETATM    5  C   LIG     1      17.039  35.134  23.243  1.00  0.00     0.012 C 
HETATM    6  C   LIG     1      17.334  36.502  21.155  1.00  0.00     0.012 C 
ENDBRANCH   2   4
BRANCH   2   7
HETATM    7  O   LIG     1      15.111  37.996  23.506  1.00  0.00    -0.390 OA
HETATM    8  H   LIG     1      14.788  38.555  22.752  1.00  0.00     0.210 HD
ENDBRANCH   2   7
TORSDOF 2
ENDMDL
MODEL 3
REMARK VINA RESULT:      -4.5      1.524      3.501
REMARK  2 active torsions:
REMARK  status: ('A' for Active; 'I' for Inactive)
REMARK    1  A    between atoms: C_2  and  C_5 
REMARK    2  A    between atoms: C_2  and  O_4 
ROOT
HETATM    1  C   LIG     1      17.653  38.136  24.412  1.00  0.00     0.045 C 
HETATM    2  C   LIG     1      16.829  37.600  23.217  1.00  0.00     0.053 C 
HETATM    3  C   LIG     1      16.841  36.054  23.247  1.00  0.00     0.045 C 
ENDROOT
BRANCH   2   4
HETATM    4  C   LIG     1      17.368  38.126  21.841  1.00  0.00     0.011 C 
HETATM    5  C   LIG     1      17.851  37.022  20.880  1.00  0.00     0.012 C 
HETATM    6  C   LIG     1      18.475  39.183  22.003  1.00  0.00     0.012 C 
ENDBRANCH   2   4
BRANCH   2   7
HETATM    7  O   LIG     1      15.493  38.033  23.346  1.00  0.00    -0.390 OA
HETATM    8  H   LIG     1      14.896  37.242  23.274  1.00  0.00     0.210 HD
ENDBRANCH   2   7
TORSDOF 2
ENDMDL
MODEL 4
REMARK VINA RESULT:      -4.4      1.222      2.087
REMARK  2 active torsions:
REMARK  status: ('A' for Active; 'I' for Inactive)
REMARK    1  A    between atoms: C_2  and  C_5 
REMARK    2  A    between atoms: C_2  and  O_4 
ROOT
HETATM    1  C   LIG     1      15.374  37.650  22.731  1.00  0.00     0.045 C 
HETATM    2  C   LIG     1      16.713  37.533  23.498  1.00  0.00     0.053 C 
HETATM    3  C   LIG     1      17.727  38.536  22.902  1.00  0.00     0.045 C 
ENDROOT
BRANCH   2   4
HETATM    4  C   LIG     1      17.295  36.077  23.458  1.00  0.00     0.011 C 
HETATM    5  C   LIG     1      16.656  35.162  22.395  1.00  0.00     0.012 C 
HETATM    6  C   LIG     1      17.243  35.380  24.830  1.00  0.00     0.012 C 
ENDBRANCH   2   4
BRANCH   2   7
HETATM    7  O   LIG     1      16.501  37.871  24.850  1.00  0.00    -0.390 OA
HETATM    8  H   LIG     1      16.389  38.856  24.917  1.00  0.00     0.210 HD
ENDBRANCH   2   7
TORSDOF 2
ENDMDL
MODEL 5
REMARK VINA RESULT:      -4.3      2.047      3.163
REMARK  2 active torsions:
REMARK  status: ('A' for Active; 'I' for Inactive)
REMARK    1  A    between atoms: C_2  and  C_5 
REMARK    2  A    between atoms: C_2  and  O_4 
ROOT
HETATM    1  C   LIG     1      16.984  35.214  22.983  1.00  0.00     0.045 C 
HETATM    2  C   LIG     1      16.571  36.319  21.981  1.00  0.00     0.053 C 
HETATM    3  C   LIG     1      17.530  36.285  20.768  1.00  0.00     0.045 C 
ENDROOT
BRANCH   2   4
HETATM    4  C   LIG     1      16.567  37.744  22.637  1.00  0.00     0.011 C 
HETATM    5  C   LIG     1      17.513  38.759  21.967  1.00  0.00     0.012 C 
HETATM    6  C   LIG     1      16.852  37.701  24.149  1.00  0.00     0.012 C 
ENDBRANCH   2   4
BRANCH   2   7
HETATM    7  O   LIG     1      15.266  36.057  21.518  1.00  0.00    -0.390 OA
HETATM    8  H   LIG     1      15.076  35.089  21.634  1.00  0.00     0.210 HD
ENDBRANCH   2   7
TORSDOF 2
ENDMDL
MODEL 6
REMARK VINA RESULT:      -4.2      1.923      3.387
REMARK  2 active torsions:
REMARK  status: ('A' for Active; 'I' for Inactive)
REMARK    1  A    between atoms: C_2  and  C_5 
REMARK    2  A    between atoms: C_2  and  O_4 
ROOT
HETATM    1  C   LIG     1      17.174  37.796  24.573  1.00  0.00     0.045 C 
HETATM    2  C   LIG     1      16.758  38.238  23.149  1.00  0.00     0.053 C 
HETATM    3  C   LIG     1      15.440  37.526  22.763  1.00  0.00     0.045 C 
ENDROOT
BRANCH   2   4
HETATM    4  C   LIG     1      17.872  37.941  22.086  1.00  0.00     0.011 C 
HETATM    5  C   LIG     1      18.329  39.171  21.278  1.00  0.00     0.012 C 
HETATM    6  C   LIG     1      17.481  36.811  21.116  1.00  0.00     0.012 C 
ENDBRANCH   2   4
BRANCH   2   7
HETATM    7  O   LIG     1      16.525  39.628  23.147  1.00  0.00    -0.390 OA
HETATM    8  H   LIG     1      17.288  40.078  23.595  1.00  0.00     0.210 HD
ENDBRANCH   2   7
TORSDOF 2
ENDMDL
MODEL 7
REMARK VINA RESULT:      -4.1      3.935      4.893
REMARK  2 active torsions:
REMARK  status: ('A' for Active; 'I' for Inactive)
REMARK    1  A    between atoms: C_2  and  C_5 
REMARK    2  A    between atoms: C_2  and  O_4 
ROOT
HETATM    1  C   LIG     1      18.654  39.234  18.639  1.00  0.00     0.045 C 
HETATM    2  C   LIG     1      19.123  38.484  19.908  1.00  0.00     0.053 C 
HETATM    3  C   LIG     1      19.485  37.029  19.531  1.00  0.00     0.045 C 
ENDROOT
BRANCH   2   4
HETATM    4  C   LIG     1      18.040  38.503  21.043  1.00  0.00     0.011 C 
HETATM    5  C   LIG     1      18.506  39.154  22.360  1.00  0.00     0.012 C 
HETATM    6  C   LIG     1      17.468  37.105  21.339  1.00  0.00     0.012 C 
ENDBRANCH   2   4
BRANCH   2   7
HETATM    7  O   LIG     1      20.282  39.110  20.413  1.00  0.00    -0.390 OA
HETATM    8  H   LIG     1      21.011  38.437  20.458  1.00  0.00     0.210 HD
ENDBRANCH   2   7
TORSDOF 2
ENDMDL
MODEL 8
REMARK VINA RESULT:      -4.1      8.599     10.139
REMARK  2 active torsions:
REMARK  status: ('A' for Active; 'I' for Inactive)
REMARK    1  A    between atoms: C_2  and  C_5 
REMARK    2  A    between atoms: C_2  and  O_4 
ROOT
HETATM    1  C   LIG     1      14.933  33.514  16.722  1.00  0.00     0.045 C 
HETATM    2  C   LIG     1      14.147  32.236  17.102  1.00  0.00     0.053 C 
HETATM    3  C   LIG     1      14.550  31.799  18.530  1.00  0.00     0.045 C 
ENDROOT
BRANCH   2   4
HETATM    4  C   LIG     1      14.385  31.067  16.083  1.00  0.00     0.011 C 
HETATM    5  C   LIG     1      15.315  31.425  14.907  1.00  0.00     0.012 C 
HETATM    6  C   LIG     1      13.072  30.481  15.536  1.00  0.00     0.012 C 
ENDBRANCH   2   4
BRANCH   2   7
HETATM    7  O   LIG     1      12.767  32.527  17.103  1.00  0.00    -0.390 OA
HETATM    8  H   LIG     1      12.642  33.467  17.397  1.00  0.00     0.210 HD
ENDBRANCH   2   7
TORSDOF 2
ENDMDL
MODEL 9
REMARK VINA RESULT:      -4.1      1.969      3.652
REMARK  2 active torsions:
REMARK  status: ('A' for Active; 'I' for Inactive)
REMARK    1  A    between atoms: C_2  and  C_5 
REMARK    2  A    between atoms: C_2  and  O_4 
ROOT
HETATM    1  C   LIG     1      17.513  38.240  22.361  1.00  0.00     0.045 C 
HETATM    2  C   LIG     1      16.820  36.856  22.369  1.00  0.00     0.053 C 
HETATM    3  C   LIG     1      17.094  36.161  23.723  1.00  0.00     0.045 C 
ENDROOT
BRANCH   2   4
HETATM    4  C   LIG     1      17.295  35.948  21.181  1.00  0.00     0.011 C 
HETATM    5  C   LIG     1      18.219  36.652  20.168  1.00  0.00     0.012 C 
HETATM    6  C   LIG     1      16.122  35.292  20.431  1.00  0.00     0.012 C 
ENDBRANCH   2   4
BRANCH   2   7
HETATM    7  O   LIG     1      15.428  37.036  22.239  1.00  0.00    -0.390 OA
HETATM    8  H   LIG     1      15.071  37.374  23.102  1.00  0.00     0.210 HD
ENDBRANCH   2   7
TORSDOF 2
ENDMDL
MODEL 10
REMARK VINA RESULT:      -4.0      3.056      3.878
REMARK  2 active torsions:
REMARK  status: ('A' for Active; 'I' for Inactive)
REMARK    1  A    between atoms: C_2  and  C_5 
REMARK    2  A    between atoms: C_2  and  O_4 
ROOT
HETATM    1  C   LIG     1      15.147  35.931  21.327  1.00  0.00     0.045 C 
HETATM    2  C   LIG     1      16.673  36.036  21.564  1.00  0.00     0.053 C 
HETATM    3  C   LIG     1      17.126  34.866  22.468  1.00  0.00     0.045 C 
ENDROOT
BRANCH   2   4
HETATM    4  C   LIG     1      17.082  37.410  22.202  1.00  0.00     0.011 C 
HETATM    5  C   LIG     1      15.899  38.252  22.719  1.00  0.00     0.012 C 
HETATM    6  C   LIG     1      17.944  38.268  21.258  1.00  0.00     0.012 C 
ENDBRANCH   2   4
BRANCH   2   7
HETATM    7  O   LIG     1      17.341  35.923  20.328  1.00  0.00    -0.390 OA
HETATM    8  H   LIG     1      16.663  35.875  19.604  1.00  0.00     0.210 HD
ENDBRANCH   2   7
TORSDOF 2
ENDMDL
MODEL 11
REMARK VINA RESULT:      -4.0      3.408      4.760
REMARK  2 active torsions:
REMARK  status: ('A' for Active; 'I' for Inactive)
REMARK    1  A    between atoms: C_2  and  C_5 
REMARK    2  A    between atoms: C_2  and  O_4 
ROOT
HETATM    1  C   LIG     1      14.614  35.662  21.038  1.00  0.00     0.045 C 
HETATM    2  C   LIG     1      15.821  34.880  20.465  1.00  0.00     0.053 C 
HETATM    3  C   LIG     1      15.503  33.367  20.496  1.00  0.00     0.045 C 
ENDROOT
BRANCH   2   4
HETATM    4  C   LIG     1      17.147  35.177  21.249  1.00  0.00     0.011 C 
HETATM    5  C   LIG     1      16.983  35.245  22.780  1.00  0.00     0.012 C 
HETATM    6  C   LIG     1      17.855  36.452  20.755  1.00  0.00     0.012 C 
ENDBRANCH   2   4
BRANCH   2   7
HETATM    7  O   LIG     1      16.024  35.261  19.123  1.00  0.00    -0.390 OA
HETATM    8  H   LIG     1      15.386  35.989  18.901  1.00  0.00     0.210 HD
ENDBRANCH   2   7
TORSDOF 2
ENDMDL
MODEL 12
REMARK VINA RESULT:      -3.9      2.457      3.717
REMARK  2 active torsions:
REMARK  status: ('A' for Active; 'I' for Inactive)
REMARK    1  A    between atoms: C_2  and  C_5 
REMARK    2  A    between atoms: C_2  and  O_4 
ROOT
HETATM    1  C   LIG     1      17.178  35.190  22.523  1.00  0.00     0.045 C 
HETATM    2  C   LIG     1      16.498  36.551  22.239  1.00  0.00     0.053 C 
HETATM    3  C   LIG     1      15.100  36.301  21.629  1.00  0.00     0.045 C 
ENDROOT
BRANCH   2   4
HETATM    4  C   LIG     1      17.357  37.457  21.289  1.00  0.00     0.011 C 
HETATM    5  C   LIG     1      18.305  36.683  20.352  1.00  0.00     0.012 C 
HETATM    6  C   LIG     1      18.157  38.528  22.053  1.00  0.00     0.012 C 
ENDBRANCH   2   4
BRANCH   2   7
HETATM    7  O   LIG     1      16.331  37.246  23.455  1.00  0.00    -0.390 OA
HETATM    8  H   LIG     1      16.657  38.176  23.336  1.00  0.00     0.210 HD
ENDBRANCH   2   7
TORSDOF 2
ENDMDL
MODEL 13
REMARK VINA RESULT:      -3.8      4.291      5.378
REMARK  2 active torsions:
REMARK  status: ('A' for Active; 'I' for Inactive)
REMARK    1  A    between atoms: C_2  and  C_5 
REMARK    2  A    between atoms: C_2  and  O_4 
ROOT
HETATM    1  C   LIG     1      20.649  38.899  19.508  1.00  0.00     0.045 C 
HETATM    2  C   LIG     1      19.121  38.890  19.754  1.00  0.00     0.053 C 
HETATM    3  C   LIG     1      18.821  39.594  21.098  1.00  0.00     0.045 C 
ENDROOT
BRANCH   2   4
HETATM    4  C   LIG     1      18.528  37.438  19.752  1.00  0.00     0.011 C 
HETATM    5  C   LIG     1      17.715  37.078  21.011  1.00  0.00     0.012 C 
HETATM    6  C   LIG     1      19.600  36.360  19.511  1.00  0.00     0.012 C 
ENDBRANCH   2   4
BRANCH   2   7
HETATM    7  O   LIG     1      18.484  39.614  18.725  1.00  0.00    -0.390 OA
HETATM    8  H   LIG     1      18.937  40.492  18.628  1.00  0.00     0.210 HD
ENDBRANCH   2   7
TORSDOF 2
ENDMDL
MODEL 14
REMARK VINA RESULT:      -3.8      3.966      5.002
REMARK  2 active torsions:
REMARK  status: ('A' for Active; 'I' for Inactive)
REMARK    1  A    between atoms: C_2  and  C_5 
REMARK    2  A    between atoms: C_2  and  O_4 
ROOT
HETATM    1  C   LIG     1      20.208  36.539  19.592  1.00  0.00     0.045 C 
HETATM    2  C   LIG     1      18.771  37.114  19.610  1.00  0.00     0.053 C 
HETATM    3  C   LIG     1      18.840  38.653  19.481  1.00  0.00     0.045 C 
ENDROOT
BRANCH   2   4
HETATM    4  C   LIG     1      17.986  36.707  20.906  1.00  0.00     0.011 C 
HETATM    5  C   LIG     1      16.803  35.750  20.663  1.00  0.00     0.012 C 
HETATM    6  C   LIG     1      17.499  37.926  21.711  1.00  0.00     0.012 C 
ENDBRANCH   2   4
BRANCH   2   7
HETATM    7  O   LIG     1      18.059  36.610  18.503  1.00  0.00    -0.390 OA
HETATM    8  H   LIG     1      18.606  36.745  17.686  1.00  0.00     0.210 HD
ENDBRANCH   2   7
TORSDOF 2
ENDMDL
MODEL 15
REMARK VINA RESULT:      -3.7      1.850      3.194
REMARK  2 active torsions:
REMARK  status: ('A' for Active; 'I' for Inactive)
REMARK    1  A    between atoms: C_2  and  C_5 
REMARK    2  A    between atoms: C_2  and  O_4 
ROOT
HETATM    1  C   LIG     1      17.174  37.206  24.288  1.00  0.00     0.045 C 
HETATM    2  C   LIG     1      16.862  37.464  22.794  1.00  0.00     0.053 C 
HETATM    3  C   LIG     1      15.606  38.359  22.687  1.00  0.00     0.045 C 
ENDROOT
BRANCH   2   4
HETATM    4  C   LIG     1      16.656  36.132  21.992  1.00  0.00     0.011 C 
HETATM    5  C   LIG     1      15.236  35.941  21.424  1.00  0.00     0.012 C 
HETATM    6  C   LIG     1      17.052  34.884  22.802  1.00  0.00     0.012 C 
ENDBRANCH   2   4
BRANCH   2   7
HETATM    7  O   LIG     1      17.945  38.152  22.208  1.00  0.00    -0.390 OA
HETATM    8  H   LIG     1      18.449  38.618  22.926  1.00  0.00     0.210 HD
ENDBRANCH   2   7
TORSDOF 2
ENDMDL
MODEL 16
REMARK VINA RESULT:      -3.7      1.668      3.060
REMARK  2 active torsions:
REMARK  status: ('A' for Active; 'I' for Inactive)
REMARK    1  A    between atoms: C_2  and  C_5 
REMARK    2  A    between atoms: C_2  and  O_4 
ROOT
HETATM    1  C   LIG     1      17.855  36.186  25.472  1.00  0.00     0.045 C 
HETATM    2  C   LIG     1      17.740  37.605  24.865  1.00  0.00     0.053 C 
HETATM    3  C   LIG     1      17.140  38.560  25.924  1.00  0.00     0.045 C 
ENDROOT
BRANCH   2   4
HETATM    4  C   LIG     1      16.873  37.623  23.558  1.00  0.00     0.011 C 
HETATM    5  C   LIG     1      16.859  36.292  22.782  1.00  0.00     0.012 C 
HETATM    6  C   LIG     1      17.265  38.766  22.603  1.00  0.00     0.012 C 
ENDBRANCH   2   4
BRANCH   2   7
HETATM    7  O   LIG     1      19.028  38.071  24.531  1.00  0.00    -0.390 OA
HETATM    8  H   LIG     1      18.971  38.573  23.676  1.00  0.00     0.210 HD
ENDBRANCH   2   7
TORSDOF 2
ENDMDL
MODEL 17
REMARK VINA RESULT:      -3.7      9.974     11.460
REMARK  2 active torsions:
REMARK  status: ('A' for Active; 'I' for Inactive)
REMARK    1  A    between atoms: C_2  and  C_5 
REMARK    2  A    between atoms: C_2  and  O_4 
ROOT
HETATM    1  C   LIG     1      15.618  32.893  15.911  1.00  0.00     0.045 C 
HETATM    2  C   LIG     1      15.966  31.845  14.827  1.00  0.00     0.053 C 
HETATM    3  C   LIG     1      16.321  32.577  13.511  1.00  0.00     0.045 C 
ENDROOT
BRANCH   2   4
HETATM    4  C   LIG     1      14.798  30.826  14.589  1.00  0.00     0.011 C 
HETATM    5  C   LIG     1      13.823  30.683  15.774  1.00  0.00     0.012 C 
HETATM    6  C   LIG     1      15.303  29.432  14.173  1.00  0.00     0.012 C 
ENDBRANCH   2   4
BRANCH   2   7
HETATM    7  O   LIG     1      17.097  31.111  15.241  1.00  0.00    -0.390 OA
HETATM    8  H   LIG     1      17.193  31.207  16.225  1.00  0.00     0.210 HD
ENDBRANCH   2   7
TORSDOF 2
ENDMDL
MODEL 18
REMARK VINA RESULT:      -3.6      8.323      9.958
REMARK  2 active torsions:
REMARK  status: ('A' for Active; 'I' for Inactive)
REMARK    1  A    between atoms: C_2  and  C_5 
REMARK    2  A    between atoms: C_2  and  O_4 
ROOT
HETATM    1  C   LIG     1      15.266  32.266  18.079  1.00  0.00     0.045 C 
HETATM    2  C   LIG     1      14.482  32.676  16.809  1.00  0.00     0.053 C 
HETATM    3  C   LIG     1      13.069  32.050  16.863  1.00  0.00     0.045 C 
ENDROOT
BRANCH   2   4
HETATM    4  C   LIG     1      15.221  32.248  15.492  1.00  0.00     0.011 C 
HETATM    5  C   LIG     1      14.853  30.842  14.981  1.00  0.00     0.012 C 
HETATM    6  C   LIG     1      16.751  32.366  15.606  1.00  0.00     0.012 C 
ENDBRANCH   2   4
BRANCH   2   7
HETATM    7  O   LIG     1      14.343  34.079  16.785  1.00  0.00    -0.390 OA
HETATM    8  H   LIG     1      14.625  34.440  17.666  1.00  0.00     0.210 HD
ENDBRANCH   2   7
TORSDOF 2
ENDMDL
MODEL 19
REMARK VINA RESULT:      -3.6     12.647     13.908
REMARK  2 active torsions:
REMARK  status: ('A' for Active; 'I' for Inactive)
REMARK    1  A    between atoms: C_2  and  C_5 
REMARK    2  A    between atoms: C_2  and  O_4 
ROOT
HETATM    1  C   LIG     1      21.076  32.436  10.043  1.00  0.00     0.045 C 
HETATM    2  C   LIG     1      20.454  33.677  10.728  1.00  0.00     0.053 C 
HETATM    3  C   LIG     1      21.086  34.955  10.130  1.00  0.00     0.045 C 
ENDROOT
BRANCH   2   4
HETATM    4  C   LIG     1      20.641  33.650  12.286  1.00  0.00     0.011 C 
HETATM    5  C   LIG     1      19.341  33.855  13.089  1.00  0.00     0.012 C 
HETATM    6  C   LIG     1      21.705  34.650  12.772  1.00  0.00     0.012 C 
ENDBRANCH   2   4
BRANCH   2   7
HETATM    7  O   LIG     1      19.069  33.705  10.464  1.00  0.00    -0.390 OA
HETATM    8  H   LIG     1      18.734  32.770  10.431  1.00  0.00     0.210 HD
ENDBRANCH   2   7
TORSDOF 2
ENDMDL
MODEL 20
REMARK VINA RESULT:      -3.4     11.061     12.278
REMARK  2 active torsions:
REMARK  status: ('A' for Active; 'I' for Inactive)
REMARK    1  A    between atoms: C_2  and  C_5 
REMARK    2  A    between atoms: C_2  and  O_4 
ROOT
HETATM    1  C   LIG     1      13.172  29.409  14.241  1.00  0.00     0.045 C 
HETATM    2  C   LIG     1      14.646  29.882  14.231  1.00  0.00     0.053 C 
HETATM    3  C   LIG     1      15.573  28.646  14.159  1.00  0.00     0.045 C 
ENDROOT
BRANCH   2   4
HETATM    4  C   LIG     1      14.997  30.758  15.484  1.00  0.00     0.011 C 
HETATM    5  C   LIG     1      13.795  31.084  16.392  1.00  0.00     0.012 C 
HETATM    6  C   LIG     1      15.723  32.063  15.110  1.00  0.00     0.012 C 
ENDBRANCH   2   4
BRANCH   2   7
HETATM    7  O   LIG     1      14.870  30.669  13.083  1.00  0.00    -0.390 OA
HETATM    8  H   LIG     1      14.052  30.649  12.520  1.00  0.00     0.210 HD
ENDBRANCH   2   7
TORSDOF 2
ENDMDL
