REMARK  2 active torsions:
REMARK  status: ('A' for Active; 'I' for Inactive)
REMARK    1  A    between atoms: C_2  and  C_5 
REMARK    2  A    between atoms: C_2  and  O_4 
ROOT
HETATM    1  C   LIG     1       1.452  -0.972  -1.050  1.00  0.00     0.046 C 
HETATM    2  C   LIG     1       0.947   0.056  -0.002  1.00  0.00     0.057 C 
HETATM    3  C   LIG     1       1.482  -0.407   1.373  1.00  0.00     0.046 C 
ENDROOT
BRANCH   2   4
HETATM    4  C   LIG     1      -0.643   0.214  -0.004  1.00  0.00    -0.021 C 
HETATM    5  C   LIG     1      -1.193   0.442  -1.436  1.00  0.00     0.017 C 
HETATM    6  C   LIG     1      -1.071   1.435   0.850  1.00  0.00     0.017 C 
HETATM    7  C   LIG     1      -1.356  -1.036   0.572  1.00  0.00     0.017 C 
ENDBRANCH   2   4
BRANCH   2   8
HETATM    8  O   LIG     1       1.554   1.303  -0.261  1.00  0.00    -0.390 OA
HETATM    9  H   LIG     1       1.407   1.539  -1.213  1.00  0.00     0.210 HD
ENDBRANCH   2   8
TORSDOF 2
