MODEL 1
REMARK VINA RESULT:      -4.1      0.000      0.000
REMARK  1 active torsions:
REMARK  status: ('A' for Active; 'I' for Inactive)
REMARK    1  A    between atoms: C_2  and  C_5 
ROOT
HETATM    1  C   LIG     1      18.798  37.027  19.479  1.00  0.00     0.032 C 
HETATM    2  C   LIG     1      19.241  38.499  19.391  1.00  0.00     0.029 C 
HETATM    3  C   LIG     1      20.775  38.568  19.467  1.00  0.00     0.032 C 
HETATM    4 CL   LIG     1      18.743  39.160  17.801  1.00  0.00    -0.120 Cl
ENDROOT
BRANCH   2   5
HETATM    5  C   LIG     1      18.636  39.350  20.537  1.00  0.00     0.020 C 
HETATM    6  C   LIG     1      17.862  38.546  21.586  1.00  0.00     0.007 C 
ENDBRANCH   2   5
TORSDOF 1
ENDMDL
MODEL 2
REMARK VINA RESULT:      -4.0      0.604      2.035
REMARK  1 active torsions:
REMARK  status: ('A' for Active; 'I' for Inactive)
REMARK    1  A    between atoms: C_2  and  C_5 
ROOT
HETATM    1  C   LIG     1      20.770  38.596  19.477  1.00  0.00     0.032 C 
HETATM    2  C   LIG     1      19.243  38.448  19.352  1.00  0.00     0.029 C 
HETATM    3  C   LIG     1      18.567  39.178  20.524  1.00  0.00     0.032 C 
HETATM    4 CL   LIG     1      18.705  39.236  17.835  1.00  0.00    -0.120 Cl
ENDROOT
BRANCH   2   5
HETATM    5  C   LIG     1      18.808  36.959  19.363  1.00  0.00     0.020 C 
HETATM    6  C   LIG     1      17.934  36.560  20.556  1.00  0.00     0.007 C 
ENDBRANCH   2   5
TORSDOF 1
ENDMDL
MODEL 3
REMARK VINA RESULT:      -4.0      3.740      4.582
REMARK  1 active torsions:
REMARK  status: ('A' for Active; 'I' for Inactive)
REMARK    1  A    between atoms: C_2  and  C_5 
ROOT
HETATM    1  C   LIG     1      17.569  36.277  20.800  1.00  0.00     0.032 C 
HETATM    2  C   LIG     1      16.545  36.282  21.949  1.00  0.00     0.029 C 
HETATM    3  C   LIG     1      15.176  35.839  21.407  1.00  0.00     0.032 C 
HETATM    4 CL   LIG     1      17.054  35.089  23.186  1.00  0.00    -0.120 Cl
ENDROOT
BRANCH   2   5
HETATM    5  C   LIG     1      16.407  37.688  22.588  1.00  0.00     0.020 C 
HETATM    6  C   LIG     1      17.371  38.739  22.029  1.00  0.00     0.007 C 
ENDBRANCH   2   5
TORSDOF 1
ENDMDL
MODEL 4
REMARK VINA RESULT:      -3.8      4.054      4.881
REMARK  1 active torsions:
REMARK  status: ('A' for Active; 'I' for Inactive)
REMARK    1  A    between atoms: C_2  and  C_5 
ROOT
HETATM    1  C   LIG     1      16.395  37.486  22.959  1.00  0.00     0.032 C 
HETATM    2  C   LIG     1      16.553  36.221  22.096  1.00  0.00     0.029 C 
HETATM    3  C   LIG     1      15.195  35.865  21.470  1.00  0.00     0.032 C 
HETATM    4 CL   LIG     1      17.696  36.569  20.760  1.00  0.00    -0.120 Cl
ENDROOT
BRANCH   2   5
HETATM    5  C   LIG     1      17.059  35.016  22.931  1.00  0.00     0.020 C 
HETATM    6  C   LIG     1      17.198  35.295  24.431  1.00  0.00     0.007 C 
ENDBRANCH   2   5
TORSDOF 1
ENDMDL
MODEL 5
REMARK VINA RESULT:      -3.8      3.823      5.075
REMARK  1 active torsions:
REMARK  status: ('A' for Active; 'I' for Inactive)
REMARK    1  A    between atoms: C_2  and  C_5 
ROOT
HETATM    1  C   LIG     1      17.777  38.099  22.243  1.00  0.00     0.032 C 
HETATM    2  C   LIG     1      16.865  37.313  23.203  1.00  0.00     0.029 C 
HETATM    3  C   LIG     1      17.154  37.753  24.647  1.00  0.00     0.032 C 
HETATM    4 CL   LIG     1      15.156  37.716  22.841  1.00  0.00    -0.120 Cl
ENDROOT
BRANCH   2   5
HETATM    5  C   LIG     1      17.089  35.783  23.083  1.00  0.00     0.020 C 
HETATM    6  C   LIG     1      17.248  35.056  24.422  1.00  0.00     0.007 C 
ENDBRANCH   2   5
TORSDOF 1
ENDMDL
MODEL 6
REMARK VINA RESULT:      -3.7      3.247      4.204
REMARK  1 active torsions:
REMARK  status: ('A' for Active; 'I' for Inactive)
REMARK    1  A    between atoms: C_2  and  C_5 
ROOT
HETATM    1  C   LIG     1      17.208  36.256  23.866  1.00  0.00     0.032 C 
HETATM    2  C   LIG     1      16.970  37.274  22.736  1.00  0.00     0.029 C 
HETATM    3  C   LIG     1      17.266  36.604  21.384  1.00  0.00     0.032 C 
HETATM    4 CL   LIG     1      15.244  37.755  22.740  1.00  0.00    -0.120 Cl
ENDROOT
BRANCH   2   5
HETATM    5  C   LIG     1      17.873  38.525  22.891  1.00  0.00     0.020 C 
HETATM    6  C   LIG     1      18.334  39.146  21.569  1.00  0.00     0.007 C 
ENDBRANCH   2   5
TORSDOF 1
ENDMDL
MODEL 7
REMARK VINA RESULT:      -3.7      3.704      4.556
REMARK  1 active torsions:
REMARK  status: ('A' for Active; 'I' for Inactive)
REMARK    1  A    between atoms: C_2  and  C_5 
ROOT
HETATM    1  C   LIG     1      15.576  38.150  22.690  1.00  0.00     0.032 C 
HETATM    2  C   LIG     1      17.047  37.700  22.623  1.00  0.00     0.029 C 
HETATM    3  C   LIG     1      17.905  38.859  22.093  1.00  0.00     0.032 C 
HETATM    4 CL   LIG     1      17.612  37.314  24.280  1.00  0.00    -0.120 Cl
ENDROOT
BRANCH   2   5
HETATM    5  C   LIG     1      17.228  36.469  21.698  1.00  0.00     0.020 C 
HETATM    6  C   LIG     1      16.917  35.123  22.360  1.00  0.00     0.007 C 
ENDBRANCH   2   5
TORSDOF 1
ENDMDL
MODEL 8
REMARK VINA RESULT:      -3.6      3.299      4.206
REMARK  1 active torsions:
REMARK  status: ('A' for Active; 'I' for Inactive)
REMARK    1  A    between atoms: C_2  and  C_5 
ROOT
HETATM    1  C   LIG     1      17.718  37.889  23.942  1.00  0.00     0.032 C 
HETATM    2  C   LIG     1      17.230  38.084  22.495  1.00  0.00     0.029 C 
HETATM    3  C   LIG     1      15.812  38.675  22.517  1.00  0.00     0.032 C 
HETATM    4 CL   LIG     1      18.302  39.263  21.675  1.00  0.00    -0.120 Cl
ENDROOT
BRANCH   2   5
HETATM    5  C   LIG     1      17.210  36.746  21.711  1.00  0.00     0.020 C 
HETATM    6  C   LIG     1      16.878  35.515  22.561  1.00  0.00     0.007 C 
ENDBRANCH   2   5
TORSDOF 1
ENDMDL
MODEL 9
REMARK VINA RESULT:      -3.6      3.020      4.459
REMARK  1 active torsions:
REMARK  status: ('A' for Active; 'I' for Inactive)
REMARK    1  A    between atoms: C_2  and  C_5 
ROOT
HETATM    1  C   LIG     1      15.779  38.617  22.648  1.00  0.00     0.032 C 
HETATM    2  C   LIG     1      17.082  37.927  23.091  1.00  0.00     0.029 C 
HETATM    3  C   LIG     1      17.120  37.859  24.626  1.00  0.00     0.032 C 
HETATM    4 CL   LIG     1      17.089  36.245  22.470  1.00  0.00    -0.120 Cl
ENDROOT
BRANCH   2   5
HETATM    5  C   LIG     1      18.335  38.688  22.586  1.00  0.00     0.020 C 
HETATM    6  C   LIG     1      18.286  39.082  21.106  1.00  0.00     0.007 C 
ENDBRANCH   2   5
TORSDOF 1
ENDMDL
MODEL 10
REMARK VINA RESULT:      -3.5      4.163      5.009
REMARK  1 active torsions:
REMARK  status: ('A' for Active; 'I' for Inactive)
REMARK    1  A    between atoms: C_2  and  C_5 
ROOT
HETATM    1  C   LIG     1      15.607  37.417  22.438  1.00  0.00     0.032 C 
HETATM    2  C   LIG     1      16.431  36.293  21.784  1.00  0.00     0.029 C 
HETATM    3  C   LIG     1      17.639  36.909  21.061  1.00  0.00     0.032 C 
HETATM    4 CL   LIG     1      17.057  35.210  23.068  1.00  0.00    -0.120 Cl
ENDROOT
BRANCH   2   5
HETATM    5  C   LIG     1      15.588  35.483  20.766  1.00  0.00     0.020 C 
HETATM    6  C   LIG     1      14.945  34.215  21.337  1.00  0.00     0.007 C 
ENDBRANCH   2   5
TORSDOF 1
ENDMDL
MODEL 11
REMARK VINA RESULT:      -3.4      7.424      8.438
REMARK  1 active torsions:
REMARK  status: ('A' for Active; 'I' for Inactive)
REMARK    1  A    between atoms: C_2  and  C_5 
ROOT
HETATM    1  C   LIG     1      15.620  32.092  15.955  1.00  0.00     0.032 C 
HETATM    2  C   LIG     1      14.676  32.640  17.040  1.00  0.00     0.029 C 
HETATM    3  C   LIG     1      15.194  32.212  18.422  1.00  0.00     0.032 C 
HETATM    4 CL   LIG     1      14.698  34.431  16.978  1.00  0.00    -0.120 Cl
ENDROOT
BRANCH   2   5
HETATM    5  C   LIG     1      13.227  32.117  16.856  1.00  0.00     0.020 C 
HETATM    6  C   LIG     1      13.126  30.744  16.185  1.00  0.00     0.007 C 
ENDBRANCH   2   5
TORSDOF 1
ENDMDL
MODEL 12
REMARK VINA RESULT:      -3.4      8.618      9.550
REMARK  1 active torsions:
REMARK  status: ('A' for Active; 'I' for Inactive)
REMARK    1  A    between atoms: C_2  and  C_5 
ROOT
HETATM    1  C   LIG     1      19.145  34.133  11.607  1.00  0.00     0.032 C 
HETATM    2  C   LIG     1      20.661  33.925  11.448  1.00  0.00     0.029 C 
HETATM    3  C   LIG     1      20.914  32.592  10.726  1.00  0.00     0.032 C 
HETATM    4 CL   LIG     1      21.323  35.236  10.420  1.00  0.00    -0.120 Cl
ENDROOT
BRANCH   2   5
HETATM    5  C   LIG     1      21.385  33.905  12.819  1.00  0.00     0.020 C 
HETATM    6  C   LIG     1      22.354  35.070  13.045  1.00  0.00     0.007 C 
ENDBRANCH   2   5
TORSDOF 1
ENDMDL
MODEL 13
REMARK VINA RESULT:      -3.2      7.495      8.800
REMARK  1 active torsions:
REMARK  status: ('A' for Active; 'I' for Inactive)
REMARK    1  A    between atoms: C_2  and  C_5 
ROOT
HETATM    1  C   LIG     1      14.657  34.078  16.942  1.00  0.00     0.032 C 
HETATM    2  C   LIG     1      14.440  32.555  16.998  1.00  0.00     0.029 C 
HETATM    3  C   LIG     1      14.879  32.034  18.376  1.00  0.00     0.032 C 
HETATM    4 CL   LIG     1      12.691  32.210  16.816  1.00  0.00    -0.120 Cl
ENDROOT
BRANCH   2   5
HETATM    5  C   LIG     1      15.247  31.820  15.897  1.00  0.00     0.020 C 
HETATM    6  C   LIG     1      14.464  30.734  15.152  1.00  0.00     0.007 C 
ENDBRANCH   2   5
TORSDOF 1
ENDMDL
MODEL 14
REMARK VINA RESULT:      -3.2      7.070      8.226
REMARK  1 active torsions:
REMARK  status: ('A' for Active; 'I' for Inactive)
REMARK    1  A    between atoms: C_2  and  C_5 
ROOT
HETATM    1  C   LIG     1      12.672  32.207  16.703  1.00  0.00     0.032 C 
HETATM    2  C   LIG     1      14.185  32.290  16.975  1.00  0.00     0.029 C 
HETATM    3  C   LIG     1      14.940  31.544  15.863  1.00  0.00     0.032 C 
HETATM    4 CL   LIG     1      14.690  34.009  16.919  1.00  0.00    -0.120 Cl
ENDROOT
BRANCH   2   5
HETATM    5  C   LIG     1      14.556  31.669  18.346  1.00  0.00     0.020 C 
HETATM    6  C   LIG     1      15.313  32.611  19.288  1.00  0.00     0.007 C 
ENDBRANCH   2   5
TORSDOF 1
ENDMDL
MODEL 15
REMARK VINA RESULT:      -3.1      7.901      8.631
REMARK  1 active torsions:
REMARK  status: ('A' for Active; 'I' for Inactive)
REMARK    1  A    between atoms: C_2  and  C_5 
ROOT
HETATM    1  C   LIG     1      14.600  31.808  18.359  1.00  0.00     0.032 C 
HETATM    2  C   LIG     1      14.252  32.347  16.959  1.00  0.00     0.029 C 
HETATM    3  C   LIG     1      12.744  32.180  16.714  1.00  0.00     0.032 C 
HETATM    4 CL   LIG     1      14.624  34.099  16.903  1.00  0.00    -0.120 Cl
ENDROOT
BRANCH   2   5
HETATM    5  C   LIG     1      15.033  31.600  15.847  1.00  0.00     0.020 C 
HETATM    6  C   LIG     1      16.197  32.392  15.244  1.00  0.00     0.007 C 
ENDBRANCH   2   5
TORSDOF 1
ENDMDL
MODEL 16
REMARK VINA RESULT:      -3.1      8.553      9.352
REMARK  1 active torsions:
REMARK  status: ('A' for Active; 'I' for Inactive)
REMARK    1  A    between atoms: C_2  and  C_5 
ROOT
HETATM    1  C   LIG     1      21.011  32.738  10.883  1.00  0.00     0.032 C 
HETATM    2  C   LIG     1      20.654  34.151  11.379  1.00  0.00     0.029 C 
HETATM    3  C   LIG     1      21.495  34.476  12.624  1.00  0.00     0.032 C 
HETATM    4 CL   LIG     1      21.081  35.338  10.106  1.00  0.00    -0.120 Cl
ENDROOT
BRANCH   2   5
HETATM    5  C   LIG     1      19.150  34.271  11.736  1.00  0.00     0.020 C 
HETATM    6  C   LIG     1      18.781  33.735  13.123  1.00  0.00     0.007 C 
ENDBRANCH   2   5
TORSDOF 1
ENDMDL
MODEL 17
REMARK VINA RESULT:      -3.0      9.038     10.148
REMARK  1 active torsions:
REMARK  status: ('A' for Active; 'I' for Inactive)
REMARK    1  A    between atoms: C_2  and  C_5 
ROOT
HETATM    1  C   LIG     1      19.415  34.957  10.329  1.00  0.00     0.032 C 
HETATM    2  C   LIG     1      19.563  33.905  11.443  1.00  0.00     0.029 C 
HETATM    3  C   LIG     1      20.845  34.193  12.242  1.00  0.00     0.032 C 
HETATM    4 CL   LIG     1      18.175  34.050  12.567  1.00  0.00    -0.120 Cl
ENDROOT
BRANCH   2   5
HETATM    5  C   LIG     1      19.636  32.467  10.868  1.00  0.00     0.020 C 
HETATM    6  C   LIG     1      21.023  32.051  10.366  1.00  0.00     0.007 C 
ENDBRANCH   2   5
TORSDOF 1
ENDMDL
MODEL 18
REMARK VINA RESULT:      -2.8     20.039     20.436
REMARK  1 active torsions:
REMARK  status: ('A' for Active; 'I' for Inactive)
REMARK    1  A    between atoms: C_2  and  C_5 
ROOT
HETATM    1  C   LIG     1      15.754  19.716  13.279  1.00  0.00     0.032 C 
HETATM    2  C   LIG     1      16.037  19.030  14.627  1.00  0.00     0.029 C 
HETATM    3  C   LIG     1      17.102  17.940  14.426  1.00  0.00     0.032 C 
HETATM    4 CL   LIG     1      16.706  20.242  15.766  1.00  0.00    -0.120 Cl
ENDROOT
BRANCH   2   5
HETATM    5  C   LIG     1      14.758  18.386  15.223  1.00  0.00     0.020 C 
HETATM    6  C   LIG     1      14.592  18.580  16.734  1.00  0.00     0.007 C 
ENDBRANCH   2   5
TORSDOF 1
ENDMDL
MODEL 19
REMARK VINA RESULT:      -2.7     21.423     22.111
REMARK  1 active torsions:
REMARK  status: ('A' for Active; 'I' for Inactive)
REMARK    1  A    between atoms: C_2  and  C_5 
ROOT
HETATM    1  C   LIG     1      20.455  21.353  36.188  1.00  0.00     0.032 C 
HETATM    2  C   LIG     1      20.647  22.585  35.285  1.00  0.00     0.029 C 
HETATM    3  C   LIG     1      20.885  23.823  36.165  1.00  0.00     0.032 C 
HETATM    4 CL   LIG     1      22.109  22.343  34.277  1.00  0.00    -0.120 Cl
ENDROOT
BRANCH   2   5
HETATM    5  C   LIG     1      19.411  22.833  34.382  1.00  0.00     0.020 C 
HETATM    6  C   LIG     1      19.740  23.079  32.906  1.00  0.00     0.007 C 
ENDBRANCH   2   5
TORSDOF 1
ENDMDL
