REMARK  3 active torsions:
REMARK  status: ('A' for Active; 'I' for Inactive)
REMARK    1  A    between atoms: C_2  and  O_3 
REMARK    2  A    between atoms: O_3  and  C_4 
REMARK    3  A    between atoms: C_4  and  C_25 
ROOT
HETATM    1  C   LIG     1       3.035  -0.639  -0.146  1.00  0.00     0.138 C 
HETATM    2  C   LIG     1       1.614  -0.758   0.504  1.00  0.00    -0.001 C 
HETATM    3  C   LIG     1       1.525  -2.077   1.345  1.00  0.00     0.019 C 
HETATM    4  C   LIG     1       2.937  -1.604  -1.370  1.00  0.00     0.048 C 
HETATM    5  C   LIG     1       1.446  -1.752  -1.707  1.00  0.00     0.009 C 
HETATM    6  C   LIG     1       0.729  -0.809  -0.746  1.00  0.00     0.005 C 
HETATM    7  C   LIG     1      -0.771  -1.091  -0.454  1.00  0.00     0.018 C 
HETATM    8  C   LIG     1      -1.542  -0.769  -1.717  1.00  0.00    -0.014 C 
HETATM    9  C   LIG     1      -2.567   0.091  -1.796  1.00  0.00    -0.058 C 
HETATM   10  C   LIG     1      -3.159   0.386  -3.156  1.00  0.00     0.048 C 
HETATM   11  C   LIG     1      -3.168   0.667  -0.559  1.00  0.00    -0.040 C 
HETATM   12  C   LIG     1      -4.163   1.580  -0.645  1.00  0.00     0.058 C 
HETATM   13  C   LIG     1      -4.942   2.011   0.529  1.00  0.00     0.149 C 
HETATM   14  O   LIG     1      -5.871   2.849   0.385  1.00  0.00    -0.293 OA
HETATM   15  C   LIG     1      -1.269  -0.318   0.832  1.00  0.00     0.006 C 
HETATM   16  C   LIG     1      -2.809   0.028   0.780  1.00  0.00    -0.012 C 
HETATM   17  C   LIG     1      -3.222   0.968   1.962  1.00  0.00     0.022 C 
HETATM   18  C   LIG     1      -4.679   1.423   1.879  1.00  0.00     0.084 C 
HETATM   19  C   LIG     1      -3.612  -1.297   0.901  1.00  0.00     0.021 C 
HETATM   20  C   LIG     1      -0.322   0.874   1.179  1.00  0.00     0.007 C 
HETATM   21  C   LIG     1       1.165   0.460   1.373  1.00  0.00     0.013 C 
ENDROOT
BRANCH   1  22
HETATM   22  O   LIG     1       3.224   0.702  -0.632  1.00  0.00    -0.302 OA
BRANCH  22  23
HETATM   23  C   LIG     1       4.378   1.178  -1.270  1.00  0.00     0.256 C 
HETATM   24  C   LIG     1       4.421   2.597  -1.725  1.00  0.00     0.126 C 
HETATM   25  O   LIG     1       5.375   0.429  -1.458  1.00  0.00    -0.266 OA
ENDBRANCH  22  23
ENDBRANCH   1  22
BRANCH   1  26
HETATM   26  C   LIG     1       4.167  -0.988   0.827  1.00  0.00     0.158 C 
HETATM   27  C   LIG     1       4.523  -0.076   1.965  1.00  0.00     0.094 C 
HETATM   28  O   LIG     1       4.809  -2.019   0.690  1.00  0.00    -0.295 OA
ENDBRANCH   1  26
TORSDOF 3
