MODEL 1
REMARK VINA RESULT:      -5.2      0.000      0.000
REMARK  3 active torsions:
REMARK  status: ('A' for Active; 'I' for Inactive)
REMARK    1  A    between atoms: C_2  and  C_4 
REMARK    2  A    between atoms: C_4  and  C_7 
REMARK    3  A    between atoms: C_4  and  O_5 
ROOT
HETATM    1  C   LIG     1      16.442  37.804  23.282  1.00  0.00     0.057 C 
HETATM    2  C   LIG     1      17.128  37.581  24.649  1.00  0.00     0.046 C 
ENDROOT
BRANCH   1   3
HETATM    3  C   LIG     1      16.574  36.497  22.413  1.00  0.00     0.011 C 
HETATM    4  C   LIG     1      15.299  36.142  21.622  1.00  0.00     0.012 C 
HETATM    5  C   LIG     1      17.030  35.264  23.217  1.00  0.00     0.012 C 
ENDBRANCH   1   3
BRANCH   1   6
HETATM    6  C   LIG     1      17.076  39.050  22.578  1.00  0.00     0.033 C 
HETATM    7  C   LIG     1      18.087  38.695  21.484  1.00  0.00     0.008 C 
ENDBRANCH   1   6
BRANCH   1   8
HETATM    8  O   LIG     1      15.076  38.033  23.556  1.00  0.00    -0.390 OA
HETATM    9  H   LIG     1      14.603  37.160  23.576  1.00  0.00     0.210 HD
ENDBRANCH   1   8
TORSDOF 3
ENDMDL
MODEL 2
REMARK VINA RESULT:      -5.1      1.206      2.679
REMARK  3 active torsions:
REMARK  status: ('A' for Active; 'I' for Inactive)
REMARK    1  A    between atoms: C_2  and  C_4 
REMARK    2  A    between atoms: C_4  and  C_7 
REMARK    3  A    between atoms: C_4  and  O_5 
ROOT
HETATM    1  C   LIG     1      16.838  37.574  23.551  1.00  0.00     0.057 C 
HETATM    2  C   LIG     1      16.855  36.028  23.572  1.00  0.00     0.046 C 
ENDROOT
BRANCH   1   3
HETATM    3  C   LIG     1      17.272  38.080  22.124  1.00  0.00     0.011 C 
HETATM    4  C   LIG     1      17.585  36.946  21.128  1.00  0.00     0.012 C 
HETATM    5  C   LIG     1      18.454  39.069  22.153  1.00  0.00     0.012 C 
ENDBRANCH   1   3
BRANCH   1   6
HETATM    6  C   LIG     1      17.773  38.119  24.682  1.00  0.00     0.033 C 
HETATM    7  C   LIG     1      18.163  37.066  25.724  1.00  0.00     0.008 C 
ENDBRANCH   1   6
BRANCH   1   8
HETATM    8  O   LIG     1      15.501  37.961  23.785  1.00  0.00    -0.390 OA
HETATM    9  H   LIG     1      15.009  37.947  22.923  1.00  0.00     0.210 HD
ENDBRANCH   1   8
TORSDOF 3
ENDMDL
MODEL 3
REMARK VINA RESULT:      -5.0      1.072      2.808
REMARK  3 active torsions:
REMARK  status: ('A' for Active; 'I' for Inactive)
REMARK    1  A    between atoms: C_2  and  C_4 
REMARK    2  A    between atoms: C_4  and  C_7 
REMARK    3  A    between atoms: C_4  and  O_5 
ROOT
HETATM    1  C   LIG     1      16.776  37.309  23.643  1.00  0.00     0.057 C 
HETATM    2  C   LIG     1      17.757  38.447  23.278  1.00  0.00     0.046 C 
ENDROOT
BRANCH   1   3
HETATM    3  C   LIG     1      17.198  36.680  25.024  1.00  0.00     0.011 C 
HETATM    4  C   LIG     1      18.462  37.314  25.637  1.00  0.00     0.012 C 
HETATM    5  C   LIG     1      17.369  35.150  24.979  1.00  0.00     0.012 C 
ENDBRANCH   1   3
BRANCH   1   6
HETATM    6  C   LIG     1      16.757  36.250  22.491  1.00  0.00     0.033 C 
HETATM    7  C   LIG     1      15.430  36.189  21.727  1.00  0.00     0.008 C 
ENDBRANCH   1   6
BRANCH   1   8
HETATM    8  O   LIG     1      15.506  37.909  23.784  1.00  0.00    -0.390 OA
HETATM    9  H   LIG     1      15.172  38.165  22.884  1.00  0.00     0.210 HD
ENDBRANCH   1   8
TORSDOF 3
ENDMDL
MODEL 4
REMARK VINA RESULT:      -4.3      1.634      2.375
REMARK  3 active torsions:
REMARK  status: ('A' for Active; 'I' for Inactive)
REMARK    1  A    between atoms: C_2  and  C_4 
REMARK    2  A    between atoms: C_4  and  C_7 
REMARK    3  A    between atoms: C_4  and  O_5 
ROOT
HETATM    1  C   LIG     1      17.157  37.844  22.564  1.00  0.00     0.057 C 
HETATM    2  C   LIG     1      15.636  37.835  22.837  1.00  0.00     0.046 C 
ENDROOT
BRANCH   1   3
HETATM    3  C   LIG     1      17.587  36.455  21.957  1.00  0.00     0.011 C 
HETATM    4  C   LIG     1      17.842  36.491  20.437  1.00  0.00     0.012 C 
HETATM    5  C   LIG     1      16.605  35.311  22.279  1.00  0.00     0.012 C 
ENDBRANCH   1   3
BRANCH   1   6
HETATM    6  C   LIG     1      17.922  38.172  23.890  1.00  0.00     0.033 C 
HETATM    7  C   LIG     1      17.158  37.782  25.158  1.00  0.00     0.008 C 
ENDBRANCH   1   6
BRANCH   1   8
HETATM    8  O   LIG     1      17.383  38.851  21.601  1.00  0.00    -0.390 OA
HETATM    9  H   LIG     1      16.632  39.500  21.636  1.00  0.00     0.210 HD
ENDBRANCH   1   8
TORSDOF 3
ENDMDL
MODEL 5
REMARK VINA RESULT:      -4.2      6.077      7.953
REMARK  3 active torsions:
REMARK  status: ('A' for Active; 'I' for Inactive)
REMARK    1  A    between atoms: C_2  and  C_4 
REMARK    2  A    between atoms: C_4  and  C_7 
REMARK    3  A    between atoms: C_4  and  O_5 
ROOT
HETATM    1  C   LIG     1      14.672  32.738  17.301  1.00  0.00     0.057 C 
HETATM    2  C   LIG     1      15.711  32.489  16.184  1.00  0.00     0.046 C 
ENDROOT
BRANCH   1   3
HETATM    3  C   LIG     1      15.355  32.526  18.705  1.00  0.00     0.011 C 
HETATM    4  C   LIG     1      14.693  31.428  19.561  1.00  0.00     0.012 C 
HETATM    5  C   LIG     1      15.468  33.818  19.537  1.00  0.00     0.012 C 
ENDBRANCH   1   3
BRANCH   1   6
HETATM    6  C   LIG     1      13.445  31.789  17.090  1.00  0.00     0.033 C 
HETATM    7  C   LIG     1      13.617  30.802  15.931  1.00  0.00     0.008 C 
ENDBRANCH   1   6
BRANCH   1   8
HETATM    8  O   LIG     1      14.278  34.088  17.184  1.00  0.00    -0.390 OA
HETATM    9  H   LIG     1      13.321  34.120  16.920  1.00  0.00     0.210 HD
ENDBRANCH   1   8
TORSDOF 3
ENDMDL
MODEL 6
REMARK VINA RESULT:      -4.1      6.717      8.480
REMARK  3 active torsions:
REMARK  status: ('A' for Active; 'I' for Inactive)
REMARK    1  A    between atoms: C_2  and  C_4 
REMARK    2  A    between atoms: C_4  and  C_7 
REMARK    3  A    between atoms: C_4  and  O_5 
ROOT
HETATM    1  C   LIG     1      14.237  32.269  17.184  1.00  0.00     0.057 C 
HETATM    2  C   LIG     1      12.812  31.842  16.765  1.00  0.00     0.046 C 
ENDROOT
BRANCH   1   3
HETATM    3  C   LIG     1      15.274  31.737  16.124  1.00  0.00     0.011 C 
HETATM    4  C   LIG     1      16.114  32.848  15.461  1.00  0.00     0.012 C 
HETATM    5  C   LIG     1      14.640  30.860  15.027  1.00  0.00     0.012 C 
ENDBRANCH   1   3
BRANCH   1   6
HETATM    6  C   LIG     1      14.537  31.736  18.625  1.00  0.00     0.033 C 
HETATM    7  C   LIG     1      15.370  32.696  19.479  1.00  0.00     0.008 C 
ENDBRANCH   1   6
BRANCH   1   8
HETATM    8  O   LIG     1      14.251  33.681  17.167  1.00  0.00    -0.390 OA
HETATM    9  H   LIG     1      14.713  33.986  16.343  1.00  0.00     0.210 HD
ENDBRANCH   1   8
TORSDOF 3
ENDMDL
MODEL 7
REMARK VINA RESULT:      -3.9      2.091      3.353
REMARK  3 active torsions:
REMARK  status: ('A' for Active; 'I' for Inactive)
REMARK    1  A    between atoms: C_2  and  C_4 
REMARK    2  A    between atoms: C_4  and  C_7 
REMARK    3  A    between atoms: C_4  and  O_5 
ROOT
HETATM    1  C   LIG     1      17.885  37.548  24.856  1.00  0.00     0.057 C 
HETATM    2  C   LIG     1      17.073  38.565  25.689  1.00  0.00     0.046 C 
ENDROOT
BRANCH   1   3
HETATM    3  C   LIG     1      17.120  37.245  23.512  1.00  0.00     0.011 C 
HETATM    4  C   LIG     1      17.863  37.725  22.250  1.00  0.00     0.012 C 
HETATM    5  C   LIG     1      15.678  37.787  23.489  1.00  0.00     0.012 C 
ENDBRANCH   1   3
BRANCH   1   6
HETATM    6  C   LIG     1      18.126  36.255  25.704  1.00  0.00     0.033 C 
HETATM    7  C   LIG     1      17.420  35.012  25.154  1.00  0.00     0.008 C 
ENDBRANCH   1   6
BRANCH   1   8
HETATM    8  O   LIG     1      19.113  38.173  24.550  1.00  0.00    -0.390 OA
HETATM    9  H   LIG     1      19.283  38.888  25.218  1.00  0.00     0.210 HD
ENDBRANCH   1   8
TORSDOF 3
ENDMDL
MODEL 8
REMARK VINA RESULT:      -3.9      7.254      9.137
REMARK  3 active torsions:
REMARK  status: ('A' for Active; 'I' for Inactive)
REMARK    1  A    between atoms: C_2  and  C_4 
REMARK    2  A    between atoms: C_4  and  C_7 
REMARK    3  A    between atoms: C_4  and  O_5 
ROOT
HETATM    1  C   LIG     1      14.042  31.757  16.925  1.00  0.00     0.057 C 
HETATM    2  C   LIG     1      12.737  32.530  16.630  1.00  0.00     0.046 C 
ENDROOT
BRANCH   1   3
HETATM    3  C   LIG     1      15.263  32.751  16.868  1.00  0.00     0.011 C 
HETATM    4  C   LIG     1      14.865  34.234  17.006  1.00  0.00     0.012 C 
HETATM    5  C   LIG     1      16.141  32.578  15.614  1.00  0.00     0.012 C 
ENDBRANCH   1   3
BRANCH   1   6
HETATM    6  C   LIG     1      14.190  30.578  15.906  1.00  0.00     0.033 C 
HETATM    7  C   LIG     1      12.887  30.213  15.189  1.00  0.00     0.008 C 
ENDBRANCH   1   6
BRANCH   1   8
HETATM    8  O   LIG     1      13.922  31.259  18.241  1.00  0.00    -0.390 OA
HETATM    9  H   LIG     1      14.783  31.398  18.716  1.00  0.00     0.210 HD
ENDBRANCH   1   8
TORSDOF 3
ENDMDL
MODEL 9
REMARK VINA RESULT:      -3.8     11.496     12.446
REMARK  3 active torsions:
REMARK  status: ('A' for Active; 'I' for Inactive)
REMARK    1  A    between atoms: C_2  and  C_4 
REMARK    2  A    between atoms: C_4  and  C_7 
REMARK    3  A    between atoms: C_4  and  O_5 
ROOT
HETATM    1  C   LIG     1      20.776  33.800  11.450  1.00  0.00     0.057 C 
HETATM    2  C   LIG     1      21.243  34.996  10.589  1.00  0.00     0.046 C 
ENDROOT
BRANCH   1   3
HETATM    3  C   LIG     1      19.205  33.820  11.563  1.00  0.00     0.011 C 
HETATM    4  C   LIG     1      18.540  34.985  10.801  1.00  0.00     0.012 C 
HETATM    5  C   LIG     1      18.690  33.805  13.015  1.00  0.00     0.012 C 
ENDBRANCH   1   3
BRANCH   1   6
HETATM    6  C   LIG     1      21.471  33.866  12.851  1.00  0.00     0.033 C 
HETATM    7  C   LIG     1      22.372  35.091  13.039  1.00  0.00     0.008 C 
ENDBRANCH   1   6
BRANCH   1   8
HETATM    8  O   LIG     1      21.169  32.634  10.758  1.00  0.00    -0.390 OA
HETATM    9  H   LIG     1      22.103  32.411  11.014  1.00  0.00     0.210 HD
ENDBRANCH   1   8
TORSDOF 3
ENDMDL
MODEL 10
REMARK VINA RESULT:      -3.7      7.050      8.408
REMARK  3 active torsions:
REMARK  status: ('A' for Active; 'I' for Inactive)
REMARK    1  A    between atoms: C_2  and  C_4 
REMARK    2  A    between atoms: C_4  and  C_7 
REMARK    3  A    between atoms: C_4  and  O_5 
ROOT
HETATM    1  C   LIG     1      14.850  32.469  17.049  1.00  0.00     0.057 C 
HETATM    2  C   LIG     1      15.268  32.359  18.533  1.00  0.00     0.046 C 
ENDROOT
BRANCH   1   3
HETATM    3  C   LIG     1      13.813  31.331  16.715  1.00  0.00     0.011 C 
HETATM    4  C   LIG     1      14.109  30.585  15.399  1.00  0.00     0.012 C 
HETATM    5  C   LIG     1      12.349  31.814  16.704  1.00  0.00     0.012 C 
ENDBRANCH   1   3
BRANCH   1   6
HETATM    6  C   LIG     1      16.124  32.394  16.143  1.00  0.00     0.033 C 
HETATM    7  C   LIG     1      16.486  33.722  15.473  1.00  0.00     0.008 C 
ENDBRANCH   1   6
BRANCH   1   8
HETATM    8  O   LIG     1      14.215  33.721  16.906  1.00  0.00    -0.390 OA
HETATM    9  H   LIG     1      14.892  34.394  16.634  1.00  0.00     0.210 HD
ENDBRANCH   1   8
TORSDOF 3
ENDMDL
MODEL 11
REMARK VINA RESULT:      -3.6      7.461      8.791
REMARK  3 active torsions:
REMARK  status: ('A' for Active; 'I' for Inactive)
REMARK    1  A    between atoms: C_2  and  C_4 
REMARK    2  A    between atoms: C_4  and  C_7 
REMARK    3  A    between atoms: C_4  and  O_5 
ROOT
HETATM    1  C   LIG     1      15.245  32.486  16.810  1.00  0.00     0.057 C 
HETATM    2  C   LIG     1      14.688  33.928  16.792  1.00  0.00     0.046 C 
ENDROOT
BRANCH   1   3
HETATM    3  C   LIG     1      16.308  32.323  15.660  1.00  0.00     0.011 C 
HETATM    4  C   LIG     1      16.951  33.651  15.212  1.00  0.00     0.012 C 
HETATM    5  C   LIG     1      15.770  31.578  14.423  1.00  0.00     0.012 C 
ENDBRANCH   1   3
BRANCH   1   6
HETATM    6  C   LIG     1      14.062  31.470  16.671  1.00  0.00     0.033 C 
HETATM    7  C   LIG     1      12.676  32.120  16.737  1.00  0.00     0.008 C 
ENDBRANCH   1   6
BRANCH   1   8
HETATM    8  O   LIG     1      15.891  32.325  18.055  1.00  0.00    -0.390 OA
HETATM    9  H   LIG     1      15.229  31.995  18.718  1.00  0.00     0.210 HD
ENDBRANCH   1   8
TORSDOF 3
ENDMDL
MODEL 12
REMARK VINA RESULT:      -3.5      7.891      9.190
REMARK  3 active torsions:
REMARK  status: ('A' for Active; 'I' for Inactive)
REMARK    1  A    between atoms: C_2  and  C_4 
REMARK    2  A    between atoms: C_4  and  C_7 
REMARK    3  A    between atoms: C_4  and  O_5 
ROOT
HETATM    1  C   LIG     1      16.628  32.574  15.129  1.00  0.00     0.057 C 
HETATM    2  C   LIG     1      15.897  32.012  13.889  1.00  0.00     0.046 C 
ENDROOT
BRANCH   1   3
HETATM    3  C   LIG     1      15.637  32.597  16.353  1.00  0.00     0.011 C 
HETATM    4  C   LIG     1      14.411  31.677  16.179  1.00  0.00     0.012 C 
HETATM    5  C   LIG     1      15.159  34.011  16.734  1.00  0.00     0.012 C 
ENDBRANCH   1   3
BRANCH   1   6
HETATM    6  C   LIG     1      17.194  33.996  14.799  1.00  0.00     0.033 C 
HETATM    7  C   LIG     1      18.185  34.013  13.631  1.00  0.00     0.008 C 
ENDBRANCH   1   6
BRANCH   1   8
HETATM    8  O   LIG     1      17.681  31.677  15.411  1.00  0.00    -0.390 OA
HETATM    9  H   LIG     1      17.717  31.525  16.392  1.00  0.00     0.210 HD
ENDBRANCH   1   8
TORSDOF 3
ENDMDL
MODEL 13
REMARK VINA RESULT:      -3.5     19.016     20.461
REMARK  3 active torsions:
REMARK  status: ('A' for Active; 'I' for Inactive)
REMARK    1  A    between atoms: C_2  and  C_4 
REMARK    2  A    between atoms: C_4  and  C_7 
REMARK    3  A    between atoms: C_4  and  O_5 
ROOT
HETATM    1  C   LIG     1      21.496  23.323  35.992  1.00  0.00     0.057 C 
HETATM    2  C   LIG     1      22.025  23.561  34.559  1.00  0.00     0.046 C 
ENDROOT
BRANCH   1   3
HETATM    3  C   LIG     1      22.632  22.666  36.865  1.00  0.00     0.011 C 
HETATM    4  C   LIG     1      22.345  21.204  37.263  1.00  0.00     0.012 C 
HETATM    5  C   LIG     1      22.986  23.475  38.127  1.00  0.00     0.012 C 
ENDBRANCH   1   3
BRANCH   1   6
HETATM    6  C   LIG     1      20.209  22.434  35.930  1.00  0.00     0.033 C 
HETATM    7  C   LIG     1      19.338  22.691  34.697  1.00  0.00     0.008 C 
ENDBRANCH   1   6
BRANCH   1   8
HETATM    8  O   LIG     1      21.193  24.595  36.522  1.00  0.00    -0.390 OA
HETATM    9  H   LIG     1      21.625  24.682  37.412  1.00  0.00     0.210 HD
ENDBRANCH   1   8
TORSDOF 3
ENDMDL
MODEL 14
REMARK VINA RESULT:      -3.4     10.141     11.097
REMARK  3 active torsions:
REMARK  status: ('A' for Active; 'I' for Inactive)
REMARK    1  A    between atoms: C_2  and  C_4 
REMARK    2  A    between atoms: C_4  and  C_7 
REMARK    3  A    between atoms: C_4  and  O_5 
ROOT
HETATM    1  C   LIG     1      18.624  33.595  12.574  1.00  0.00     0.057 C 
HETATM    2  C   LIG     1      17.958  34.774  11.828  1.00  0.00     0.046 C 
ENDROOT
BRANCH   1   3
HETATM    3  C   LIG     1      17.769  33.234  13.847  1.00  0.00     0.011 C 
HETATM    4  C   LIG     1      16.451  32.500  13.526  1.00  0.00     0.012 C 
HETATM    5  C   LIG     1      17.466  34.444  14.751  1.00  0.00     0.012 C 
ENDBRANCH   1   3
BRANCH   1   6
HETATM    6  C   LIG     1      20.097  33.976  12.939  1.00  0.00     0.033 C 
HETATM    7  C   LIG     1      21.030  34.074  11.728  1.00  0.00     0.008 C 
ENDBRANCH   1   6
BRANCH   1   8
HETATM    8  O   LIG     1      18.603  32.499  11.685  1.00  0.00    -0.390 OA
HETATM    9  H   LIG     1      19.267  32.659  10.964  1.00  0.00     0.210 HD
ENDBRANCH   1   8
TORSDOF 3
ENDMDL
MODEL 15
REMARK VINA RESULT:      -3.4     17.228     18.625
REMARK  3 active torsions:
REMARK  status: ('A' for Active; 'I' for Inactive)
REMARK    1  A    between atoms: C_2  and  C_4 
REMARK    2  A    between atoms: C_4  and  C_7 
REMARK    3  A    between atoms: C_4  and  O_5 
ROOT
HETATM    1  C   LIG     1      26.371  30.366  36.693  1.00  0.00     0.057 C 
HETATM    2  C   LIG     1      25.730  31.355  35.691  1.00  0.00     0.046 C 
ENDROOT
BRANCH   1   3
HETATM    3  C   LIG     1      27.537  31.090  37.466  1.00  0.00     0.011 C 
HETATM    4  C   LIG     1      27.138  32.458  38.057  1.00  0.00     0.012 C 
HETATM    5  C   LIG     1      28.822  31.254  36.632  1.00  0.00     0.012 C 
ENDBRANCH   1   3
BRANCH   1   6
HETATM    6  C   LIG     1      26.869  29.097  35.924  1.00  0.00     0.033 C 
HETATM    7  C   LIG     1      26.584  29.132  34.420  1.00  0.00     0.008 C 
ENDBRANCH   1   6
BRANCH   1   8
HETATM    8  O   LIG     1      25.358  30.021  37.614  1.00  0.00    -0.390 OA
HETATM    9  H   LIG     1      25.784  29.718  38.458  1.00  0.00     0.210 HD
ENDBRANCH   1   8
TORSDOF 3
ENDMDL
MODEL 16
REMARK VINA RESULT:      -3.3      8.740     10.183
REMARK  3 active torsions:
REMARK  status: ('A' for Active; 'I' for Inactive)
REMARK    1  A    between atoms: C_2  and  C_4 
REMARK    2  A    between atoms: C_4  and  C_7 
REMARK    3  A    between atoms: C_4  and  O_5 
ROOT
HETATM    1  C   LIG     1      16.647  32.320  14.779  1.00  0.00     0.057 C 
HETATM    2  C   LIG     1      15.651  32.856  15.832  1.00  0.00     0.046 C 
ENDROOT
BRANCH   1   3
HETATM    3  C   LIG     1      17.711  33.435  14.452  1.00  0.00     0.011 C 
HETATM    4  C   LIG     1      17.331  34.833  14.981  1.00  0.00     0.012 C 
HETATM    5  C   LIG     1      18.056  33.538  12.954  1.00  0.00     0.012 C 
ENDBRANCH   1   3
BRANCH   1   6
HETATM    6  C   LIG     1      15.862  31.859  13.506  1.00  0.00     0.033 C 
HETATM    7  C   LIG     1      15.289  30.443  13.611  1.00  0.00     0.008 C 
ENDBRANCH   1   6
BRANCH   1   8
HETATM    8  O   LIG     1      17.306  31.224  15.377  1.00  0.00    -0.390 OA
HETATM    9  H   LIG     1      17.678  31.512  16.252  1.00  0.00     0.210 HD
ENDBRANCH   1   8
TORSDOF 3
ENDMDL
MODEL 17
REMARK VINA RESULT:      -3.3      6.775      8.371
REMARK  3 active torsions:
REMARK  status: ('A' for Active; 'I' for Inactive)
REMARK    1  A    between atoms: C_2  and  C_4 
REMARK    2  A    between atoms: C_4  and  C_7 
REMARK    3  A    between atoms: C_4  and  O_5 
ROOT
HETATM    1  C   LIG     1      15.214  32.443  16.791  1.00  0.00     0.057 C 
HETATM    2  C   LIG     1      16.183  32.328  15.592  1.00  0.00     0.046 C 
ENDROOT
BRANCH   1   3
HETATM    3  C   LIG     1      14.031  31.418  16.604  1.00  0.00     0.011 C 
HETATM    4  C   LIG     1      14.116  30.600  15.300  1.00  0.00     0.012 C 
HETATM    5  C   LIG     1      12.635  32.062  16.708  1.00  0.00     0.012 C 
ENDBRANCH   1   3
BRANCH   1   6
HETATM    6  C   LIG     1      14.706  33.918  16.910  1.00  0.00     0.033 C 
HETATM    7  C   LIG     1      15.189  34.639  18.172  1.00  0.00     0.008 C 
ENDBRANCH   1   6
BRANCH   1   8
HETATM    8  O   LIG     1      15.953  32.080  17.937  1.00  0.00    -0.390 OA
HETATM    9  H   LIG     1      15.393  31.489  18.505  1.00  0.00     0.210 HD
ENDBRANCH   1   8
TORSDOF 3
ENDMDL
MODEL 18
REMARK VINA RESULT:      -3.3      8.032      9.620
REMARK  3 active torsions:
REMARK  status: ('A' for Active; 'I' for Inactive)
REMARK    1  A    between atoms: C_2  and  C_4 
REMARK    2  A    between atoms: C_4  and  C_7 
REMARK    3  A    between atoms: C_4  and  O_5 
ROOT
HETATM    1  C   LIG     1      16.035  32.061  15.272  1.00  0.00     0.057 C 
HETATM    2  C   LIG     1      17.564  32.175  15.464  1.00  0.00     0.046 C 
ENDROOT
BRANCH   1   3
HETATM    3  C   LIG     1      15.308  32.517  16.594  1.00  0.00     0.011 C 
HETATM    4  C   LIG     1      13.930  31.859  16.807  1.00  0.00     0.012 C 
HETATM    5  C   LIG     1      15.166  34.045  16.724  1.00  0.00     0.012 C 
ENDBRANCH   1   3
BRANCH   1   6
HETATM    6  C   LIG     1      15.669  30.593  14.871  1.00  0.00     0.033 C 
HETATM    7  C   LIG     1      15.251  30.437  13.406  1.00  0.00     0.008 C 
ENDBRANCH   1   6
BRANCH   1   8
HETATM    8  O   LIG     1      15.696  32.956  14.235  1.00  0.00    -0.390 OA
HETATM    9  H   LIG     1      15.032  32.518  13.639  1.00  0.00     0.210 HD
ENDBRANCH   1   8
TORSDOF 3
ENDMDL
MODEL 19
REMARK VINA RESULT:      -3.2     17.297     18.434
REMARK  3 active torsions:
REMARK  status: ('A' for Active; 'I' for Inactive)
REMARK    1  A    between atoms: C_2  and  C_4 
REMARK    2  A    between atoms: C_4  and  C_7 
REMARK    3  A    between atoms: C_4  and  O_5 
ROOT
HETATM    1  C   LIG     1      26.588  29.956  36.736  1.00  0.00     0.057 C 
HETATM    2  C   LIG     1      27.135  28.543  37.042  1.00  0.00     0.046 C 
ENDROOT
BRANCH   1   3
HETATM    3  C   LIG     1      26.356  30.101  35.185  1.00  0.00     0.011 C 
HETATM    4  C   LIG     1      26.389  28.762  34.422  1.00  0.00     0.012 C 
HETATM    5  C   LIG     1      27.318  31.095  34.507  1.00  0.00     0.012 C 
ENDBRANCH   1   3
BRANCH   1   6
HETATM    6  C   LIG     1      27.585  31.030  37.288  1.00  0.00     0.033 C 
HETATM    7  C   LIG     1      26.904  32.180  38.037  1.00  0.00     0.008 C 
ENDBRANCH   1   6
BRANCH   1   8
HETATM    8  O   LIG     1      25.344  30.053  37.395  1.00  0.00    -0.390 OA
HETATM    9  H   LIG     1      25.019  30.989  37.330  1.00  0.00     0.210 HD
ENDBRANCH   1   8
TORSDOF 3
ENDMDL
