REMARK  3 active torsions:
REMARK  status: ('A' for Active; 'I' for Inactive)
REMARK    1  A    between atoms: C_2  and  C_4 
REMARK    2  A    between atoms: C_4  and  C_7 
REMARK    3  A    between atoms: C_4  and  O_5 
ROOT
HETATM    1  C   LIG     1       0.451  -0.089  -0.395  1.00  0.00     0.057 C 
HETATM    2  C   LIG     1       0.970   1.096  -1.241  1.00  0.00     0.046 C 
ENDROOT
BRANCH   1   3
HETATM    3  C   LIG     1      -1.067  -0.344  -0.731  1.00  0.00     0.011 C 
HETATM    4  C   LIG     1      -1.999   0.814  -0.322  1.00  0.00     0.012 C 
HETATM    5  C   LIG     1      -1.614  -1.663  -0.152  1.00  0.00     0.012 C 
ENDBRANCH   1   3
BRANCH   1   6
HETATM    6  C   LIG     1       0.678   0.217   1.123  1.00  0.00     0.033 C 
HETATM    7  C   LIG     1       2.153   0.346   1.515  1.00  0.00     0.008 C 
ENDBRANCH   1   6
BRANCH   1   8
HETATM    8  O   LIG     1       1.201  -1.218  -0.789  1.00  0.00    -0.390 OA
HETATM    9  H   LIG     1       1.114  -1.919  -0.091  1.00  0.00     0.210 HD
ENDBRANCH   1   8
TORSDOF 3
