MODEL 1
REMARK VINA RESULT:      -5.1      0.000      0.000
REMARK  4 active torsions:
REMARK  status: ('A' for Active; 'I' for Inactive)
REMARK    1  A    between atoms: C_2  and  C_3 
REMARK    2  A    between atoms: C_3  and  C_7 
REMARK    3  A    between atoms: C_3  and  C_5 
REMARK    4  A    between atoms: C_3  and  O_4 
ROOT
HETATM    1  C   LIG     1      16.423  37.641  23.184  1.00  0.00     0.057 C 
ENDROOT
BRANCH   1   2
HETATM    2  C   LIG     1      17.109  37.045  24.469  1.00  0.00     0.033 C 
HETATM    3  C   LIG     1      17.395  38.025  25.617  1.00  0.00     0.008 C 
ENDBRANCH   1   2
BRANCH   1   4
HETATM    4  C   LIG     1      17.136  38.949  22.727  1.00  0.00     0.033 C 
HETATM    5  C   LIG     1      17.985  38.864  21.458  1.00  0.00     0.008 C 
ENDBRANCH   1   4
BRANCH   1   6
HETATM    6  C   LIG     1      16.345  36.636  21.992  1.00  0.00     0.033 C 
HETATM    7  C   LIG     1      16.894  35.238  22.305  1.00  0.00     0.008 C 
ENDBRANCH   1   6
BRANCH   1   8
HETATM    8  O   LIG     1      15.111  38.048  23.516  1.00  0.00    -0.390 OA
HETATM    9  H   LIG     1      14.739  38.599  22.780  1.00  0.00     0.210 HD
ENDBRANCH   1   8
TORSDOF 4
ENDMDL
MODEL 2
REMARK VINA RESULT:      -5.1      0.105      2.972
REMARK  4 active torsions:
REMARK  status: ('A' for Active; 'I' for Inactive)
REMARK    1  A    between atoms: C_2  and  C_3 
REMARK    2  A    between atoms: C_3  and  C_7 
REMARK    3  A    between atoms: C_3  and  C_5 
REMARK    4  A    between atoms: C_3  and  O_4 
ROOT
HETATM    1  C   LIG     1      16.370  37.707  23.109  1.00  0.00     0.057 C 
ENDROOT
BRANCH   1   2
HETATM    2  C   LIG     1      16.269  36.604  21.991  1.00  0.00     0.033 C 
HETATM    3  C   LIG     1      16.908  35.242  22.304  1.00  0.00     0.008 C 
ENDBRANCH   1   2
BRANCH   1   4
HETATM    4  C   LIG     1      17.015  37.129  24.406  1.00  0.00     0.033 C 
HETATM    5  C   LIG     1      17.370  38.132  25.505  1.00  0.00     0.008 C 
ENDBRANCH   1   4
BRANCH   1   6
HETATM    6  C   LIG     1      17.143  38.986  22.658  1.00  0.00     0.033 C 
HETATM    7  C   LIG     1      18.067  38.777  21.452  1.00  0.00     0.008 C 
ENDBRANCH   1   6
BRANCH   1   8
HETATM    8  O   LIG     1      15.065  38.082  23.497  1.00  0.00    -0.390 OA
HETATM    9  H   LIG     1      14.492  38.170  22.692  1.00  0.00     0.210 HD
ENDBRANCH   1   8
TORSDOF 4
ENDMDL
MODEL 3
REMARK VINA RESULT:      -5.1      0.073      3.013
REMARK  4 active torsions:
REMARK  status: ('A' for Active; 'I' for Inactive)
REMARK    1  A    between atoms: C_2  and  C_3 
REMARK    2  A    between atoms: C_3  and  C_7 
REMARK    3  A    between atoms: C_3  and  C_5 
REMARK    4  A    between atoms: C_3  and  O_4 
ROOT
HETATM    1  C   LIG     1      16.429  37.693  23.180  1.00  0.00     0.057 C 
ENDROOT
BRANCH   1   2
HETATM    2  C   LIG     1      17.183  38.967  22.647  1.00  0.00     0.033 C 
HETATM    3  C   LIG     1      18.059  38.780  21.399  1.00  0.00     0.008 C 
ENDBRANCH   1   2
BRANCH   1   4
HETATM    4  C   LIG     1      16.262  36.631  22.052  1.00  0.00     0.033 C 
HETATM    5  C   LIG     1      16.895  35.260  22.296  1.00  0.00     0.008 C 
ENDBRANCH   1   4
BRANCH   1   6
HETATM    6  C   LIG     1      17.107  37.040  24.426  1.00  0.00     0.033 C 
HETATM    7  C   LIG     1      17.391  38.014  25.576  1.00  0.00     0.008 C 
ENDBRANCH   1   6
BRANCH   1   8
HETATM    8  O   LIG     1      15.108  38.057  23.525  1.00  0.00    -0.390 OA
HETATM    9  H   LIG     1      14.489  37.784  22.799  1.00  0.00     0.210 HD
ENDBRANCH   1   8
TORSDOF 4
ENDMDL
MODEL 4
REMARK VINA RESULT:      -4.3      1.820      3.041
REMARK  4 active torsions:
REMARK  status: ('A' for Active; 'I' for Inactive)
REMARK    1  A    between atoms: C_2  and  C_3 
REMARK    2  A    between atoms: C_3  and  C_7 
REMARK    3  A    between atoms: C_3  and  C_5 
REMARK    4  A    between atoms: C_3  and  O_4 
ROOT
HETATM    1  C   LIG     1      16.468  36.323  22.135  1.00  0.00     0.057 C 
ENDROOT
BRANCH   1   2
HETATM    2  C   LIG     1      16.114  37.595  22.991  1.00  0.00     0.033 C 
HETATM    3  C   LIG     1      16.791  38.912  22.585  1.00  0.00     0.008 C 
ENDBRANCH   1   2
BRANCH   1   4
HETATM    4  C   LIG     1      17.031  35.183  23.035  1.00  0.00     0.033 C 
HETATM    5  C   LIG     1      17.245  35.512  24.513  1.00  0.00     0.008 C 
ENDBRANCH   1   4
BRANCH   1   6
HETATM    6  C   LIG     1      15.272  35.786  21.287  1.00  0.00     0.033 C 
HETATM    7  C   LIG     1      15.683  34.990  20.042  1.00  0.00     0.008 C 
ENDBRANCH   1   6
BRANCH   1   8
HETATM    8  O   LIG     1      17.530  36.645  21.261  1.00  0.00    -0.390 OA
HETATM    9  H   LIG     1      17.681  35.892  20.632  1.00  0.00     0.210 HD
ENDBRANCH   1   8
TORSDOF 4
ENDMDL
MODEL 5
REMARK VINA RESULT:      -4.2      1.722      2.204
REMARK  4 active torsions:
REMARK  status: ('A' for Active; 'I' for Inactive)
REMARK    1  A    between atoms: C_2  and  C_3 
REMARK    2  A    between atoms: C_3  and  C_7 
REMARK    3  A    between atoms: C_3  and  C_5 
REMARK    4  A    between atoms: C_3  and  O_4 
ROOT
HETATM    1  C   LIG     1      16.388  36.237  21.972  1.00  0.00     0.057 C 
ENDROOT
BRANCH   1   2
HETATM    2  C   LIG     1      17.042  35.169  22.925  1.00  0.00     0.033 C 
HETATM    3  C   LIG     1      17.189  35.560  24.403  1.00  0.00     0.008 C 
ENDBRANCH   1   2
BRANCH   1   4
HETATM    4  C   LIG     1      17.470  37.185  21.371  1.00  0.00     0.033 C 
HETATM    5  C   LIG     1      18.284  36.645  20.194  1.00  0.00     0.008 C 
ENDBRANCH   1   4
BRANCH   1   6
HETATM    6  C   LIG     1      15.535  35.612  20.823  1.00  0.00     0.033 C 
HETATM    7  C   LIG     1      15.646  34.087  20.709  1.00  0.00     0.008 C 
ENDBRANCH   1   6
BRANCH   1   8
HETATM    8  O   LIG     1      15.559  37.085  22.739  1.00  0.00    -0.390 OA
HETATM    9  H   LIG     1      15.514  37.979  22.312  1.00  0.00     0.210 HD
ENDBRANCH   1   8
TORSDOF 4
ENDMDL
MODEL 6
REMARK VINA RESULT:      -4.2      7.141      8.603
REMARK  4 active torsions:
REMARK  status: ('A' for Active; 'I' for Inactive)
REMARK    1  A    between atoms: C_2  and  C_3 
REMARK    2  A    between atoms: C_3  and  C_7 
REMARK    3  A    between atoms: C_3  and  C_5 
REMARK    4  A    between atoms: C_3  and  O_4 
ROOT
HETATM    1  C   LIG     1      14.179  32.120  17.095  1.00  0.00     0.057 C 
ENDROOT
BRANCH   1   2
HETATM    2  C   LIG     1      14.487  31.638  18.561  1.00  0.00     0.033 C 
HETATM    3  C   LIG     1      15.347  32.570  19.428  1.00  0.00     0.008 C 
ENDBRANCH   1   2
BRANCH   1   4
HETATM    4  C   LIG     1      15.122  33.290  16.682  1.00  0.00     0.033 C 
HETATM    5  C   LIG     1      16.168  32.987  15.608  1.00  0.00     0.008 C 
ENDBRANCH   1   4
BRANCH   1   6
HETATM    6  C   LIG     1      14.254  30.979  16.032  1.00  0.00     0.033 C 
HETATM    7  C   LIG     1      12.891  30.434  15.588  1.00  0.00     0.008 C 
ENDBRANCH   1   6
BRANCH   1   8
HETATM    8  O   LIG     1      12.882  32.680  17.063  1.00  0.00    -0.390 OA
HETATM    9  H   LIG     1      12.212  31.976  17.266  1.00  0.00     0.210 HD
ENDBRANCH   1   8
TORSDOF 4
ENDMDL
MODEL 7
REMARK VINA RESULT:      -4.2      1.855      3.260
REMARK  4 active torsions:
REMARK  status: ('A' for Active; 'I' for Inactive)
REMARK    1  A    between atoms: C_2  and  C_3 
REMARK    2  A    between atoms: C_3  and  C_7 
REMARK    3  A    between atoms: C_3  and  C_5 
REMARK    4  A    between atoms: C_3  and  O_4 
ROOT
HETATM    1  C   LIG     1      16.611  36.156  21.873  1.00  0.00     0.057 C 
ENDROOT
BRANCH   1   2
HETATM    2  C   LIG     1      16.201  37.456  22.659  1.00  0.00     0.033 C 
HETATM    3  C   LIG     1      16.695  37.571  24.110  1.00  0.00     0.008 C 
ENDBRANCH   1   2
BRANCH   1   4
HETATM    4  C   LIG     1      15.365  35.475  21.230  1.00  0.00     0.033 C 
HETATM    5  C   LIG     1      15.560  34.065  20.672  1.00  0.00     0.008 C 
ENDBRANCH   1   4
BRANCH   1   6
HETATM    6  C   LIG     1      17.702  36.401  20.783  1.00  0.00     0.033 C 
HETATM    7  C   LIG     1      18.287  37.819  20.779  1.00  0.00     0.008 C 
ENDBRANCH   1   6
BRANCH   1   8
HETATM    8  O   LIG     1      17.102  35.203  22.794  1.00  0.00    -0.390 OA
HETATM    9  H   LIG     1      16.650  35.325  23.669  1.00  0.00     0.210 HD
ENDBRANCH   1   8
TORSDOF 4
ENDMDL
MODEL 8
REMARK VINA RESULT:      -4.2      7.165      9.126
REMARK  4 active torsions:
REMARK  status: ('A' for Active; 'I' for Inactive)
REMARK    1  A    between atoms: C_2  and  C_3 
REMARK    2  A    between atoms: C_3  and  C_7 
REMARK    3  A    between atoms: C_3  and  C_5 
REMARK    4  A    between atoms: C_3  and  O_4 
ROOT
HETATM    1  C   LIG     1      14.174  32.130  17.055  1.00  0.00     0.057 C 
ENDROOT
BRANCH   1   2
HETATM    2  C   LIG     1      14.263  30.933  16.037  1.00  0.00     0.033 C 
HETATM    3  C   LIG     1      12.934  30.397  15.483  1.00  0.00     0.008 C 
ENDBRANCH   1   2
BRANCH   1   4
HETATM    4  C   LIG     1      14.468  31.650  18.508  1.00  0.00     0.033 C 
HETATM    5  C   LIG     1      15.337  32.563  19.374  1.00  0.00     0.008 C 
ENDBRANCH   1   4
BRANCH   1   6
HETATM    6  C   LIG     1      15.106  33.329  16.695  1.00  0.00     0.033 C 
HETATM    7  C   LIG     1      16.170  33.010  15.637  1.00  0.00     0.008 C 
ENDBRANCH   1   6
BRANCH   1   8
HETATM    8  O   LIG     1      12.840  32.593  17.097  1.00  0.00    -0.390 OA
HETATM    9  H   LIG     1      12.366  32.314  16.271  1.00  0.00     0.210 HD
ENDBRANCH   1   8
TORSDOF 4
ENDMDL
MODEL 9
REMARK VINA RESULT:      -4.1      7.015      8.983
REMARK  4 active torsions:
REMARK  status: ('A' for Active; 'I' for Inactive)
REMARK    1  A    between atoms: C_2  and  C_3 
REMARK    2  A    between atoms: C_3  and  C_7 
REMARK    3  A    between atoms: C_3  and  C_5 
REMARK    4  A    between atoms: C_3  and  O_4 
ROOT
HETATM    1  C   LIG     1      14.274  32.270  17.139  1.00  0.00     0.057 C 
ENDROOT
BRANCH   1   2
HETATM    2  C   LIG     1      15.400  31.946  16.088  1.00  0.00     0.033 C 
HETATM    3  C   LIG     1      16.248  33.129  15.597  1.00  0.00     0.008 C 
ENDBRANCH   1   2
BRANCH   1   4
HETATM    4  C   LIG     1      12.903  31.683  16.687  1.00  0.00     0.033 C 
HETATM    5  C   LIG     1      12.944  30.519  15.696  1.00  0.00     0.008 C 
ENDBRANCH   1   4
BRANCH   1   6
HETATM    6  C   LIG     1      14.607  31.783  18.584  1.00  0.00     0.033 C 
HETATM    7  C   LIG     1      15.376  32.802  19.435  1.00  0.00     0.008 C 
ENDBRANCH   1   6
BRANCH   1   8
HETATM    8  O   LIG     1      14.070  33.668  17.170  1.00  0.00    -0.390 OA
HETATM    9  H   LIG     1      13.694  33.928  18.051  1.00  0.00     0.210 HD
ENDBRANCH   1   8
TORSDOF 4
ENDMDL
MODEL 10
REMARK VINA RESULT:      -4.0      1.626      2.969
REMARK  4 active torsions:
REMARK  status: ('A' for Active; 'I' for Inactive)
REMARK    1  A    between atoms: C_2  and  C_3 
REMARK    2  A    between atoms: C_3  and  C_7 
REMARK    3  A    between atoms: C_3  and  C_5 
REMARK    4  A    between atoms: C_3  and  O_4 
ROOT
HETATM    1  C   LIG     1      16.748  36.885  22.664  1.00  0.00     0.057 C 
ENDROOT
BRANCH   1   2
HETATM    2  C   LIG     1      15.238  36.856  22.220  1.00  0.00     0.033 C 
HETATM    3  C   LIG     1      14.819  35.721  21.273  1.00  0.00     0.008 C 
ENDBRANCH   1   2
BRANCH   1   4
HETATM    4  C   LIG     1      17.612  37.692  21.648  1.00  0.00     0.033 C 
HETATM    5  C   LIG     1      18.170  39.032  22.128  1.00  0.00     0.008 C 
ENDBRANCH   1   4
BRANCH   1   6
HETATM    6  C   LIG     1      16.966  37.444  24.105  1.00  0.00     0.033 C 
HETATM    7  C   LIG     1      17.406  36.394  25.133  1.00  0.00     0.008 C 
ENDBRANCH   1   6
BRANCH   1   8
HETATM    8  O   LIG     1      17.264  35.572  22.607  1.00  0.00    -0.390 OA
HETATM    9  H   LIG     1      16.860  35.089  21.840  1.00  0.00     0.210 HD
ENDBRANCH   1   8
TORSDOF 4
ENDMDL
MODEL 11
REMARK VINA RESULT:      -4.0      1.561      2.852
REMARK  4 active torsions:
REMARK  status: ('A' for Active; 'I' for Inactive)
REMARK    1  A    between atoms: C_2  and  C_3 
REMARK    2  A    between atoms: C_3  and  C_7 
REMARK    3  A    between atoms: C_3  and  C_5 
REMARK    4  A    between atoms: C_3  and  O_4 
ROOT
HETATM    1  C   LIG     1      16.687  37.594  22.791  1.00  0.00     0.057 C 
ENDROOT
BRANCH   1   2
HETATM    2  C   LIG     1      17.024  37.293  24.298  1.00  0.00     0.033 C 
HETATM    3  C   LIG     1      17.309  35.828  24.663  1.00  0.00     0.008 C 
ENDBRANCH   1   2
BRANCH   1   4
HETATM    4  C   LIG     1      15.209  37.223  22.464  1.00  0.00     0.033 C 
HETATM    5  C   LIG     1      14.986  36.017  21.550  1.00  0.00     0.008 C 
ENDBRANCH   1   4
BRANCH   1   6
HETATM    6  C   LIG     1      16.967  39.071  22.369  1.00  0.00     0.033 C 
HETATM    7  C   LIG     1      18.379  39.317  21.821  1.00  0.00     0.008 C 
ENDBRANCH   1   6
BRANCH   1   8
HETATM    8  O   LIG     1      17.458  36.738  21.973  1.00  0.00    -0.390 OA
HETATM    9  H   LIG     1      17.219  36.886  21.021  1.00  0.00     0.210 HD
ENDBRANCH   1   8
TORSDOF 4
ENDMDL
MODEL 12
REMARK VINA RESULT:      -3.8     11.468     12.884
REMARK  4 active torsions:
REMARK  status: ('A' for Active; 'I' for Inactive)
REMARK    1  A    between atoms: C_2  and  C_3 
REMARK    2  A    between atoms: C_3  and  C_7 
REMARK    3  A    between atoms: C_3  and  C_5 
REMARK    4  A    between atoms: C_3  and  O_4 
ROOT
HETATM    1  C   LIG     1      19.568  33.738  11.464  1.00  0.00     0.057 C 
ENDROOT
BRANCH   1   2
HETATM    2  C   LIG     1      19.568  32.296  10.836  1.00  0.00     0.033 C 
HETATM    3  C   LIG     1      20.920  31.755  10.346  1.00  0.00     0.008 C 
ENDBRANCH   1   2
BRANCH   1   4
HETATM    4  C   LIG     1      19.078  33.702  12.943  1.00  0.00     0.033 C 
HETATM    5  C   LIG     1      17.599  33.386  13.173  1.00  0.00     0.008 C 
ENDBRANCH   1   4
BRANCH   1   6
HETATM    6  C   LIG     1      20.952  34.457  11.382  1.00  0.00     0.033 C 
HETATM    7  C   LIG     1      21.677  34.591  12.727  1.00  0.00     0.008 C 
ENDBRANCH   1   6
BRANCH   1   8
HETATM    8  O   LIG     1      18.610  34.528  10.791  1.00  0.00    -0.390 OA
HETATM    9  H   LIG     1      18.323  35.274  11.379  1.00  0.00     0.210 HD
ENDBRANCH   1   8
TORSDOF 4
ENDMDL
MODEL 13
REMARK VINA RESULT:      -3.7      1.618      3.116
REMARK  4 active torsions:
REMARK  status: ('A' for Active; 'I' for Inactive)
REMARK    1  A    between atoms: C_2  and  C_3 
REMARK    2  A    between atoms: C_3  and  C_7 
REMARK    3  A    between atoms: C_3  and  C_5 
REMARK    4  A    between atoms: C_3  and  O_4 
ROOT
HETATM    1  C   LIG     1      17.012  36.858  23.498  1.00  0.00     0.057 C 
ENDROOT
BRANCH   1   2
HETATM    2  C   LIG     1      16.996  35.532  22.652  1.00  0.00     0.033 C 
HETATM    3  C   LIG     1      17.072  35.686  21.125  1.00  0.00     0.008 C 
ENDBRANCH   1   2
BRANCH   1   4
HETATM    4  C   LIG     1      15.749  37.723  23.204  1.00  0.00     0.033 C 
HETATM    5  C   LIG     1      15.977  39.061  22.500  1.00  0.00     0.008 C 
ENDBRANCH   1   4
BRANCH   1   6
HETATM    6  C   LIG     1      17.144  36.619  25.035  1.00  0.00     0.033 C 
HETATM    7  C   LIG     1      18.445  37.150  25.650  1.00  0.00     0.008 C 
ENDBRANCH   1   6
BRANCH   1   8
HETATM    8  O   LIG     1      18.097  37.657  23.072  1.00  0.00    -0.390 OA
HETATM    9  H   LIG     1      18.792  37.079  22.661  1.00  0.00     0.210 HD
ENDBRANCH   1   8
TORSDOF 4
ENDMDL
MODEL 14
REMARK VINA RESULT:      -3.7     11.275     12.386
REMARK  4 active torsions:
REMARK  status: ('A' for Active; 'I' for Inactive)
REMARK    1  A    between atoms: C_2  and  C_3 
REMARK    2  A    between atoms: C_3  and  C_7 
REMARK    3  A    between atoms: C_3  and  C_5 
REMARK    4  A    between atoms: C_3  and  O_4 
ROOT
HETATM    1  C   LIG     1      19.683  33.985  11.656  1.00  0.00     0.057 C 
ENDROOT
BRANCH   1   2
HETATM    2  C   LIG     1      19.250  33.736  13.148  1.00  0.00     0.033 C 
HETATM    3  C   LIG     1      17.740  33.698  13.432  1.00  0.00     0.008 C 
ENDBRANCH   1   2
BRANCH   1   4
HETATM    4  C   LIG     1      21.133  34.551  11.583  1.00  0.00     0.033 C 
HETATM    5  C   LIG     1      21.886  34.694  12.906  1.00  0.00     0.008 C 
ENDBRANCH   1   4
BRANCH   1   6
HETATM    6  C   LIG     1      19.562  32.719  10.750  1.00  0.00     0.033 C 
HETATM    7  C   LIG     1      20.877  31.953  10.553  1.00  0.00     0.008 C 
ENDBRANCH   1   6
BRANCH   1   8
HETATM    8  O   LIG     1      18.874  35.007  11.112  1.00  0.00    -0.390 OA
HETATM    9  H   LIG     1      18.911  34.967  10.121  1.00  0.00     0.210 HD
ENDBRANCH   1   8
TORSDOF 4
ENDMDL
MODEL 15
REMARK VINA RESULT:      -3.7      8.840     10.498
REMARK  4 active torsions:
REMARK  status: ('A' for Active; 'I' for Inactive)
REMARK    1  A    between atoms: C_2  and  C_3 
REMARK    2  A    between atoms: C_3  and  C_7 
REMARK    3  A    between atoms: C_3  and  C_5 
REMARK    4  A    between atoms: C_3  and  O_4 
ROOT
HETATM    1  C   LIG     1      16.036  31.929  14.893  1.00  0.00     0.057 C 
ENDROOT
BRANCH   1   2
HETATM    2  C   LIG     1      14.957  30.788  14.802  1.00  0.00     0.033 C 
HETATM    3  C   LIG     1      15.268  29.616  13.858  1.00  0.00     0.008 C 
ENDBRANCH   1   2
BRANCH   1   4
HETATM    4  C   LIG     1      16.330  32.534  13.487  1.00  0.00     0.033 C 
HETATM    5  C   LIG     1      17.562  33.432  13.367  1.00  0.00     0.008 C 
ENDBRANCH   1   4
BRANCH   1   6
HETATM    6  C   LIG     1      15.659  33.069  15.892  1.00  0.00     0.033 C 
HETATM    7  C   LIG     1      14.677  32.649  16.992  1.00  0.00     0.008 C 
ENDBRANCH   1   6
BRANCH   1   8
HETATM    8  O   LIG     1      17.264  31.362  15.301  1.00  0.00    -0.390 OA
HETATM    9  H   LIG     1      17.975  32.054  15.271  1.00  0.00     0.210 HD
ENDBRANCH   1   8
TORSDOF 4
ENDMDL
MODEL 16
REMARK VINA RESULT:      -3.7      8.829     10.473
REMARK  4 active torsions:
REMARK  status: ('A' for Active; 'I' for Inactive)
REMARK    1  A    between atoms: C_2  and  C_3 
REMARK    2  A    between atoms: C_3  and  C_7 
REMARK    3  A    between atoms: C_3  and  C_5 
REMARK    4  A    between atoms: C_3  and  O_4 
ROOT
HETATM    1  C   LIG     1      16.069  31.953  14.859  1.00  0.00     0.057 C 
ENDROOT
BRANCH   1   2
HETATM    2  C   LIG     1      16.311  32.587  13.439  1.00  0.00     0.033 C 
HETATM    3  C   LIG     1      17.596  33.411  13.261  1.00  0.00     0.008 C 
ENDBRANCH   1   2
BRANCH   1   4
HETATM    4  C   LIG     1      15.663  33.044  15.895  1.00  0.00     0.033 C 
HETATM    5  C   LIG     1      14.772  32.596  17.055  1.00  0.00     0.008 C 
ENDBRANCH   1   4
BRANCH   1   6
HETATM    6  C   LIG     1      15.013  30.803  14.859  1.00  0.00     0.033 C 
HETATM    7  C   LIG     1      15.301  29.677  13.858  1.00  0.00     0.008 C 
ENDBRANCH   1   6
BRANCH   1   8
HETATM    8  O   LIG     1      17.293  31.440  15.343  1.00  0.00    -0.390 OA
HETATM    9  H   LIG     1      17.456  30.544  14.948  1.00  0.00     0.210 HD
ENDBRANCH   1   8
TORSDOF 4
ENDMDL
MODEL 17
REMARK VINA RESULT:      -3.6      8.524     10.038
REMARK  4 active torsions:
REMARK  status: ('A' for Active; 'I' for Inactive)
REMARK    1  A    between atoms: C_2  and  C_3 
REMARK    2  A    between atoms: C_3  and  C_7 
REMARK    3  A    between atoms: C_3  and  C_5 
REMARK    4  A    between atoms: C_3  and  O_4 
ROOT
HETATM    1  C   LIG     1      16.586  32.596  14.971  1.00  0.00     0.057 C 
ENDROOT
BRANCH   1   2
HETATM    2  C   LIG     1      15.437  32.652  16.044  1.00  0.00     0.033 C 
HETATM    3  C   LIG     1      15.209  34.002  16.742  1.00  0.00     0.008 C 
ENDBRANCH   1   2
BRANCH   1   4
HETATM    4  C   LIG     1      16.044  32.092  13.599  1.00  0.00     0.033 C 
HETATM    5  C   LIG     1      15.360  30.724  13.587  1.00  0.00     0.008 C 
ENDBRANCH   1   4
BRANCH   1   6
HETATM    6  C   LIG     1      17.331  33.955  14.779  1.00  0.00     0.033 C 
HETATM    7  C   LIG     1      18.264  34.000  13.563  1.00  0.00     0.008 C 
ENDBRANCH   1   6
BRANCH   1   8
HETATM    8  O   LIG     1      17.527  31.618  15.362  1.00  0.00    -0.390 OA
HETATM    9  H   LIG     1      17.319  31.307  16.281  1.00  0.00     0.210 HD
ENDBRANCH   1   8
TORSDOF 4
ENDMDL
MODEL 18
REMARK VINA RESULT:      -3.6     10.691     11.765
REMARK  4 active torsions:
REMARK  status: ('A' for Active; 'I' for Inactive)
REMARK    1  A    between atoms: C_2  and  C_3 
REMARK    2  A    between atoms: C_3  and  C_7 
REMARK    3  A    between atoms: C_3  and  C_5 
REMARK    4  A    between atoms: C_3  and  O_4 
ROOT
HETATM    1  C   LIG     1      14.918  30.090  14.258  1.00  0.00     0.057 C 
ENDROOT
BRANCH   1   2
HETATM    2  C   LIG     1      13.429  29.942  14.745  1.00  0.00     0.033 C 
HETATM    3  C   LIG     1      13.045  30.693  16.029  1.00  0.00     0.008 C 
ENDBRANCH   1   2
BRANCH   1   4
HETATM    4  C   LIG     1      15.681  31.149  15.109  1.00  0.00     0.033 C 
HETATM    5  C   LIG     1      16.265  32.347  14.358  1.00  0.00     0.008 C 
ENDBRANCH   1   4
BRANCH   1   6
HETATM    6  C   LIG     1      15.711  28.745  14.252  1.00  0.00     0.033 C 
HETATM    7  C   LIG     1      14.992  27.588  13.548  1.00  0.00     0.008 C 
ENDBRANCH   1   6
BRANCH   1   8
HETATM    8  O   LIG     1      14.918  30.618  12.948  1.00  0.00    -0.390 OA
HETATM    9  H   LIG     1      15.641  30.192  12.419  1.00  0.00     0.210 HD
ENDBRANCH   1   8
TORSDOF 4
ENDMDL
MODEL 19
REMARK VINA RESULT:      -3.6     10.488     11.774
REMARK  4 active torsions:
REMARK  status: ('A' for Active; 'I' for Inactive)
REMARK    1  A    between atoms: C_2  and  C_3 
REMARK    2  A    between atoms: C_3  and  C_7 
REMARK    3  A    between atoms: C_3  and  C_5 
REMARK    4  A    between atoms: C_3  and  O_4 
ROOT
HETATM    1  C   LIG     1      15.249  30.478  14.441  1.00  0.00     0.057 C 
ENDROOT
BRANCH   1   2
HETATM    2  C   LIG     1      14.500  31.206  15.618  1.00  0.00     0.033 C 
HETATM    3  C   LIG     1      13.126  30.643  16.015  1.00  0.00     0.008 C 
ENDBRANCH   1   2
BRANCH   1   4
HETATM    4  C   LIG     1      14.452  29.228  13.960  1.00  0.00     0.033 C 
HETATM    5  C   LIG     1      15.260  27.959  13.685  1.00  0.00     0.008 C 
ENDBRANCH   1   4
BRANCH   1   6
HETATM    6  C   LIG     1      15.558  31.409  13.226  1.00  0.00     0.033 C 
HETATM    7  C   LIG     1      16.574  32.519  13.520  1.00  0.00     0.008 C 
ENDBRANCH   1   6
BRANCH   1   8
HETATM    8  O   LIG     1      16.468  29.958  14.930  1.00  0.00    -0.390 OA
HETATM    9  H   LIG     1      17.064  29.739  14.168  1.00  0.00     0.210 HD
ENDBRANCH   1   8
TORSDOF 4
ENDMDL
MODEL 20
REMARK VINA RESULT:      -3.5     11.029     12.324
REMARK  4 active torsions:
REMARK  status: ('A' for Active; 'I' for Inactive)
REMARK    1  A    between atoms: C_2  and  C_3 
REMARK    2  A    between atoms: C_3  and  C_7 
REMARK    3  A    between atoms: C_3  and  C_5 
REMARK    4  A    between atoms: C_3  and  O_4 
ROOT
HETATM    1  C   LIG     1      19.407  33.671  11.933  1.00  0.00     0.057 C 
ENDROOT
BRANCH   1   2
HETATM    2  C   LIG     1      19.755  34.576  10.694  1.00  0.00     0.033 C 
HETATM    3  C   LIG     1      18.579  35.288  10.006  1.00  0.00     0.008 C 
ENDBRANCH   1   2
BRANCH   1   4
HETATM    4  C   LIG     1      20.619  33.567  12.907  1.00  0.00     0.033 C 
HETATM    5  C   LIG     1      21.744  34.586  12.719  1.00  0.00     0.008 C 
ENDBRANCH   1   4
BRANCH   1   6
HETATM    6  C   LIG     1      18.138  34.140  12.714  1.00  0.00     0.033 C 
HETATM    7  C   LIG     1      17.909  33.413  14.045  1.00  0.00     0.008 C 
ENDBRANCH   1   6
BRANCH   1   8
HETATM    8  O   LIG     1      19.196  32.348  11.485  1.00  0.00    -0.390 OA
HETATM    9  H   LIG     1      18.347  32.303  10.973  1.00  0.00     0.210 HD
ENDBRANCH   1   8
TORSDOF 4
ENDMDL
