REMARK  4 active torsions:
REMARK  status: ('A' for Active; 'I' for Inactive)
REMARK    1  A    between atoms: C_2  and  C_3 
REMARK    2  A    between atoms: C_3  and  C_6 
REMARK    3  A    between atoms: C_3  and  O_5 
REMARK    4  A    between atoms: C_6  and  C_7 
ROOT
HETATM    1  C   LIG     1      -0.733  -0.510  -0.087  1.00  0.00     0.054 C 
HETATM    2  C   LIG     1      -0.518  -1.820   0.709  1.00  0.00     0.045 C 
ENDROOT
BRANCH   1   3
HETATM    3  C   LIG     1      -1.917   0.248   0.573  1.00  0.00     0.033 C 
HETATM    4  C   LIG     1      -2.318   1.540  -0.147  1.00  0.00     0.008 C 
ENDBRANCH   1   3
BRANCH   1   5
HETATM    5  C   LIG     1       0.546   0.383  -0.065  1.00  0.00     0.037 C 
BRANCH   5   6
HETATM    6  C   LIG     1       1.838  -0.317  -0.527  1.00  0.00    -0.002 C 
HETATM    7  C   LIG     1       3.007   0.665  -0.570  1.00  0.00     0.005 C 
ENDBRANCH   5   6
ENDBRANCH   1   5
BRANCH   1   8
HETATM    8  O   LIG     1      -1.095  -0.809  -1.416  1.00  0.00    -0.390 OA
HETATM    9  H   LIG     1      -0.439  -1.453  -1.787  1.00  0.00     0.210 HD
ENDBRANCH   1   8
TORSDOF 4
