REMARK  4 active torsions:
REMARK  status: ('A' for Active; 'I' for Inactive)
REMARK    1  A    between atoms: C_2  and  C_3 
REMARK    2  A    between atoms: C_3  and  C_7 
REMARK    3  A    between atoms: C_3  and  C_5 
REMARK    4  A    between atoms: C_3  and  O_4 
ROOT
HETATM    1  C   LIG     1      -0.450   0.079   0.745  1.00  0.00     0.057 C 
ENDROOT
BRANCH   1   2
HETATM    2  C   LIG     1       0.667  -1.022   0.871  1.00  0.00     0.033 C 
HETATM    3  C   LIG     1       1.574  -1.229  -0.352  1.00  0.00     0.008 C 
ENDBRANCH   1   2
BRANCH   1   4
HETATM    4  C   LIG     1       0.086   1.472   1.194  1.00  0.00     0.033 C 
HETATM    5  C   LIG     1       1.285   2.030   0.426  1.00  0.00     0.008 C 
ENDBRANCH   1   4
BRANCH   1   6
HETATM    6  C   LIG     1      -1.066   0.185  -0.686  1.00  0.00     0.033 C 
HETATM    7  C   LIG     1      -1.878  -1.042  -1.119  1.00  0.00     0.008 C 
ENDBRANCH   1   6
BRANCH   1   8
HETATM    8  O   LIG     1      -1.485  -0.216   1.660  1.00  0.00    -0.390 OA
HETATM    9  H   LIG     1      -1.785  -1.153   1.530  1.00  0.00     0.210 HD
ENDBRANCH   1   8
TORSDOF 4
