MODEL 1
REMARK VINA RESULT:      -8.2      0.000      0.000
REMARK  3 active torsions:
REMARK  status: ('A' for Active; 'I' for Inactive)
REMARK    1  A    between atoms: C_3  and  C_4 
REMARK    2  A    between atoms: C_6  and  C_7 
REMARK    3  A    between atoms: C_18  and  C_19 
ROOT
HETATM    1  O   LIG     1      15.893  34.773  21.978  1.00  0.00    -0.286 OA
HETATM    2  C   LIG     1      16.532  35.518  21.185  1.00  0.00     0.196 A 
HETATM    3  C   LIG     1      17.271  36.607  21.685  1.00  0.00     0.041 A 
HETATM    4  C   LIG     1      18.027  37.378  20.787  1.00  0.00     0.106 A 
HETATM    5  N   LIG     1      18.026  37.099  19.451  1.00  0.00    -0.369 N 
HETATM    6  C   LIG     1      18.851  37.903  18.545  1.00  0.00     0.154 C 
HETATM    7  C   LIG     1      17.317  36.043  18.959  1.00  0.00     0.106 A 
HETATM    8  C   LIG     1      16.541  35.237  19.806  1.00  0.00     0.041 A 
ENDROOT
BRANCH   3   9
HETATM    9  C   LIG     1      17.279  36.943  23.131  1.00  0.00    -0.020 A 
HETATM   10  C   LIG     1      17.012  38.254  23.559  1.00  0.00     0.012 A 
HETATM   11  C   LIG     1      17.044  38.572  24.918  1.00  0.00     0.002 A 
HETATM   12  C   LIG     1      17.337  37.588  25.864  1.00  0.00     0.016 A 
HETATM   13  C   LIG     1      17.586  36.265  25.460  1.00  0.00     0.048 A 
HETATM   14  C   LIG     1      17.580  35.957  24.087  1.00  0.00     0.028 A 
BRANCH  13  15
HETATM   15  C   LIG     1      17.952  35.211  26.474  1.00  0.00     0.417 C 
HETATM   16  F   LIG     1      16.851  34.437  26.797  1.00  0.00    -0.166 F 
HETATM   17  F   LIG     1      18.937  34.375  25.976  1.00  0.00    -0.166 F 
HETATM   18  F   LIG     1      18.421  35.826  27.621  1.00  0.00    -0.166 F 
ENDBRANCH  13  15
ENDBRANCH   3   9
BRANCH   8  19
HETATM   19  C   LIG     1      15.768  34.104  19.237  1.00  0.00    -0.021 A 
HETATM   20  C   LIG     1      15.551  32.940  19.996  1.00  0.00     0.012 A 
HETATM   21  C   LIG     1      14.829  31.870  19.457  1.00  0.00     0.001 A 
HETATM   22  C   LIG     1      14.322  31.950  18.158  1.00  0.00     0.000 A 
HETATM   23  C   LIG     1      14.538  33.098  17.393  1.00  0.00     0.001 A 
HETATM   24  C   LIG     1      15.259  34.171  17.927  1.00  0.00     0.012 A 
ENDBRANCH   8  19
TORSDOF 3
ENDMDL
MODEL 2
REMARK VINA RESULT:      -8.2      6.849     10.060
REMARK  3 active torsions:
REMARK  status: ('A' for Active; 'I' for Inactive)
REMARK    1  A    between atoms: C_3  and  C_4 
REMARK    2  A    between atoms: C_6  and  C_7 
REMARK    3  A    between atoms: C_18  and  C_19 
ROOT
HETATM    1  O   LIG     1      17.186  34.323  15.760  1.00  0.00    -0.286 OA
HETATM    2  C   LIG     1      16.516  33.336  15.348  1.00  0.00     0.196 A 
HETATM    3  C   LIG     1      16.642  32.908  14.013  1.00  0.00     0.041 A 
HETATM    4  C   LIG     1      15.937  31.767  13.601  1.00  0.00     0.106 A 
HETATM    5  N   LIG     1      15.121  31.097  14.467  1.00  0.00    -0.369 N 
HETATM    6  C   LIG     1      14.423  29.890  14.015  1.00  0.00     0.154 C 
HETATM    7  C   LIG     1      14.997  31.502  15.764  1.00  0.00     0.106 A 
HETATM    8  C   LIG     1      15.676  32.637  16.234  1.00  0.00     0.041 A 
ENDROOT
BRANCH   3   9
HETATM    9  C   LIG     1      17.510  33.626  13.045  1.00  0.00    -0.020 A 
HETATM   10  C   LIG     1      16.952  34.510  12.107  1.00  0.00     0.012 A 
HETATM   11  C   LIG     1      17.769  35.164  11.182  1.00  0.00     0.002 A 
HETATM   12  C   LIG     1      19.148  34.948  11.186  1.00  0.00     0.016 A 
HETATM   13  C   LIG     1      19.731  34.085  12.130  1.00  0.00     0.048 A 
HETATM   14  C   LIG     1      18.900  33.407  13.041  1.00  0.00     0.028 A 
BRANCH  13  15
HETATM   15  C   LIG     1      21.214  33.811  12.104  1.00  0.00     0.417 C 
HETATM   16  F   LIG     1      21.662  33.422  13.355  1.00  0.00    -0.166 F 
HETATM   17  F   LIG     1      21.508  32.801  11.206  1.00  0.00    -0.166 F 
HETATM   18  F   LIG     1      21.882  34.961  11.725  1.00  0.00    -0.166 F 
ENDBRANCH  13  15
ENDBRANCH   3   9
BRANCH   8  19
HETATM   19  C   LIG     1      15.508  33.061  17.647  1.00  0.00    -0.021 A 
HETATM   20  C   LIG     1      15.526  34.425  17.986  1.00  0.00     0.012 A 
HETATM   21  C   LIG     1      15.376  34.824  19.318  1.00  0.00     0.001 A 
HETATM   22  C   LIG     1      15.212  33.867  20.322  1.00  0.00     0.000 A 
HETATM   23  C   LIG     1      15.199  32.509  19.997  1.00  0.00     0.001 A 
HETATM   24  C   LIG     1      15.348  32.105  18.667  1.00  0.00     0.012 A 
ENDBRANCH   8  19
TORSDOF 3
ENDMDL
MODEL 3
REMARK VINA RESULT:      -7.6      2.971      6.643
REMARK  3 active torsions:
REMARK  status: ('A' for Active; 'I' for Inactive)
REMARK    1  A    between atoms: C_3  and  C_4 
REMARK    2  A    between atoms: C_6  and  C_7 
REMARK    3  A    between atoms: C_18  and  C_19 
ROOT
HETATM    1  O   LIG     1      16.270  34.638  22.582  1.00  0.00    -0.286 OA
HETATM    2  C   LIG     1      16.843  35.624  22.041  1.00  0.00     0.196 A 
HETATM    3  C   LIG     1      16.798  35.783  20.643  1.00  0.00     0.041 A 
HETATM    4  C   LIG     1      17.386  36.924  20.075  1.00  0.00     0.106 A 
HETATM    5  N   LIG     1      18.015  37.851  20.855  1.00  0.00    -0.369 N 
HETATM    6  C   LIG     1      18.591  39.047  20.235  1.00  0.00     0.154 C 
HETATM    7  C   LIG     1      18.059  37.707  22.211  1.00  0.00     0.106 A 
HETATM    8  C   LIG     1      17.491  36.587  22.837  1.00  0.00     0.041 A 
ENDROOT
BRANCH   3   9
HETATM    9  C   LIG     1      16.134  34.785  19.767  1.00  0.00    -0.020 A 
HETATM   10  C   LIG     1      15.782  35.115  18.448  1.00  0.00     0.012 A 
HETATM   11  C   LIG     1      15.136  34.182  17.636  1.00  0.00     0.002 A 
HETATM   12  C   LIG     1      14.839  32.909  18.126  1.00  0.00     0.016 A 
HETATM   13  C   LIG     1      15.201  32.548  19.436  1.00  0.00     0.048 A 
HETATM   14  C   LIG     1      15.827  33.503  20.259  1.00  0.00     0.028 A 
BRANCH  13  15
HETATM   15  C   LIG     1      14.837  31.192  19.985  1.00  0.00     0.417 C 
HETATM   16  F   LIG     1      14.211  30.423  19.019  1.00  0.00    -0.166 F 
HETATM   17  F   LIG     1      15.969  30.517  20.408  1.00  0.00    -0.166 F 
HETATM   18  F   LIG     1      13.980  31.351  21.059  1.00  0.00    -0.166 F 
ENDBRANCH  13  15
ENDBRANCH   3   9
BRANCH   8  19
HETATM   19  C   LIG     1      17.569  36.451  24.314  1.00  0.00    -0.021 A 
HETATM   20  C   LIG     1      17.625  37.594  25.130  1.00  0.00     0.012 A 
HETATM   21  C   LIG     1      17.706  37.466  26.520  1.00  0.00     0.001 A 
HETATM   22  C   LIG     1      17.738  36.199  27.107  1.00  0.00     0.000 A 
HETATM   23  C   LIG     1      17.689  35.057  26.305  1.00  0.00     0.001 A 
HETATM   24  C   LIG     1      17.607  35.179  24.915  1.00  0.00     0.012 A 
ENDBRANCH   8  19
TORSDOF 3
ENDMDL
MODEL 4
REMARK VINA RESULT:      -7.4      4.115      7.426
REMARK  3 active torsions:
REMARK  status: ('A' for Active; 'I' for Inactive)
REMARK    1  A    between atoms: C_3  and  C_4 
REMARK    2  A    between atoms: C_6  and  C_7 
REMARK    3  A    between atoms: C_18  and  C_19 
ROOT
HETATM    1  O   LIG     1      15.905  34.442  22.664  1.00  0.00    -0.286 OA
HETATM    2  C   LIG     1      16.532  35.200  21.874  1.00  0.00     0.196 A 
HETATM    3  C   LIG     1      16.468  34.976  20.486  1.00  0.00     0.041 A 
HETATM    4  C   LIG     1      17.119  35.875  19.627  1.00  0.00     0.106 A 
HETATM    5  N   LIG     1      17.825  36.932  20.123  1.00  0.00    -0.369 N 
HETATM    6  C   LIG     1      18.466  37.871  19.199  1.00  0.00     0.154 C 
HETATM    7  C   LIG     1      17.887  37.160  21.467  1.00  0.00     0.106 A 
HETATM    8  C   LIG     1      17.258  36.296  22.375  1.00  0.00     0.041 A 
ENDROOT
BRANCH   3   9
HETATM    9  C   LIG     1      15.721  33.826  19.917  1.00  0.00    -0.020 A 
HETATM   10  C   LIG     1      15.247  32.800  20.753  1.00  0.00     0.012 A 
HETATM   11  C   LIG     1      14.566  31.708  20.212  1.00  0.00     0.002 A 
HETATM   12  C   LIG     1      14.345  31.628  18.836  1.00  0.00     0.016 A 
HETATM   13  C   LIG     1      14.791  32.653  17.983  1.00  0.00     0.048 A 
HETATM   14  C   LIG     1      15.501  33.737  18.531  1.00  0.00     0.028 A 
BRANCH  13  15
HETATM   15  C   LIG     1      14.598  32.546  16.491  1.00  0.00     0.417 C 
HETATM   16  F   LIG     1      15.308  33.535  15.832  1.00  0.00    -0.166 F 
HETATM   17  F   LIG     1      15.039  31.318  16.029  1.00  0.00    -0.166 F 
HETATM   18  F   LIG     1      13.254  32.684  16.195  1.00  0.00    -0.166 F 
ENDBRANCH  13  15
ENDBRANCH   3   9
BRANCH   8  19
HETATM   19  C   LIG     1      17.358  36.562  23.834  1.00  0.00    -0.021 A 
HETATM   20  C   LIG     1      17.262  37.876  24.324  1.00  0.00     0.012 A 
HETATM   21  C   LIG     1      17.364  38.128  25.695  1.00  0.00     0.001 A 
HETATM   22  C   LIG     1      17.566  37.073  26.588  1.00  0.00     0.000 A 
HETATM   23  C   LIG     1      17.669  35.764  26.111  1.00  0.00     0.001 A 
HETATM   24  C   LIG     1      17.568  35.507  24.741  1.00  0.00     0.012 A 
ENDBRANCH   8  19
TORSDOF 3
ENDMDL
MODEL 5
REMARK VINA RESULT:      -7.4      4.407      6.899
REMARK  3 active torsions:
REMARK  status: ('A' for Active; 'I' for Inactive)
REMARK    1  A    between atoms: C_3  and  C_4 
REMARK    2  A    between atoms: C_6  and  C_7 
REMARK    3  A    between atoms: C_18  and  C_19 
ROOT
HETATM    1  O   LIG     1      13.805  30.351  17.129  1.00  0.00    -0.286 OA
HETATM    2  C   LIG     1      14.540  31.056  16.383  1.00  0.00     0.196 A 
HETATM    3  C   LIG     1      15.264  32.134  16.927  1.00  0.00     0.041 A 
HETATM    4  C   LIG     1      16.125  32.859  16.089  1.00  0.00     0.106 A 
HETATM    5  N   LIG     1      16.243  32.547  14.765  1.00  0.00    -0.369 N 
HETATM    6  C   LIG     1      17.175  33.302  13.924  1.00  0.00     0.154 C 
HETATM    7  C   LIG     1      15.548  31.500  14.231  1.00  0.00     0.106 A 
HETATM    8  C   LIG     1      14.671  30.740  15.019  1.00  0.00     0.041 A 
ENDROOT
BRANCH   3   9
HETATM    9  C   LIG     1      15.146  32.507  18.359  1.00  0.00    -0.020 A 
HETATM   10  C   LIG     1      14.518  31.642  19.272  1.00  0.00     0.012 A 
HETATM   11  C   LIG     1      14.387  32.006  20.613  1.00  0.00     0.002 A 
HETATM   12  C   LIG     1      14.884  33.232  21.061  1.00  0.00     0.016 A 
HETATM   13  C   LIG     1      15.535  34.104  20.170  1.00  0.00     0.048 A 
HETATM   14  C   LIG     1      15.639  33.743  18.814  1.00  0.00     0.028 A 
BRANCH  13  15
HETATM   15  C   LIG     1      16.028  35.450  20.640  1.00  0.00     0.417 C 
HETATM   16  F   LIG     1      16.852  35.313  21.743  1.00  0.00    -0.166 F 
HETATM   17  F   LIG     1      16.746  36.082  19.640  1.00  0.00    -0.166 F 
HETATM   18  F   LIG     1      14.943  36.237  20.983  1.00  0.00    -0.166 F 
ENDBRANCH  13  15
ENDBRANCH   3   9
BRANCH   8  19
HETATM   19  C   LIG     1      13.917  29.617  14.404  1.00  0.00    -0.021 A 
HETATM   20  C   LIG     1      12.527  29.711  14.218  1.00  0.00     0.012 A 
HETATM   21  C   LIG     1      11.817  28.651  13.647  1.00  0.00     0.001 A 
HETATM   22  C   LIG     1      12.486  27.487  13.262  1.00  0.00     0.000 A 
HETATM   23  C   LIG     1      13.866  27.379  13.448  1.00  0.00     0.001 A 
HETATM   24  C   LIG     1      14.580  28.437  14.019  1.00  0.00     0.012 A 
ENDBRANCH   8  19
TORSDOF 3
ENDMDL
MODEL 6
REMARK VINA RESULT:      -7.3      3.663      5.037
REMARK  3 active torsions:
REMARK  status: ('A' for Active; 'I' for Inactive)
REMARK    1  A    between atoms: C_3  and  C_4 
REMARK    2  A    between atoms: C_6  and  C_7 
REMARK    3  A    between atoms: C_18  and  C_19 
ROOT
HETATM    1  O   LIG     1      16.312  34.863  18.135  1.00  0.00    -0.286 OA
HETATM    2  C   LIG     1      15.767  34.140  19.014  1.00  0.00     0.196 A 
HETATM    3  C   LIG     1      15.746  34.561  20.357  1.00  0.00     0.041 A 
HETATM    4  C   LIG     1      15.074  33.770  21.301  1.00  0.00     0.106 A 
HETATM    5  N   LIG     1      14.474  32.600  20.936  1.00  0.00    -0.369 N 
HETATM    6  C   LIG     1      13.754  31.813  21.940  1.00  0.00     0.154 C 
HETATM    7  C   LIG     1      14.486  32.186  19.636  1.00  0.00     0.106 A 
HETATM    8  C   LIG     1      15.142  32.934  18.647  1.00  0.00     0.041 A 
ENDROOT
BRANCH   3   9
HETATM    9  C   LIG     1      16.402  35.822  20.786  1.00  0.00    -0.020 A 
HETATM   10  C   LIG     1      15.879  36.570  21.854  1.00  0.00     0.012 A 
HETATM   11  C   LIG     1      16.484  37.768  22.240  1.00  0.00     0.002 A 
HETATM   12  C   LIG     1      17.618  38.230  21.570  1.00  0.00     0.016 A 
HETATM   13  C   LIG     1      18.172  37.487  20.513  1.00  0.00     0.048 A 
HETATM   14  C   LIG     1      17.541  36.295  20.111  1.00  0.00     0.028 A 
BRANCH  13  15
HETATM   15  C   LIG     1      19.367  38.008  19.755  1.00  0.00     0.417 C 
HETATM   16  F   LIG     1      20.060  38.939  20.510  1.00  0.00    -0.166 F 
HETATM   17  F   LIG     1      20.234  36.975  19.441  1.00  0.00    -0.166 F 
HETATM   18  F   LIG     1      18.938  38.608  18.585  1.00  0.00    -0.166 F 
ENDBRANCH  13  15
ENDBRANCH   3   9
BRANCH   8  19
HETATM   19  C   LIG     1      15.150  32.449  17.242  1.00  0.00    -0.021 A 
HETATM   20  C   LIG     1      14.188  31.522  16.806  1.00  0.00     0.012 A 
HETATM   21  C   LIG     1      14.199  31.059  15.486  1.00  0.00     0.001 A 
HETATM   22  C   LIG     1      15.173  31.513  14.594  1.00  0.00     0.000 A 
HETATM   23  C   LIG     1      16.138  32.429  15.019  1.00  0.00     0.001 A 
HETATM   24  C   LIG     1      16.130  32.895  16.337  1.00  0.00     0.012 A 
ENDBRANCH   8  19
TORSDOF 3
ENDMDL
MODEL 7
REMARK VINA RESULT:      -7.1      7.258     11.070
REMARK  3 active torsions:
REMARK  status: ('A' for Active; 'I' for Inactive)
REMARK    1  A    between atoms: C_3  and  C_4 
REMARK    2  A    between atoms: C_6  and  C_7 
REMARK    3  A    between atoms: C_18  and  C_19 
ROOT
HETATM    1  O   LIG     1      14.076  30.623  16.740  1.00  0.00    -0.286 OA
HETATM    2  C   LIG     1      14.841  31.223  15.936  1.00  0.00     0.196 A 
HETATM    3  C   LIG     1      14.996  30.743  14.622  1.00  0.00     0.041 A 
HETATM    4  C   LIG     1      15.801  31.469  13.730  1.00  0.00     0.106 A 
HETATM    5  N   LIG     1      16.444  32.604  14.130  1.00  0.00    -0.369 N 
HETATM    6  C   LIG     1      17.251  33.356  13.166  1.00  0.00     0.154 C 
HETATM    7  C   LIG     1      16.295  33.079  15.401  1.00  0.00     0.106 A 
HETATM    8  C   LIG     1      15.506  32.397  16.338  1.00  0.00     0.041 A 
ENDROOT
BRANCH   3   9
HETATM    9  C   LIG     1      14.321  29.504  14.162  1.00  0.00    -0.020 A 
HETATM   10  C   LIG     1      15.035  28.298  14.060  1.00  0.00     0.012 A 
HETATM   11  C   LIG     1      14.403  27.140  13.604  1.00  0.00     0.002 A 
HETATM   12  C   LIG     1      13.053  27.170  13.249  1.00  0.00     0.016 A 
HETATM   13  C   LIG     1      12.313  28.359  13.363  1.00  0.00     0.048 A 
HETATM   14  C   LIG     1      12.963  29.530  13.797  1.00  0.00     0.028 A 
BRANCH  13  15
HETATM   15  C   LIG     1      10.868  28.407  12.933  1.00  0.00     0.417 C 
HETATM   16  F   LIG     1      10.196  27.268  13.344  1.00  0.00    -0.166 F 
HETATM   17  F   LIG     1      10.231  29.505  13.483  1.00  0.00    -0.166 F 
HETATM   18  F   LIG     1      10.806  28.493  11.554  1.00  0.00    -0.166 F 
ENDBRANCH  13  15
ENDBRANCH   3   9
BRANCH   8  19
HETATM   19  C   LIG     1      15.376  32.931  17.718  1.00  0.00    -0.021 A 
HETATM   20  C   LIG     1      15.389  34.318  17.947  1.00  0.00     0.012 A 
HETATM   21  C   LIG     1      15.275  34.821  19.246  1.00  0.00     0.001 A 
HETATM   22  C   LIG     1      15.151  33.946  20.328  1.00  0.00     0.000 A 
HETATM   23  C   LIG     1      15.143  32.566  20.113  1.00  0.00     0.001 A 
HETATM   24  C   LIG     1      15.257  32.058  18.815  1.00  0.00     0.012 A 
ENDBRANCH   8  19
TORSDOF 3
ENDMDL
MODEL 8
REMARK VINA RESULT:      -7.0      7.289     10.998
REMARK  3 active torsions:
REMARK  status: ('A' for Active; 'I' for Inactive)
REMARK    1  A    between atoms: C_3  and  C_4 
REMARK    2  A    between atoms: C_6  and  C_7 
REMARK    3  A    between atoms: C_18  and  C_19 
ROOT
HETATM    1  O   LIG     1      14.376  30.737  16.713  1.00  0.00    -0.286 OA
HETATM    2  C   LIG     1      15.104  31.429  15.949  1.00  0.00     0.196 A 
HETATM    3  C   LIG     1      15.315  31.018  14.619  1.00  0.00     0.041 A 
HETATM    4  C   LIG     1      16.074  31.841  13.772  1.00  0.00     0.106 A 
HETATM    5  N   LIG     1      16.622  33.004  14.231  1.00  0.00    -0.369 N 
HETATM    6  C   LIG     1      17.382  33.857  13.313  1.00  0.00     0.154 C 
HETATM    7  C   LIG     1      16.418  33.412  15.517  1.00  0.00     0.106 A 
HETATM    8  C   LIG     1      15.670  32.631  16.411  1.00  0.00     0.041 A 
ENDROOT
BRANCH   3   9
HETATM    9  C   LIG     1      14.745  29.752  14.095  1.00  0.00    -0.020 A 
HETATM   10  C   LIG     1      13.450  29.347  14.463  1.00  0.00     0.012 A 
HETATM   11  C   LIG     1      12.926  28.144  13.988  1.00  0.00     0.002 A 
HETATM   12  C   LIG     1      13.682  27.333  13.140  1.00  0.00     0.016 A 
HETATM   13  C   LIG     1      14.972  27.728  12.741  1.00  0.00     0.048 A 
HETATM   14  C   LIG     1      15.505  28.929  13.245  1.00  0.00     0.028 A 
BRANCH  13  15
HETATM   15  C   LIG     1      15.810  26.832  11.865  1.00  0.00     0.417 C 
HETATM   16  F   LIG     1      16.362  27.547  10.817  1.00  0.00    -0.166 F 
HETATM   17  F   LIG     1      16.843  26.266  12.593  1.00  0.00    -0.166 F 
HETATM   18  F   LIG     1      15.015  25.823  11.352  1.00  0.00    -0.166 F 
ENDBRANCH  13  15
ENDBRANCH   3   9
BRANCH   8  19
HETATM   19  C   LIG     1      15.478  33.094  17.809  1.00  0.00    -0.021 A 
HETATM   20  C   LIG     1      15.513  34.466  18.114  1.00  0.00     0.012 A 
HETATM   21  C   LIG     1      15.341  34.902  19.432  1.00  0.00     0.001 A 
HETATM   22  C   LIG     1      15.138  33.974  20.455  1.00  0.00     0.000 A 
HETATM   23  C   LIG     1      15.108  32.608  20.165  1.00  0.00     0.001 A 
HETATM   24  C   LIG     1      15.279  32.168  18.849  1.00  0.00     0.012 A 
ENDBRANCH   8  19
TORSDOF 3
ENDMDL
MODEL 9
REMARK VINA RESULT:      -6.9      4.705      7.396
REMARK  3 active torsions:
REMARK  status: ('A' for Active; 'I' for Inactive)
REMARK    1  A    between atoms: C_3  and  C_4 
REMARK    2  A    between atoms: C_6  and  C_7 
REMARK    3  A    between atoms: C_18  and  C_19 
ROOT
HETATM    1  O   LIG     1      16.886  33.874  16.168  1.00  0.00    -0.286 OA
HETATM    2  C   LIG     1      16.259  32.891  15.685  1.00  0.00     0.196 A 
HETATM    3  C   LIG     1      15.396  32.137  16.504  1.00  0.00     0.041 A 
HETATM    4  C   LIG     1      14.660  31.092  15.924  1.00  0.00     0.106 A 
HETATM    5  N   LIG     1      14.794  30.790  14.600  1.00  0.00    -0.369 N 
HETATM    6  C   LIG     1      13.988  29.713  14.019  1.00  0.00     0.154 C 
HETATM    7  C   LIG     1      15.624  31.519  13.799  1.00  0.00     0.106 A 
HETATM    8  C   LIG     1      16.387  32.575  14.321  1.00  0.00     0.041 A 
ENDROOT
BRANCH   3   9
HETATM    9  C   LIG     1      15.241  32.432  17.950  1.00  0.00    -0.020 A 
HETATM   10  C   LIG     1      14.646  31.494  18.810  1.00  0.00     0.012 A 
HETATM   11  C   LIG     1      14.480  31.785  20.165  1.00  0.00     0.002 A 
HETATM   12  C   LIG     1      14.908  33.010  20.679  1.00  0.00     0.016 A 
HETATM   13  C   LIG     1      15.526  33.956  19.842  1.00  0.00     0.048 A 
HETATM   14  C   LIG     1      15.665  33.668  18.472  1.00  0.00     0.028 A 
BRANCH  13  15
HETATM   15  C   LIG     1      15.944  35.300  20.383  1.00  0.00     0.417 C 
HETATM   16  F   LIG     1      16.705  35.152  21.530  1.00  0.00    -0.166 F 
HETATM   17  F   LIG     1      16.699  35.988  19.450  1.00  0.00    -0.166 F 
HETATM   18  F   LIG     1      14.815  36.040  20.685  1.00  0.00    -0.166 F 
ENDBRANCH  13  15
ENDBRANCH   3   9
BRANCH   8  19
HETATM   19  C   LIG     1      17.293  33.339  13.426  1.00  0.00    -0.021 A 
HETATM   20  C   LIG     1      16.766  34.223  12.469  1.00  0.00     0.012 A 
HETATM   21  C   LIG     1      17.618  34.938  11.621  1.00  0.00     0.001 A 
HETATM   22  C   LIG     1      19.002  34.772  11.717  1.00  0.00     0.000 A 
HETATM   23  C   LIG     1      19.536  33.891  12.660  1.00  0.00     0.001 A 
HETATM   24  C   LIG     1      18.688  33.175  13.510  1.00  0.00     0.012 A 
ENDBRANCH   8  19
TORSDOF 3
ENDMDL
MODEL 10
REMARK VINA RESULT:      -6.8     15.873     17.068
REMARK  3 active torsions:
REMARK  status: ('A' for Active; 'I' for Inactive)
REMARK    1  A    between atoms: C_3  and  C_4 
REMARK    2  A    between atoms: C_6  and  C_7 
REMARK    3  A    between atoms: C_18  and  C_19 
ROOT
HETATM    1  O   LIG     1      28.413  28.330  32.987  1.00  0.00    -0.286 OA
HETATM    2  C   LIG     1      28.870  29.203  32.199  1.00  0.00     0.196 A 
HETATM    3  C   LIG     1      29.211  30.479  32.685  1.00  0.00     0.041 A 
HETATM    4  C   LIG     1      29.780  31.408  31.800  1.00  0.00     0.106 A 
HETATM    5  N   LIG     1      29.975  31.096  30.486  1.00  0.00    -0.369 N 
HETATM    6  C   LIG     1      30.600  32.077  29.594  1.00  0.00     0.154 C 
HETATM    7  C   LIG     1      29.651  29.859  30.007  1.00  0.00     0.106 A 
HETATM    8  C   LIG     1      29.078  28.889  30.843  1.00  0.00     0.041 A 
ENDROOT
BRANCH   3   9
HETATM    9  C   LIG     1      28.997  30.853  34.106  1.00  0.00    -0.020 A 
HETATM   10  C   LIG     1      30.093  31.084  34.955  1.00  0.00     0.012 A 
HETATM   11  C   LIG     1      29.888  31.411  36.297  1.00  0.00     0.002 A 
HETATM   12  C   LIG     1      28.592  31.516  36.805  1.00  0.00     0.016 A 
HETATM   13  C   LIG     1      27.481  31.311  35.969  1.00  0.00     0.048 A 
HETATM   14  C   LIG     1      27.694  30.954  34.625  1.00  0.00     0.028 A 
BRANCH  13  15
HETATM   15  C   LIG     1      26.081  31.375  36.526  1.00  0.00     0.417 C 
HETATM   16  F   LIG     1      25.592  30.103  36.773  1.00  0.00    -0.166 F 
HETATM   17  F   LIG     1      26.061  32.083  37.715  1.00  0.00    -0.166 F 
HETATM   18  F   LIG     1      25.256  32.004  35.612  1.00  0.00    -0.166 F 
ENDBRANCH  13  15
ENDBRANCH   3   9
BRANCH   8  19
HETATM   19  C   LIG     1      28.723  27.558  30.288  1.00  0.00    -0.021 A 
HETATM   20  C   LIG     1      27.459  27.343  29.712  1.00  0.00     0.012 A 
HETATM   21  C   LIG     1      27.121  26.088  29.197  1.00  0.00     0.001 A 
HETATM   22  C   LIG     1      28.039  25.036  29.257  1.00  0.00     0.000 A 
HETATM   23  C   LIG     1      29.295  25.237  29.833  1.00  0.00     0.001 A 
HETATM   24  C   LIG     1      29.637  26.490  30.349  1.00  0.00     0.012 A 
ENDBRANCH   8  19
TORSDOF 3
ENDMDL
MODEL 11
REMARK VINA RESULT:      -6.6     15.038     16.789
REMARK  3 active torsions:
REMARK  status: ('A' for Active; 'I' for Inactive)
REMARK    1  A    between atoms: C_3  and  C_4 
REMARK    2  A    between atoms: C_6  and  C_7 
REMARK    3  A    between atoms: C_18  and  C_19 
ROOT
HETATM    1  O   LIG     1      26.104  24.372  17.928  1.00  0.00    -0.286 OA
HETATM    2  C   LIG     1      27.008  23.541  18.220  1.00  0.00     0.196 A 
HETATM    3  C   LIG     1      26.661  22.267  18.706  1.00  0.00     0.041 A 
HETATM    4  C   LIG     1      27.685  21.340  18.958  1.00  0.00     0.106 A 
HETATM    5  N   LIG     1      28.994  21.671  18.763  1.00  0.00    -0.369 N 
HETATM    6  C   LIG     1      30.037  20.670  19.005  1.00  0.00     0.154 C 
HETATM    7  C   LIG     1      29.339  22.902  18.287  1.00  0.00     0.106 A 
HETATM    8  C   LIG     1      28.361  23.872  18.018  1.00  0.00     0.041 A 
ENDROOT
BRANCH   3   9
HETATM    9  C   LIG     1      25.247  21.883  18.942  1.00  0.00    -0.020 A 
HETATM   10  C   LIG     1      24.538  21.145  17.979  1.00  0.00     0.012 A 
HETATM   11  C   LIG     1      23.201  20.806  18.194  1.00  0.00     0.002 A 
HETATM   12  C   LIG     1      22.557  21.195  19.370  1.00  0.00     0.016 A 
HETATM   13  C   LIG     1      23.252  21.916  20.357  1.00  0.00     0.048 A 
HETATM   14  C   LIG     1      24.592  22.277  20.122  1.00  0.00     0.028 A 
BRANCH  13  15
HETATM   15  C   LIG     1      22.546  22.380  21.606  1.00  0.00     0.417 C 
HETATM   16  F   LIG     1      21.390  23.072  21.287  1.00  0.00    -0.166 F 
HETATM   17  F   LIG     1      22.199  21.301  22.400  1.00  0.00    -0.166 F 
HETATM   18  F   LIG     1      23.387  23.214  22.320  1.00  0.00    -0.166 F 
ENDBRANCH  13  15
ENDBRANCH   3   9
BRANCH   8  19
HETATM   19  C   LIG     1      28.769  25.208  17.515  1.00  0.00    -0.021 A 
HETATM   20  C   LIG     1      29.142  25.378  16.171  1.00  0.00     0.012 A 
HETATM   21  C   LIG     1      29.534  26.635  15.699  1.00  0.00     0.001 A 
HETATM   22  C   LIG     1      29.563  27.730  16.565  1.00  0.00     0.000 A 
HETATM   23  C   LIG     1      29.201  27.572  17.905  1.00  0.00     0.001 A 
HETATM   24  C   LIG     1      28.808  26.317  18.381  1.00  0.00     0.012 A 
ENDBRANCH   8  19
TORSDOF 3
ENDMDL
MODEL 12
REMARK VINA RESULT:      -6.6      5.142      8.721
REMARK  3 active torsions:
REMARK  status: ('A' for Active; 'I' for Inactive)
REMARK    1  A    between atoms: C_3  and  C_4 
REMARK    2  A    between atoms: C_6  and  C_7 
REMARK    3  A    between atoms: C_18  and  C_19 
ROOT
HETATM    1  O   LIG     1      16.154  34.846  18.041  1.00  0.00    -0.286 OA
HETATM    2  C   LIG     1      15.672  33.935  18.770  1.00  0.00     0.196 A 
HETATM    3  C   LIG     1      15.313  32.698  18.203  1.00  0.00     0.041 A 
HETATM    4  C   LIG     1      14.843  31.680  19.049  1.00  0.00     0.106 A 
HETATM    5  N   LIG     1      14.710  31.889  20.390  1.00  0.00    -0.369 N 
HETATM    6  C   LIG     1      14.247  30.797  21.250  1.00  0.00     0.154 C 
HETATM    7  C   LIG     1      15.061  33.084  20.949  1.00  0.00     0.106 A 
HETATM    8  C   LIG     1      15.535  34.140  20.155  1.00  0.00     0.041 A 
ENDROOT
BRANCH   3   9
HETATM    9  C   LIG     1      15.433  32.445  16.745  1.00  0.00    -0.020 A 
HETATM   10  C   LIG     1      14.537  31.581  16.095  1.00  0.00     0.012 A 
HETATM   11  C   LIG     1      14.668  31.327  14.728  1.00  0.00     0.002 A 
HETATM   12  C   LIG     1      15.689  31.935  13.995  1.00  0.00     0.016 A 
HETATM   13  C   LIG     1      16.585  32.820  14.620  1.00  0.00     0.048 A 
HETATM   14  C   LIG     1      16.464  33.050  16.003  1.00  0.00     0.028 A 
BRANCH  13  15
HETATM   15  C   LIG     1      17.719  33.439  13.842  1.00  0.00     0.417 C 
HETATM   16  F   LIG     1      17.596  34.818  13.809  1.00  0.00    -0.166 F 
HETATM   17  F   LIG     1      18.935  33.128  14.423  1.00  0.00    -0.166 F 
HETATM   18  F   LIG     1      17.699  32.955  12.547  1.00  0.00    -0.166 F 
ENDBRANCH  13  15
ENDBRANCH   3   9
BRANCH   8  19
HETATM   19  C   LIG     1      15.894  35.433  20.791  1.00  0.00    -0.021 A 
HETATM   20  C   LIG     1      17.182  35.971  20.629  1.00  0.00     0.012 A 
HETATM   21  C   LIG     1      17.523  37.185  21.234  1.00  0.00     0.001 A 
HETATM   22  C   LIG     1      16.583  37.869  22.008  1.00  0.00     0.000 A 
HETATM   23  C   LIG     1      15.302  37.341  22.181  1.00  0.00     0.001 A 
HETATM   24  C   LIG     1      14.957  36.128  21.578  1.00  0.00     0.012 A 
ENDBRANCH   8  19
TORSDOF 3
ENDMDL
MODEL 13
REMARK VINA RESULT:      -6.6     15.551     17.105
REMARK  3 active torsions:
REMARK  status: ('A' for Active; 'I' for Inactive)
REMARK    1  A    between atoms: C_3  and  C_4 
REMARK    2  A    between atoms: C_6  and  C_7 
REMARK    3  A    between atoms: C_18  and  C_19 
ROOT
HETATM    1  O   LIG     1      26.036  24.872  18.772  1.00  0.00    -0.286 OA
HETATM    2  C   LIG     1      26.681  23.789  18.710  1.00  0.00     0.196 A 
HETATM    3  C   LIG     1      27.952  23.761  18.105  1.00  0.00     0.041 A 
HETATM    4  C   LIG     1      28.675  22.559  18.110  1.00  0.00     0.106 A 
HETATM    5  N   LIG     1      28.151  21.428  18.666  1.00  0.00    -0.369 N 
HETATM    6  C   LIG     1      28.944  20.196  18.685  1.00  0.00     0.154 C 
HETATM    7  C   LIG     1      26.922  21.447  19.260  1.00  0.00     0.106 A 
HETATM    8  C   LIG     1      26.151  22.619  19.284  1.00  0.00     0.041 A 
ENDROOT
BRANCH   3   9
HETATM    9  C   LIG     1      28.542  24.972  17.479  1.00  0.00    -0.020 A 
HETATM   10  C   LIG     1      28.822  26.110  18.253  1.00  0.00     0.012 A 
HETATM   11  C   LIG     1      29.354  27.255  17.657  1.00  0.00     0.002 A 
HETATM   12  C   LIG     1      29.617  27.276  16.286  1.00  0.00     0.016 A 
HETATM   13  C   LIG     1      29.365  26.141  15.495  1.00  0.00     0.048 A 
HETATM   14  C   LIG     1      28.803  25.000  16.097  1.00  0.00     0.028 A 
BRANCH  13  15
HETATM   15  C   LIG     1      29.601  26.178  14.006  1.00  0.00     0.417 C 
HETATM   16  F   LIG     1      28.492  26.679  13.346  1.00  0.00    -0.166 F 
HETATM   17  F   LIG     1      30.684  26.984  13.703  1.00  0.00    -0.166 F 
HETATM   18  F   LIG     1      29.853  24.895  13.554  1.00  0.00    -0.166 F 
ENDBRANCH  13  15
ENDBRANCH   3   9
BRANCH   8  19
HETATM   19  C   LIG     1      24.811  22.604  19.924  1.00  0.00    -0.021 A 
HETATM   20  C   LIG     1      24.645  23.080  21.236  1.00  0.00     0.012 A 
HETATM   21  C   LIG     1      23.385  23.058  21.842  1.00  0.00     0.001 A 
HETATM   22  C   LIG     1      22.282  22.559  21.146  1.00  0.00     0.000 A 
HETATM   23  C   LIG     1      22.436  22.077  19.844  1.00  0.00     0.001 A 
HETATM   24  C   LIG     1      23.694  22.097  19.234  1.00  0.00     0.012 A 
ENDBRANCH   8  19
TORSDOF 3
ENDMDL
MODEL 14
REMARK VINA RESULT:      -6.5      2.750      4.504
REMARK  3 active torsions:
REMARK  status: ('A' for Active; 'I' for Inactive)
REMARK    1  A    between atoms: C_3  and  C_4 
REMARK    2  A    between atoms: C_6  and  C_7 
REMARK    3  A    between atoms: C_18  and  C_19 
ROOT
HETATM    1  O   LIG     1      16.350  34.627  17.824  1.00  0.00    -0.286 OA
HETATM    2  C   LIG     1      15.806  33.985  18.764  1.00  0.00     0.196 A 
HETATM    3  C   LIG     1      15.870  34.476  20.081  1.00  0.00     0.041 A 
HETATM    4  C   LIG     1      15.199  33.776  21.096  1.00  0.00     0.106 A 
HETATM    5  N   LIG     1      14.518  32.626  20.821  1.00  0.00    -0.369 N 
HETATM    6  C   LIG     1      13.802  31.936  21.897  1.00  0.00     0.154 C 
HETATM    7  C   LIG     1      14.447  32.145  19.546  1.00  0.00     0.106 A 
HETATM    8  C   LIG     1      15.098  32.800  18.490  1.00  0.00     0.041 A 
ENDROOT
BRANCH   3   9
HETATM    9  C   LIG     1      16.615  35.717  20.413  1.00  0.00    -0.020 A 
HETATM   10  C   LIG     1      17.588  36.222  19.533  1.00  0.00     0.012 A 
HETATM   11  C   LIG     1      18.303  37.375  19.859  1.00  0.00     0.002 A 
HETATM   12  C   LIG     1      18.056  38.040  21.061  1.00  0.00     0.016 A 
HETATM   13  C   LIG     1      17.073  37.566  21.947  1.00  0.00     0.048 A 
HETATM   14  C   LIG     1      16.374  36.387  21.625  1.00  0.00     0.028 A 
BRANCH  13  15
HETATM   15  C   LIG     1      16.838  38.253  23.269  1.00  0.00     0.417 C 
HETATM   16  F   LIG     1      16.769  39.625  23.103  1.00  0.00    -0.166 F 
HETATM   17  F   LIG     1      15.649  37.826  23.836  1.00  0.00    -0.166 F 
HETATM   18  F   LIG     1      17.880  37.955  24.128  1.00  0.00    -0.166 F 
ENDBRANCH  13  15
ENDBRANCH   3   9
BRANCH   8  19
HETATM   19  C   LIG     1      15.014  32.243  17.116  1.00  0.00    -0.021 A 
HETATM   20  C   LIG     1      15.956  32.613  16.140  1.00  0.00     0.012 A 
HETATM   21  C   LIG     1      15.872  32.094  14.844  1.00  0.00     0.001 A 
HETATM   22  C   LIG     1      14.847  31.207  14.510  1.00  0.00     0.000 A 
HETATM   23  C   LIG     1      13.901  30.838  15.469  1.00  0.00     0.001 A 
HETATM   24  C   LIG     1      13.981  31.353  16.766  1.00  0.00     0.012 A 
ENDBRANCH   8  19
TORSDOF 3
ENDMDL
MODEL 15
REMARK VINA RESULT:      -6.1     14.854     16.294
REMARK  3 active torsions:
REMARK  status: ('A' for Active; 'I' for Inactive)
REMARK    1  A    between atoms: C_3  and  C_4 
REMARK    2  A    between atoms: C_6  and  C_7 
REMARK    3  A    between atoms: C_18  and  C_19 
ROOT
HETATM    1  O   LIG     1      26.633  24.990  20.314  1.00  0.00    -0.286 OA
HETATM    2  C   LIG     1      26.996  24.084  19.514  1.00  0.00     0.196 A 
HETATM    3  C   LIG     1      26.299  22.862  19.471  1.00  0.00     0.041 A 
HETATM    4  C   LIG     1      26.682  21.899  18.525  1.00  0.00     0.106 A 
HETATM    5  N   LIG     1      27.728  22.127  17.678  1.00  0.00    -0.369 N 
HETATM    6  C   LIG     1      28.083  21.114  16.680  1.00  0.00     0.154 C 
HETATM    7  C   LIG     1      28.406  23.310  17.709  1.00  0.00     0.106 A 
HETATM    8  C   LIG     1      28.070  24.310  18.634  1.00  0.00     0.041 A 
ENDROOT
BRANCH   3   9
HETATM    9  C   LIG     1      25.167  22.581  20.390  1.00  0.00    -0.020 A 
HETATM   10  C   LIG     1      23.856  22.478  19.896  1.00  0.00     0.012 A 
HETATM   11  C   LIG     1      22.791  22.237  20.766  1.00  0.00     0.002 A 
HETATM   12  C   LIG     1      23.020  22.091  22.135  1.00  0.00     0.016 A 
HETATM   13  C   LIG     1      24.326  22.169  22.650  1.00  0.00     0.048 A 
HETATM   14  C   LIG     1      25.392  22.439  21.771  1.00  0.00     0.028 A 
BRANCH  13  15
HETATM   15  C   LIG     1      24.572  22.062  24.134  1.00  0.00     0.417 C 
HETATM   16  F   LIG     1      24.642  23.318  24.711  1.00  0.00    -0.166 F 
HETATM   17  F   LIG     1      23.550  21.360  24.748  1.00  0.00    -0.166 F 
HETATM   18  F   LIG     1      25.768  21.400  24.350  1.00  0.00    -0.166 F 
ENDBRANCH  13  15
ENDBRANCH   3   9
BRANCH   8  19
HETATM   19  C   LIG     1      28.838  25.582  18.653  1.00  0.00    -0.021 A 
HETATM   20  C   LIG     1      29.960  25.722  19.487  1.00  0.00     0.012 A 
HETATM   21  C   LIG     1      30.678  26.921  19.511  1.00  0.00     0.001 A 
HETATM   22  C   LIG     1      30.280  27.992  18.707  1.00  0.00     0.000 A 
HETATM   23  C   LIG     1      29.163  27.866  17.879  1.00  0.00     0.001 A 
HETATM   24  C   LIG     1      28.442  26.669  17.851  1.00  0.00     0.012 A 
ENDBRANCH   8  19
TORSDOF 3
ENDMDL
MODEL 16
REMARK VINA RESULT:      -6.1     15.245     16.649
REMARK  3 active torsions:
REMARK  status: ('A' for Active; 'I' for Inactive)
REMARK    1  A    between atoms: C_3  and  C_4 
REMARK    2  A    between atoms: C_6  and  C_7 
REMARK    3  A    between atoms: C_18  and  C_19 
ROOT
HETATM    1  O   LIG     1      25.859  24.359  18.888  1.00  0.00    -0.286 OA
HETATM    2  C   LIG     1      26.634  24.157  19.863  1.00  0.00     0.196 A 
HETATM    3  C   LIG     1      27.913  24.745  19.878  1.00  0.00     0.041 A 
HETATM    4  C   LIG     1      28.727  24.559  21.006  1.00  0.00     0.106 A 
HETATM    5  N   LIG     1      28.305  23.800  22.058  1.00  0.00    -0.369 N 
HETATM    6  C   LIG     1      29.166  23.651  23.234  1.00  0.00     0.154 C 
HETATM    7  C   LIG     1      27.064  23.231  22.054  1.00  0.00     0.106 A 
HETATM    8  C   LIG     1      26.206  23.380  20.955  1.00  0.00     0.041 A 
ENDROOT
BRANCH   3   9
HETATM    9  C   LIG     1      28.406  25.563  18.741  1.00  0.00    -0.020 A 
HETATM   10  C   LIG     1      28.484  26.962  18.850  1.00  0.00     0.012 A 
HETATM   11  C   LIG     1      28.925  27.730  17.771  1.00  0.00     0.002 A 
HETATM   12  C   LIG     1      29.297  27.114  16.575  1.00  0.00     0.016 A 
HETATM   13  C   LIG     1      29.248  25.714  16.450  1.00  0.00     0.048 A 
HETATM   14  C   LIG     1      28.776  24.948  17.532  1.00  0.00     0.028 A 
BRANCH  13  15
HETATM   15  C   LIG     1      29.602  25.049  15.144  1.00  0.00     0.417 C 
HETATM   16  F   LIG     1      30.383  23.927  15.361  1.00  0.00    -0.166 F 
HETATM   17  F   LIG     1      28.458  24.655  14.472  1.00  0.00    -0.166 F 
HETATM   18  F   LIG     1      30.305  25.941  14.355  1.00  0.00    -0.166 F 
ENDBRANCH  13  15
ENDBRANCH   3   9
BRANCH   8  19
HETATM   19  C   LIG     1      24.868  22.734  20.974  1.00  0.00    -0.021 A 
HETATM   20  C   LIG     1      24.680  21.473  20.384  1.00  0.00     0.012 A 
HETATM   21  C   LIG     1      23.419  20.868  20.395  1.00  0.00     0.001 A 
HETATM   22  C   LIG     1      22.335  21.519  20.990  1.00  0.00     0.000 A 
HETATM   23  C   LIG     1      22.510  22.776  21.574  1.00  0.00     0.001 A 
HETATM   24  C   LIG     1      23.768  23.384  21.565  1.00  0.00     0.012 A 
ENDBRANCH   8  19
TORSDOF 3
ENDMDL
MODEL 17
REMARK VINA RESULT:      -6.0     14.811     16.728
REMARK  3 active torsions:
REMARK  status: ('A' for Active; 'I' for Inactive)
REMARK    1  A    between atoms: C_3  and  C_4 
REMARK    2  A    between atoms: C_6  and  C_7 
REMARK    3  A    between atoms: C_18  and  C_19 
ROOT
HETATM    1  O   LIG     1      27.751  23.384  22.185  1.00  0.00    -0.286 OA
HETATM    2  C   LIG     1      26.509  23.272  21.988  1.00  0.00     0.196 A 
HETATM    3  C   LIG     1      25.984  23.451  20.695  1.00  0.00     0.041 A 
HETATM    4  C   LIG     1      24.609  23.254  20.492  1.00  0.00     0.106 A 
HETATM    5  N   LIG     1      23.788  22.922  21.531  1.00  0.00    -0.369 N 
HETATM    6  C   LIG     1      22.362  22.693  21.281  1.00  0.00     0.154 C 
HETATM    7  C   LIG     1      24.290  22.742  22.787  1.00  0.00     0.106 A 
HETATM    8  C   LIG     1      25.655  22.926  23.052  1.00  0.00     0.041 A 
ENDROOT
BRANCH   3   9
HETATM    9  C   LIG     1      26.850  23.826  19.548  1.00  0.00    -0.020 A 
HETATM   10  C   LIG     1      27.214  22.868  18.587  1.00  0.00     0.012 A 
HETATM   11  C   LIG     1      28.048  23.219  17.524  1.00  0.00     0.002 A 
HETATM   12  C   LIG     1      28.524  24.526  17.404  1.00  0.00     0.016 A 
HETATM   13  C   LIG     1      28.155  25.506  18.342  1.00  0.00     0.048 A 
HETATM   14  C   LIG     1      27.336  25.140  19.427  1.00  0.00     0.028 A 
BRANCH  13  15
HETATM   15  C   LIG     1      28.706  26.906  18.244  1.00  0.00     0.417 C 
HETATM   16  F   LIG     1      29.089  27.193  16.945  1.00  0.00    -0.166 F 
HETATM   17  F   LIG     1      27.754  27.833  18.629  1.00  0.00    -0.166 F 
HETATM   18  F   LIG     1      29.808  27.020  19.073  1.00  0.00    -0.166 F 
ENDBRANCH  13  15
ENDBRANCH   3   9
BRANCH   8  19
HETATM   19  C   LIG     1      26.169  22.737  24.433  1.00  0.00    -0.021 A 
HETATM   20  C   LIG     1      26.610  21.473  24.860  1.00  0.00     0.012 A 
HETATM   21  C   LIG     1      27.086  21.294  26.163  1.00  0.00     0.001 A 
HETATM   22  C   LIG     1      27.120  22.371  27.050  1.00  0.00     0.000 A 
HETATM   23  C   LIG     1      26.678  23.630  26.639  1.00  0.00     0.001 A 
HETATM   24  C   LIG     1      26.202  23.815  25.337  1.00  0.00     0.012 A 
ENDBRANCH   8  19
TORSDOF 3
ENDMDL
MODEL 18
REMARK VINA RESULT:      -6.0     15.260     17.952
REMARK  3 active torsions:
REMARK  status: ('A' for Active; 'I' for Inactive)
REMARK    1  A    between atoms: C_3  and  C_4 
REMARK    2  A    between atoms: C_6  and  C_7 
REMARK    3  A    between atoms: C_18  and  C_19 
ROOT
HETATM    1  O   LIG     1      25.265  21.536  25.189  1.00  0.00    -0.286 OA
HETATM    2  C   LIG     1      24.332  21.014  25.859  1.00  0.00     0.196 A 
HETATM    3  C   LIG     1      23.319  20.287  25.205  1.00  0.00     0.041 A 
HETATM    4  C   LIG     1      22.331  19.660  25.980  1.00  0.00     0.106 A 
HETATM    5  N   LIG     1      22.333  19.771  27.341  1.00  0.00    -0.369 N 
HETATM    6  C   LIG     1      21.306  19.077  28.123  1.00  0.00     0.154 C 
HETATM    7  C   LIG     1      23.314  20.468  27.983  1.00  0.00     0.106 A 
HETATM    8  C   LIG     1      24.327  21.118  27.262  1.00  0.00     0.041 A 
ENDROOT
BRANCH   3   9
HETATM    9  C   LIG     1      23.282  20.162  23.726  1.00  0.00    -0.020 A 
HETATM   10  C   LIG     1      23.539  18.926  23.109  1.00  0.00     0.012 A 
HETATM   11  C   LIG     1      23.528  18.817  21.717  1.00  0.00     0.002 A 
HETATM   12  C   LIG     1      23.257  19.935  20.926  1.00  0.00     0.016 A 
HETATM   13  C   LIG     1      22.976  21.177  21.522  1.00  0.00     0.048 A 
HETATM   14  C   LIG     1      23.016  21.287  22.924  1.00  0.00     0.028 A 
BRANCH  13  15
HETATM   15  C   LIG     1      22.732  22.398  20.670  1.00  0.00     0.417 C 
HETATM   16  F   LIG     1      21.627  23.098  21.122  1.00  0.00    -0.166 F 
HETATM   17  F   LIG     1      23.825  23.245  20.708  1.00  0.00    -0.166 F 
HETATM   18  F   LIG     1      22.512  22.004  19.363  1.00  0.00    -0.166 F 
ENDBRANCH  13  15
ENDBRANCH   3   9
BRANCH   8  19
HETATM   19  C   LIG     1      25.372  21.883  27.989  1.00  0.00    -0.021 A 
HETATM   20  C   LIG     1      25.554  23.254  27.738  1.00  0.00     0.012 A 
HETATM   21  C   LIG     1      26.543  23.972  28.417  1.00  0.00     0.001 A 
HETATM   22  C   LIG     1      27.362  23.328  29.347  1.00  0.00     0.000 A 
HETATM   23  C   LIG     1      27.195  21.964  29.599  1.00  0.00     0.001 A 
HETATM   24  C   LIG     1      26.207  21.242  28.923  1.00  0.00     0.012 A 
ENDBRANCH   8  19
TORSDOF 3
ENDMDL
MODEL 19
REMARK VINA RESULT:      -5.9     14.550     15.754
REMARK  3 active torsions:
REMARK  status: ('A' for Active; 'I' for Inactive)
REMARK    1  A    between atoms: C_3  and  C_4 
REMARK    2  A    between atoms: C_6  and  C_7 
REMARK    3  A    between atoms: C_18  and  C_19 
ROOT
HETATM    1  O   LIG     1      26.237  23.600  21.896  1.00  0.00    -0.286 OA
HETATM    2  C   LIG     1      25.487  23.027  21.059  1.00  0.00     0.196 A 
HETATM    3  C   LIG     1      24.470  22.160  21.503  1.00  0.00     0.041 A 
HETATM    4  C   LIG     1      23.608  21.589  20.554  1.00  0.00     0.106 A 
HETATM    5  N   LIG     1      23.765  21.843  19.222  1.00  0.00    -0.369 N 
HETATM    6  C   LIG     1      22.829  21.257  18.259  1.00  0.00     0.154 C 
HETATM    7  C   LIG     1      24.745  22.686  18.783  1.00  0.00     0.106 A 
HETATM    8  C   LIG     1      25.638  23.285  19.684  1.00  0.00     0.041 A 
ENDROOT
BRANCH   3   9
HETATM    9  C   LIG     1      24.284  21.853  22.944  1.00  0.00    -0.020 A 
HETATM   10  C   LIG     1      23.394  20.845  23.349  1.00  0.00     0.012 A 
HETATM   11  C   LIG     1      23.204  20.575  24.706  1.00  0.00     0.002 A 
HETATM   12  C   LIG     1      23.900  21.303  25.672  1.00  0.00     0.016 A 
HETATM   13  C   LIG     1      24.813  22.302  25.289  1.00  0.00     0.048 A 
HETATM   14  C   LIG     1      24.979  22.588  23.921  1.00  0.00     0.028 A 
BRANCH  13  15
HETATM   15  C   LIG     1      25.530  23.124  26.331  1.00  0.00     0.417 C 
HETATM   16  F   LIG     1      24.963  22.936  27.580  1.00  0.00    -0.166 F 
HETATM   17  F   LIG     1      26.864  22.764  26.403  1.00  0.00    -0.166 F 
HETATM   18  F   LIG     1      25.442  24.463  25.994  1.00  0.00    -0.166 F 
ENDBRANCH  13  15
ENDBRANCH   3   9
BRANCH   8  19
HETATM   19  C   LIG     1      26.704  24.185  19.174  1.00  0.00    -0.021 A 
HETATM   20  C   LIG     1      27.833  23.654  18.528  1.00  0.00     0.012 A 
HETATM   21  C   LIG     1      28.840  24.500  18.054  1.00  0.00     0.001 A 
HETATM   22  C   LIG     1      28.731  25.882  18.225  1.00  0.00     0.000 A 
HETATM   23  C   LIG     1      27.617  26.421  18.872  1.00  0.00     0.001 A 
HETATM   24  C   LIG     1      26.607  25.579  19.346  1.00  0.00     0.012 A 
ENDBRANCH   8  19
TORSDOF 3
ENDMDL
MODEL 20
REMARK VINA RESULT:      -5.9     15.108     16.800
REMARK  3 active torsions:
REMARK  status: ('A' for Active; 'I' for Inactive)
REMARK    1  A    between atoms: C_3  and  C_4 
REMARK    2  A    between atoms: C_6  and  C_7 
REMARK    3  A    between atoms: C_18  and  C_19 
ROOT
HETATM    1  O   LIG     1      27.268  23.046  21.131  1.00  0.00    -0.286 OA
HETATM    2  C   LIG     1      26.219  22.733  20.504  1.00  0.00     0.196 A 
HETATM    3  C   LIG     1      26.127  22.979  19.121  1.00  0.00     0.041 A 
HETATM    4  C   LIG     1      24.976  22.558  18.437  1.00  0.00     0.106 A 
HETATM    5  N   LIG     1      23.951  21.946  19.098  1.00  0.00    -0.369 N 
HETATM    6  C   LIG     1      22.777  21.490  18.350  1.00  0.00     0.154 C 
HETATM    7  C   LIG     1      24.035  21.699  20.438  1.00  0.00     0.106 A 
HETATM    8  C   LIG     1      25.159  22.098  21.176  1.00  0.00     0.041 A 
ENDROOT
BRANCH   3   9
HETATM    9  C   LIG     1      27.219  23.656  18.377  1.00  0.00    -0.020 A 
HETATM   10  C   LIG     1      28.031  22.932  17.488  1.00  0.00     0.012 A 
HETATM   11  C   LIG     1      29.073  23.566  16.808  1.00  0.00     0.002 A 
HETATM   12  C   LIG     1      29.313  24.927  17.003  1.00  0.00     0.016 A 
HETATM   13  C   LIG     1      28.500  25.677  17.871  1.00  0.00     0.048 A 
HETATM   14  C   LIG     1      27.469  25.025  18.574  1.00  0.00     0.028 A 
BRANCH  13  15
HETATM   15  C   LIG     1      28.787  27.136  18.122  1.00  0.00     0.417 C 
HETATM   16  F   LIG     1      27.694  27.760  18.696  1.00  0.00    -0.166 F 
HETATM   17  F   LIG     1      29.866  27.280  18.977  1.00  0.00    -0.166 F 
HETATM   18  F   LIG     1      29.079  27.755  16.920  1.00  0.00    -0.166 F 
ENDBRANCH  13  15
ENDBRANCH   3   9
BRANCH   8  19
HETATM   19  C   LIG     1      25.213  21.828  22.636  1.00  0.00    -0.021 A 
HETATM   20  C   LIG     1      24.796  22.806  23.555  1.00  0.00     0.012 A 
HETATM   21  C   LIG     1      24.855  22.556  24.930  1.00  0.00     0.001 A 
HETATM   22  C   LIG     1      25.333  21.330  25.398  1.00  0.00     0.000 A 
HETATM   23  C   LIG     1      25.756  20.353  24.494  1.00  0.00     0.001 A 
HETATM   24  C   LIG     1      25.699  20.599  23.119  1.00  0.00     0.012 A 
ENDBRANCH   8  19
TORSDOF 3
ENDMDL
