REMARK  3 active torsions:
REMARK  status: ('A' for Active; 'I' for Inactive)
REMARK    1  A    between atoms: C_3  and  C_4 
REMARK    2  A    between atoms: C_6  and  C_7 
REMARK    3  A    between atoms: C_18  and  C_19 
ROOT
HETATM    1  O   LIG     1      -0.501  -1.627   0.284  1.00  0.00    -0.286 OA
HETATM    2  C   LIG     1      -0.510  -0.370   0.174  1.00  0.00     0.196 A 
HETATM    3  C   LIG     1       0.702   0.346   0.193  1.00  0.00     0.041 A 
HETATM    4  C   LIG     1       0.667   1.736   0.001  1.00  0.00     0.106 A 
HETATM    5  N   LIG     1      -0.518   2.390  -0.174  1.00  0.00    -0.369 N 
HETATM    6  C   LIG     1      -0.518   3.837  -0.404  1.00  0.00     0.154 C 
HETATM    7  C   LIG     1      -1.697   1.703  -0.199  1.00  0.00     0.106 A 
HETATM    8  C   LIG     1      -1.726   0.313  -0.011  1.00  0.00     0.041 A 
ENDROOT
BRANCH   3   9
HETATM    9  C   LIG     1       2.005  -0.336   0.396  1.00  0.00    -0.020 A 
HETATM   10  C   LIG     1       2.185  -1.225   1.469  1.00  0.00     0.012 A 
HETATM   11  C   LIG     1       3.419  -1.846   1.671  1.00  0.00     0.002 A 
HETATM   12  C   LIG     1       4.484  -1.592   0.805  1.00  0.00     0.016 A 
HETATM   13  C   LIG     1       4.321  -0.723  -0.288  1.00  0.00     0.048 A 
HETATM   14  C   LIG     1       3.083  -0.079  -0.470  1.00  0.00     0.028 A 
BRANCH  13  15
HETATM   15  C   LIG     1       5.483  -0.408  -1.196  1.00  0.00     0.417 C 
HETATM   16  F   LIG     1       6.359  -1.478  -1.261  1.00  0.00    -0.166 F 
HETATM   17  F   LIG     1       5.040  -0.134  -2.478  1.00  0.00    -0.166 F 
HETATM   18  F   LIG     1       6.157   0.696  -0.706  1.00  0.00    -0.166 F 
ENDBRANCH  13  15
ENDBRANCH   3   9
BRANCH   8  19
HETATM   19  C   LIG     1      -3.027  -0.404  -0.028  1.00  0.00    -0.021 A 
HETATM   20  C   LIG     1      -3.954  -0.169  -1.058  1.00  0.00     0.012 A 
HETATM   21  C   LIG     1      -5.182  -0.838  -1.070  1.00  0.00     0.001 A 
HETATM   22  C   LIG     1      -5.497  -1.742  -0.053  1.00  0.00     0.000 A 
HETATM   23  C   LIG     1      -4.586  -1.978   0.979  1.00  0.00     0.001 A 
HETATM   24  C   LIG     1      -3.357  -1.312   0.995  1.00  0.00     0.012 A 
ENDBRANCH   8  19
TORSDOF 3
