REMARK  0 active torsions:
REMARK  status: ('A' for Active; 'I' for Inactive)
REMARK       I    between atoms: N_2  and  C_3 
REMARK       I    between atoms: C_3  and  N_4 
ROOT
HETATM    1  C   LIG     1      -1.383  -0.369  -0.175  1.00  0.00     0.151 C 
HETATM    2  N   LIG     1      -0.450   0.723  -0.427  1.00  0.00    -0.348 N 
HETATM    3  C   LIG     1       0.936   0.665  -0.064  1.00  0.00     0.313 C 
HETATM    4  N   LIG     1       1.493  -0.486   0.577  1.00  0.00    -0.352 N 
HETATM    5  O   LIG     1       1.680   1.650  -0.315  1.00  0.00    -0.248 OA
HETATM    6  H   LIG     1      -0.810   1.586  -0.893  1.00  0.00     0.163 HD
HETATM    7  H   LIG     1       0.913  -1.323   0.803  1.00  0.00     0.160 HD
HETATM    8  H   LIG     1       2.505  -0.502   0.830  1.00  0.00     0.160 HD
ENDROOT
TORSDOF 0
