MODEL 1
REMARK VINA RESULT:      -3.6      0.000      0.000
REMARK  0 active torsions:
REMARK  status: ('A' for Active; 'I' for Inactive)
REMARK       I    between atoms: N_2  and  C_3 
REMARK       I    between atoms: C_3  and  N_4 
ROOT
HETATM    1  C   LIG     1      18.160  34.969  26.207  1.00  0.00     0.151 C 
HETATM    2  N   LIG     1      17.133  35.821  25.619  1.00  0.00    -0.348 N 
HETATM    3  C   LIG     1      17.369  37.185  25.245  1.00  0.00     0.313 C 
HETATM    4  N   LIG     1      18.648  37.800  25.431  1.00  0.00    -0.352 N 
HETATM    5  O   LIG     1      16.430  37.858  24.742  1.00  0.00    -0.248 OA
HETATM    6  H   LIG     1      16.182  35.417  25.464  1.00  0.00     0.163 HD
HETATM    7  H   LIG     1      19.452  37.280  25.843  1.00  0.00     0.160 HD
HETATM    8  H   LIG     1      18.793  38.794  25.150  1.00  0.00     0.160 HD
ENDROOT
TORSDOF 0
ENDMDL
MODEL 2
REMARK VINA RESULT:      -3.4      5.825      6.102
REMARK  0 active torsions:
REMARK  status: ('A' for Active; 'I' for Inactive)
REMARK       I    between atoms: N_2  and  C_3 
REMARK       I    between atoms: C_3  and  N_4 
ROOT
HETATM    1  C   LIG     1      18.186  36.806  20.395  1.00  0.00     0.151 C 
HETATM    2  N   LIG     1      19.173  37.554  19.625  1.00  0.00    -0.348 N 
HETATM    3  C   LIG     1      19.611  38.871  19.986  1.00  0.00     0.313 C 
HETATM    4  N   LIG     1      19.095  39.539  21.141  1.00  0.00    -0.352 N 
HETATM    5  O   LIG     1      20.468  39.452  19.270  1.00  0.00    -0.248 OA
HETATM    6  H   LIG     1      19.579  37.107  18.772  1.00  0.00     0.163 HD
HETATM    7  H   LIG     1      18.385  39.094  21.761  1.00  0.00     0.160 HD
HETATM    8  H   LIG     1      19.431  40.497  21.381  1.00  0.00     0.160 HD
ENDROOT
TORSDOF 0
ENDMDL
MODEL 3
REMARK VINA RESULT:      -3.4      2.622      2.906
REMARK  0 active torsions:
REMARK  status: ('A' for Active; 'I' for Inactive)
REMARK       I    between atoms: N_2  and  C_3 
REMARK       I    between atoms: C_3  and  N_4 
ROOT
HETATM    1  C   LIG     1      16.724  35.680  22.360  1.00  0.00     0.151 C 
HETATM    2  N   LIG     1      17.102  36.485  23.515  1.00  0.00    -0.348 N 
HETATM    3  C   LIG     1      16.419  37.690  23.885  1.00  0.00     0.313 C 
HETATM    4  N   LIG     1      15.309  38.182  23.128  1.00  0.00    -0.352 N 
HETATM    5  O   LIG     1      16.805  38.331  24.898  1.00  0.00    -0.248 OA
HETATM    6  H   LIG     1      17.908  36.167  24.100  1.00  0.00     0.163 HD
HETATM    7  H   LIG     1      14.957  37.682  22.282  1.00  0.00     0.160 HD
HETATM    8  H   LIG     1      14.829  39.061  23.419  1.00  0.00     0.160 HD
ENDROOT
TORSDOF 0
ENDMDL
MODEL 4
REMARK VINA RESULT:      -3.2      1.964      2.448
REMARK  0 active torsions:
REMARK  status: ('A' for Active; 'I' for Inactive)
REMARK       I    between atoms: N_2  and  C_3 
REMARK       I    between atoms: C_3  and  N_4 
ROOT
HETATM    1  C   LIG     1      17.752  37.261  25.745  1.00  0.00     0.151 C 
HETATM    2  N   LIG     1      16.873  38.087  24.926  1.00  0.00    -0.348 N 
HETATM    3  C   LIG     1      16.445  37.707  23.611  1.00  0.00     0.313 C 
HETATM    4  N   LIG     1      16.862  36.474  23.017  1.00  0.00    -0.352 N 
HETATM    5  O   LIG     1      15.685  38.475  22.965  1.00  0.00    -0.248 OA
HETATM    6  H   LIG     1      16.542  38.998  25.317  1.00  0.00     0.163 HD
HETATM    7  H   LIG     1      17.491  35.809  23.517  1.00  0.00     0.160 HD
HETATM    8  H   LIG     1      16.535  36.221  22.059  1.00  0.00     0.160 HD
ENDROOT
TORSDOF 0
ENDMDL
MODEL 5
REMARK VINA RESULT:      -3.2      8.119      8.553
REMARK  0 active torsions:
REMARK  status: ('A' for Active; 'I' for Inactive)
REMARK       I    between atoms: N_2  and  C_3 
REMARK       I    between atoms: C_3  and  N_4 
ROOT
HETATM    1  C   LIG     1      14.358  32.643  16.936  1.00  0.00     0.151 C 
HETATM    2  N   LIG     1      15.187  33.214  17.992  1.00  0.00    -0.348 N 
HETATM    3  C   LIG     1      15.204  32.705  19.332  1.00  0.00     0.313 C 
HETATM    4  N   LIG     1      14.396  31.589  19.718  1.00  0.00    -0.352 N 
HETATM    5  O   LIG     1      15.948  33.252  20.189  1.00  0.00    -0.248 OA
HETATM    6  H   LIG     1      15.795  34.031  17.759  1.00  0.00     0.163 HD
HETATM    7  H   LIG     1      13.767  31.107  19.041  1.00  0.00     0.160 HD
HETATM    8  H   LIG     1      14.429  31.239  20.700  1.00  0.00     0.160 HD
ENDROOT
TORSDOF 0
ENDMDL
MODEL 6
REMARK VINA RESULT:      -3.2      6.158      6.487
REMARK  0 active torsions:
REMARK  status: ('A' for Active; 'I' for Inactive)
REMARK       I    between atoms: N_2  and  C_3 
REMARK       I    between atoms: C_3  and  N_4 
ROOT
HETATM    1  C   LIG     1      14.955  31.906  19.565  1.00  0.00     0.151 C 
HETATM    2  N   LIG     1      15.807  33.043  19.896  1.00  0.00    -0.348 N 
HETATM    3  C   LIG     1      15.426  34.056  20.836  1.00  0.00     0.313 C 
HETATM    4  N   LIG     1      14.168  34.010  21.516  1.00  0.00    -0.352 N 
HETATM    5  O   LIG     1      16.217  35.008  21.069  1.00  0.00    -0.248 OA
HETATM    6  H   LIG     1      16.736  33.121  19.424  1.00  0.00     0.163 HD
HETATM    7  H   LIG     1      13.484  33.240  21.353  1.00  0.00     0.160 HD
HETATM    8  H   LIG     1      13.916  34.760  22.196  1.00  0.00     0.160 HD
ENDROOT
TORSDOF 0
ENDMDL
MODEL 7
REMARK VINA RESULT:      -3.2      1.994      2.530
REMARK  0 active torsions:
REMARK  status: ('A' for Active; 'I' for Inactive)
REMARK       I    between atoms: N_2  and  C_3 
REMARK       I    between atoms: C_3  and  N_4 
ROOT
HETATM    1  C   LIG     1      16.927  37.704  24.355  1.00  0.00     0.151 C 
HETATM    2  N   LIG     1      17.178  36.350  24.834  1.00  0.00    -0.348 N 
HETATM    3  C   LIG     1      18.086  36.056  25.905  1.00  0.00     0.313 C 
HETATM    4  N   LIG     1      18.809  37.092  26.577  1.00  0.00    -0.352 N 
HETATM    5  O   LIG     1      18.250  34.860  26.263  1.00  0.00    -0.248 OA
HETATM    6  H   LIG     1      16.673  35.559  24.375  1.00  0.00     0.163 HD
HETATM    7  H   LIG     1      18.703  38.095  26.313  1.00  0.00     0.160 HD
HETATM    8  H   LIG     1      19.463  36.850  27.353  1.00  0.00     0.160 HD
ENDROOT
TORSDOF 0
ENDMDL
MODEL 8
REMARK VINA RESULT:      -3.1      9.255      9.506
REMARK  0 active torsions:
REMARK  status: ('A' for Active; 'I' for Inactive)
REMARK       I    between atoms: N_2  and  C_3 
REMARK       I    between atoms: C_3  and  N_4 
ROOT
HETATM    1  C   LIG     1      13.052  31.669  16.770  1.00  0.00     0.151 C 
HETATM    2  N   LIG     1      13.780  31.890  18.014  1.00  0.00    -0.348 N 
HETATM    3  C   LIG     1      15.056  32.543  18.067  1.00  0.00     0.313 C 
HETATM    4  N   LIG     1      15.698  33.024  16.883  1.00  0.00    -0.352 N 
HETATM    5  O   LIG     1      15.623  32.696  19.181  1.00  0.00    -0.248 OA
HETATM    6  H   LIG     1      13.351  31.555  18.907  1.00  0.00     0.163 HD
HETATM    7  H   LIG     1      15.264  32.917  15.941  1.00  0.00     0.160 HD
HETATM    8  H   LIG     1      16.626  33.496  16.950  1.00  0.00     0.160 HD
ENDROOT
TORSDOF 0
ENDMDL
MODEL 9
REMARK VINA RESULT:      -3.1      9.191      9.386
REMARK  0 active torsions:
REMARK  status: ('A' for Active; 'I' for Inactive)
REMARK       I    between atoms: N_2  and  C_3 
REMARK       I    between atoms: C_3  and  N_4 
ROOT
HETATM    1  C   LIG     1      14.045  31.889  17.381  1.00  0.00     0.151 C 
HETATM    2  N   LIG     1      14.819  32.774  16.518  1.00  0.00    -0.348 N 
HETATM    3  C   LIG     1      15.416  33.992  16.984  1.00  0.00     0.313 C 
HETATM    4  N   LIG     1      15.286  34.415  18.344  1.00  0.00    -0.352 N 
HETATM    5  O   LIG     1      16.070  34.705  16.178  1.00  0.00    -0.248 OA
HETATM    6  H   LIG     1      14.941  32.508  15.515  1.00  0.00     0.163 HD
HETATM    7  H   LIG     1      14.753  33.855  19.045  1.00  0.00     0.160 HD
HETATM    8  H   LIG     1      15.731  35.305  18.657  1.00  0.00     0.160 HD
ENDROOT
TORSDOF 0
ENDMDL
MODEL 10
REMARK VINA RESULT:      -3.1      8.613      8.976
REMARK  0 active torsions:
REMARK  status: ('A' for Active; 'I' for Inactive)
REMARK       I    between atoms: N_2  and  C_3 
REMARK       I    between atoms: C_3  and  N_4 
ROOT
HETATM    1  C   LIG     1      15.367  33.081  20.127  1.00  0.00     0.151 C 
HETATM    2  N   LIG     1      15.400  33.330  18.690  1.00  0.00    -0.348 N 
HETATM    3  C   LIG     1      14.666  32.540  17.744  1.00  0.00     0.313 C 
HETATM    4  N   LIG     1      13.846  31.445  18.161  1.00  0.00    -0.352 N 
HETATM    5  O   LIG     1      14.745  32.818  16.518  1.00  0.00    -0.248 OA
HETATM    6  H   LIG     1      15.985  34.119  18.336  1.00  0.00     0.163 HD
HETATM    7  H   LIG     1      13.752  31.181  19.166  1.00  0.00     0.160 HD
HETATM    8  H   LIG     1      13.323  30.887  17.452  1.00  0.00     0.160 HD
ENDROOT
TORSDOF 0
ENDMDL
MODEL 11
REMARK VINA RESULT:      -3.1     15.175     15.499
REMARK  0 active torsions:
REMARK  status: ('A' for Active; 'I' for Inactive)
REMARK       I    between atoms: N_2  and  C_3 
REMARK       I    between atoms: C_3  and  N_4 
ROOT
HETATM    1  C   LIG     1      15.313  28.323  13.695  1.00  0.00     0.151 C 
HETATM    2  N   LIG     1      14.255  27.351  13.446  1.00  0.00    -0.348 N 
HETATM    3  C   LIG     1      12.864  27.648  13.628  1.00  0.00     0.313 C 
HETATM    4  N   LIG     1      12.427  28.935  14.074  1.00  0.00    -0.352 N 
HETATM    5  O   LIG     1      12.008  26.755  13.392  1.00  0.00    -0.248 OA
HETATM    6  H   LIG     1      14.525  26.396  13.119  1.00  0.00     0.163 HD
HETATM    7  H   LIG     1      13.102  29.702  14.282  1.00  0.00     0.160 HD
HETATM    8  H   LIG     1      11.408  29.124  14.198  1.00  0.00     0.160 HD
ENDROOT
TORSDOF 0
ENDMDL
MODEL 12
REMARK VINA RESULT:      -3.0      5.111      5.626
REMARK  0 active torsions:
REMARK  status: ('A' for Active; 'I' for Inactive)
REMARK       I    between atoms: N_2  and  C_3 
REMARK       I    between atoms: C_3  and  N_4 
ROOT
HETATM    1  C   LIG     1      16.657  36.225  22.209  1.00  0.00     0.151 C 
HETATM    2  N   LIG     1      16.746  35.196  21.179  1.00  0.00    -0.348 N 
HETATM    3  C   LIG     1      15.649  34.339  20.836  1.00  0.00     0.313 C 
HETATM    4  N   LIG     1      14.383  34.445  21.493  1.00  0.00    -0.352 N 
HETATM    5  O   LIG     1      15.803  33.472  19.935  1.00  0.00    -0.248 OA
HETATM    6  H   LIG     1      17.651  35.079  20.671  1.00  0.00     0.163 HD
HETATM    7  H   LIG     1      14.212  35.148  22.245  1.00  0.00     0.160 HD
HETATM    8  H   LIG     1      13.601  33.809  21.224  1.00  0.00     0.160 HD
ENDROOT
TORSDOF 0
ENDMDL
MODEL 13
REMARK VINA RESULT:      -3.0      2.958      3.822
REMARK  0 active torsions:
REMARK  status: ('A' for Active; 'I' for Inactive)
REMARK       I    between atoms: N_2  and  C_3 
REMARK       I    between atoms: C_3  and  N_4 
ROOT
HETATM    1  C   LIG     1      18.110  38.663  21.355  1.00  0.00     0.151 C 
HETATM    2  N   LIG     1      17.238  38.859  22.507  1.00  0.00    -0.348 N 
HETATM    3  C   LIG     1      16.657  37.772  23.240  1.00  0.00     0.313 C 
HETATM    4  N   LIG     1      16.904  36.410  22.878  1.00  0.00    -0.352 N 
HETATM    5  O   LIG     1      15.913  38.021  24.226  1.00  0.00    -0.248 OA
HETATM    6  H   LIG     1      17.027  39.836  22.810  1.00  0.00     0.163 HD
HETATM    7  H   LIG     1      17.513  36.159  22.070  1.00  0.00     0.160 HD
HETATM    8  H   LIG     1      16.469  35.638  23.429  1.00  0.00     0.160 HD
ENDROOT
TORSDOF 0
ENDMDL
MODEL 14
REMARK VINA RESULT:      -2.9     11.549     11.891
REMARK  0 active torsions:
REMARK  status: ('A' for Active; 'I' for Inactive)
REMARK       I    between atoms: N_2  and  C_3 
REMARK       I    between atoms: C_3  and  N_4 
ROOT
HETATM    1  C   LIG     1      14.333  30.065  14.410  1.00  0.00     0.151 C 
HETATM    2  N   LIG     1      14.532  30.865  15.613  1.00  0.00    -0.348 N 
HETATM    3  C   LIG     1      13.558  30.952  16.662  1.00  0.00     0.313 C 
HETATM    4  N   LIG     1      12.315  30.248  16.588  1.00  0.00    -0.352 N 
HETATM    5  O   LIG     1      13.803  31.664  17.671  1.00  0.00    -0.248 OA
HETATM    6  H   LIG     1      15.425  31.398  15.713  1.00  0.00     0.163 HD
HETATM    7  H   LIG     1      12.072  29.647  15.771  1.00  0.00     0.160 HD
HETATM    8  H   LIG     1      11.625  30.328  17.366  1.00  0.00     0.160 HD
ENDROOT
TORSDOF 0
ENDMDL
MODEL 15
REMARK VINA RESULT:      -2.9      4.815      5.061
REMARK  0 active torsions:
REMARK  status: ('A' for Active; 'I' for Inactive)
REMARK       I    between atoms: N_2  and  C_3 
REMARK       I    between atoms: C_3  and  N_4 
ROOT
HETATM    1  C   LIG     1      19.056  36.998  19.594  1.00  0.00     0.151 C 
HETATM    2  N   LIG     1      18.143  37.372  20.669  1.00  0.00    -0.348 N 
HETATM    3  C   LIG     1      18.145  38.670  21.279  1.00  0.00     0.313 C 
HETATM    4  N   LIG     1      19.057  39.690  20.863  1.00  0.00    -0.352 N 
HETATM    5  O   LIG     1      17.325  38.917  22.203  1.00  0.00    -0.248 OA
HETATM    6  H   LIG     1      17.458  36.660  21.008  1.00  0.00     0.163 HD
HETATM    7  H   LIG     1      19.752  39.527  20.102  1.00  0.00     0.160 HD
HETATM    8  H   LIG     1      19.037  40.625  21.324  1.00  0.00     0.160 HD
ENDROOT
TORSDOF 0
ENDMDL
MODEL 16
REMARK VINA RESULT:      -2.8     10.002     10.285
REMARK  0 active torsions:
REMARK  status: ('A' for Active; 'I' for Inactive)
REMARK       I    between atoms: N_2  and  C_3 
REMARK       I    between atoms: C_3  and  N_4 
ROOT
HETATM    1  C   LIG     1      15.528  31.645  14.980  1.00  0.00     0.151 C 
HETATM    2  N   LIG     1      15.945  32.873  15.646  1.00  0.00    -0.348 N 
HETATM    3  C   LIG     1      15.169  33.508  16.671  1.00  0.00     0.313 C 
HETATM    4  N   LIG     1      13.921  32.964  17.108  1.00  0.00    -0.352 N 
HETATM    5  O   LIG     1      15.597  34.568  17.200  1.00  0.00    -0.248 OA
HETATM    6  H   LIG     1      16.851  33.309  15.361  1.00  0.00     0.163 HD
HETATM    7  H   LIG     1      13.530  32.088  16.697  1.00  0.00     0.160 HD
HETATM    8  H   LIG     1      13.376  33.445  17.856  1.00  0.00     0.160 HD
ENDROOT
TORSDOF 0
ENDMDL
MODEL 17
REMARK VINA RESULT:      -2.8     18.309     18.636
REMARK  0 active torsions:
REMARK  status: ('A' for Active; 'I' for Inactive)
REMARK       I    between atoms: N_2  and  C_3 
REMARK       I    between atoms: C_3  and  N_4 
ROOT
HETATM    1  C   LIG     1      12.552  24.644  10.010  1.00  0.00     0.151 C 
HETATM    2  N   LIG     1      11.578  24.879  11.070  1.00  0.00    -0.348 N 
HETATM    3  C   LIG     1      11.803  25.799  12.147  1.00  0.00     0.313 C 
HETATM    4  N   LIG     1      13.015  26.551  12.246  1.00  0.00    -0.352 N 
HETATM    5  O   LIG     1      10.913  25.947  13.026  1.00  0.00    -0.248 OA
HETATM    6  H   LIG     1      10.677  24.352  11.042  1.00  0.00     0.163 HD
HETATM    7  H   LIG     1      13.778  26.459  11.540  1.00  0.00     0.160 HD
HETATM    8  H   LIG     1      13.153  27.214  13.040  1.00  0.00     0.160 HD
ENDROOT
TORSDOF 0
ENDMDL
MODEL 18
REMARK VINA RESULT:      -2.7     10.712     10.983
REMARK  0 active torsions:
REMARK  status: ('A' for Active; 'I' for Inactive)
REMARK       I    between atoms: N_2  and  C_3 
REMARK       I    between atoms: C_3  and  N_4 
ROOT
HETATM    1  C   LIG     1      14.569  32.844  16.865  1.00  0.00     0.151 C 
HETATM    2  N   LIG     1      16.006  32.875  16.619  1.00  0.00    -0.348 N 
HETATM    3  C   LIG     1      16.598  32.413  15.398  1.00  0.00     0.313 C 
HETATM    4  N   LIG     1      15.802  31.886  14.333  1.00  0.00    -0.352 N 
HETATM    5  O   LIG     1      17.849  32.471  15.260  1.00  0.00    -0.248 OA
HETATM    6  H   LIG     1      16.630  33.251  17.368  1.00  0.00     0.163 HD
HETATM    7  H   LIG     1      14.763  31.820  14.405  1.00  0.00     0.160 HD
HETATM    8  H   LIG     1      16.259  31.557  13.455  1.00  0.00     0.160 HD
ENDROOT
TORSDOF 0
ENDMDL
MODEL 19
REMARK VINA RESULT:      -2.7     15.371     15.677
REMARK  0 active torsions:
REMARK  status: ('A' for Active; 'I' for Inactive)
REMARK       I    between atoms: N_2  and  C_3 
REMARK       I    between atoms: C_3  and  N_4 
ROOT
HETATM    1  C   LIG     1      11.691  26.507  12.612  1.00  0.00     0.151 C 
HETATM    2  N   LIG     1      11.872  27.766  13.326  1.00  0.00    -0.348 N 
HETATM    3  C   LIG     1      13.154  28.239  13.760  1.00  0.00     0.313 C 
HETATM    4  N   LIG     1      14.349  27.491  13.514  1.00  0.00    -0.352 N 
HETATM    5  O   LIG     1      13.231  29.337  14.372  1.00  0.00    -0.248 OA
HETATM    6  H   LIG     1      11.029  28.347  13.529  1.00  0.00     0.163 HD
HETATM    7  H   LIG     1      14.331  26.578  13.011  1.00  0.00     0.160 HD
HETATM    8  H   LIG     1      15.269  27.859  13.841  1.00  0.00     0.160 HD
ENDROOT
TORSDOF 0
ENDMDL
MODEL 20
REMARK VINA RESULT:      -2.7      4.801      5.034
REMARK  0 active torsions:
REMARK  status: ('A' for Active; 'I' for Inactive)
REMARK       I    between atoms: N_2  and  C_3 
REMARK       I    between atoms: C_3  and  N_4 
ROOT
HETATM    1  C   LIG     1      15.598  33.760  20.354  1.00  0.00     0.151 C 
HETATM    2  N   LIG     1      16.321  35.010  20.153  1.00  0.00    -0.348 N 
HETATM    3  C   LIG     1      16.996  35.701  21.213  1.00  0.00     0.313 C 
HETATM    4  N   LIG     1      16.998  35.197  22.551  1.00  0.00    -0.352 N 
HETATM    5  O   LIG     1      17.600  36.777  20.959  1.00  0.00    -0.248 OA
HETATM    6  H   LIG     1      16.347  35.419  19.192  1.00  0.00     0.163 HD
HETATM    7  H   LIG     1      16.511  34.310  22.804  1.00  0.00     0.160 HD
HETATM    8  H   LIG     1      17.497  35.719  23.303  1.00  0.00     0.160 HD
ENDROOT
TORSDOF 0
ENDMDL
