REMARK  1 active torsions:
REMARK  status: ('A' for Active; 'I' for Inactive)
REMARK       I    between atoms: N_1  and  C_2 
REMARK    1  A    between atoms: C_2  and  O_3 
ROOT
HETATM    1  N   LIG     1       2.026   0.259  -0.248  1.00  0.00    -0.346 N 
HETATM    2  C   LIG     1       0.633   0.437  -0.007  1.00  0.00     0.357 C 
HETATM    3  O   LIG     1       0.208   1.550   0.407  1.00  0.00    -0.239 OA
HETATM    4  H   LIG     1       2.386  -0.659  -0.592  1.00  0.00     0.161 HD
HETATM    5  H   LIG     1       2.697   1.042  -0.085  1.00  0.00     0.161 HD
ENDROOT
BRANCH   2   6
HETATM    6  O   LIG     1      -0.247  -0.625  -0.232  1.00  0.00    -0.309 OA
HETATM    7  C   LIG     1      -1.648  -0.517  -0.012  1.00  0.00     0.215 C 
ENDBRANCH   2   6
TORSDOF 1
