MODEL 1
REMARK VINA RESULT:      -3.5      0.000      0.000
REMARK  1 active torsions:
REMARK  status: ('A' for Active; 'I' for Inactive)
REMARK    1  A    between atoms: O_2  and  C_3 
ROOT
HETATM    1  C   LIG     1      17.507  35.812  25.414  1.00  0.00     0.112 C 
HETATM    2  C   LIG     1      18.265  34.829  26.322  1.00  0.00     0.039 C 
HETATM    3  C   LIG     1      17.171  35.196  24.048  1.00  0.00     0.039 C 
ENDROOT
BRANCH   1   4
HETATM    4  O   LIG     1      18.127  37.088  25.298  1.00  0.00    -0.391 OA
HETATM    5  C   LIG     1      17.216  38.125  24.993  1.00  0.00     0.202 C 
ENDBRANCH   1   4
TORSDOF 1
ENDMDL
MODEL 2
REMARK VINA RESULT:      -3.4      2.308      3.198
REMARK  1 active torsions:
REMARK  status: ('A' for Active; 'I' for Inactive)
REMARK    1  A    between atoms: O_2  and  C_3 
ROOT
HETATM    1  C   LIG     1      16.306  37.751  22.973  1.00  0.00     0.112 C 
HETATM    2  C   LIG     1      16.803  36.333  22.644  1.00  0.00     0.039 C 
HETATM    3  C   LIG     1      17.186  38.835  22.335  1.00  0.00     0.039 C 
ENDROOT
BRANCH   1   4
HETATM    4  O   LIG     1      16.083  37.976  24.361  1.00  0.00    -0.391 OA
HETATM    5  C   LIG     1      17.275  37.995  25.120  1.00  0.00     0.202 C 
ENDBRANCH   1   4
TORSDOF 1
ENDMDL
MODEL 3
REMARK VINA RESULT:      -3.3      2.268      3.237
REMARK  1 active torsions:
REMARK  status: ('A' for Active; 'I' for Inactive)
REMARK    1  A    between atoms: O_2  and  C_3 
ROOT
HETATM    1  C   LIG     1      17.020  37.700  23.222  1.00  0.00     0.112 C 
HETATM    2  C   LIG     1      17.081  38.967  22.351  1.00  0.00     0.039 C 
HETATM    3  C   LIG     1      16.457  36.496  22.452  1.00  0.00     0.039 C 
ENDROOT
BRANCH   1   4
HETATM    4  O   LIG     1      16.377  37.894  24.477  1.00  0.00    -0.391 OA
HETATM    5  C   LIG     1      17.284  37.980  25.559  1.00  0.00     0.202 C 
ENDBRANCH   1   4
TORSDOF 1
ENDMDL
MODEL 4
REMARK VINA RESULT:      -3.2      1.461      1.548
REMARK  1 active torsions:
REMARK  status: ('A' for Active; 'I' for Inactive)
REMARK    1  A    between atoms: O_2  and  C_3 
ROOT
HETATM    1  C   LIG     1      17.214  36.990  25.214  1.00  0.00     0.112 C 
HETATM    2  C   LIG     1      18.473  36.822  26.082  1.00  0.00     0.039 C 
HETATM    3  C   LIG     1      17.179  35.994  24.047  1.00  0.00     0.039 C 
ENDROOT
BRANCH   1   4
HETATM    4  O   LIG     1      16.978  38.330  24.795  1.00  0.00    -0.391 OA
HETATM    5  C   LIG     1      17.223  38.534  23.418  1.00  0.00     0.202 C 
ENDBRANCH   1   4
TORSDOF 1
ENDMDL
MODEL 5
REMARK VINA RESULT:      -3.1      8.534      9.755
REMARK  1 active torsions:
REMARK  status: ('A' for Active; 'I' for Inactive)
REMARK    1  A    between atoms: O_2  and  C_3 
ROOT
HETATM    1  C   LIG     1      13.825  31.865  17.211  1.00  0.00     0.112 C 
HETATM    2  C   LIG     1      13.238  30.844  16.222  1.00  0.00     0.039 C 
HETATM    3  C   LIG     1      14.991  32.657  16.600  1.00  0.00     0.039 C 
ENDROOT
BRANCH   1   4
HETATM    4  O   LIG     1      14.146  31.317  18.484  1.00  0.00    -0.391 OA
HETATM    5  C   LIG     1      15.034  32.125  19.230  1.00  0.00     0.202 C 
ENDBRANCH   1   4
TORSDOF 1
ENDMDL
MODEL 6
REMARK VINA RESULT:      -3.1      4.978      5.926
REMARK  1 active torsions:
REMARK  status: ('A' for Active; 'I' for Inactive)
REMARK    1  A    between atoms: O_2  and  C_3 
ROOT
HETATM    1  C   LIG     1      18.904  38.255  20.008  1.00  0.00     0.112 C 
HETATM    2  C   LIG     1      20.270  38.788  19.543  1.00  0.00     0.039 C 
HETATM    3  C   LIG     1      18.460  38.884  21.337  1.00  0.00     0.039 C 
ENDROOT
BRANCH   1   4
HETATM    4  O   LIG     1      18.811  36.835  20.019  1.00  0.00    -0.391 OA
HETATM    5  C   LIG     1      17.666  36.357  20.696  1.00  0.00     0.202 C 
ENDBRANCH   1   4
TORSDOF 1
ENDMDL
MODEL 7
REMARK VINA RESULT:      -3.0      4.335      4.961
REMARK  1 active torsions:
REMARK  status: ('A' for Active; 'I' for Inactive)
REMARK    1  A    between atoms: O_2  and  C_3 
ROOT
HETATM    1  C   LIG     1      18.031  37.212  20.444  1.00  0.00     0.112 C 
HETATM    2  C   LIG     1      17.388  35.985  21.112  1.00  0.00     0.039 C 
HETATM    3  C   LIG     1      19.229  36.829  19.562  1.00  0.00     0.039 C 
ENDROOT
BRANCH   1   4
HETATM    4  O   LIG     1      18.336  38.268  21.348  1.00  0.00    -0.391 OA
HETATM    5  C   LIG     1      18.925  39.388  20.717  1.00  0.00     0.202 C 
ENDBRANCH   1   4
TORSDOF 1
ENDMDL
MODEL 8
REMARK VINA RESULT:      -3.0      2.464      3.664
REMARK  1 active torsions:
REMARK  status: ('A' for Active; 'I' for Inactive)
REMARK    1  A    between atoms: O_2  and  C_3 
ROOT
HETATM    1  C   LIG     1      16.687  37.767  23.724  1.00  0.00     0.112 C 
HETATM    2  C   LIG     1      16.932  38.899  22.711  1.00  0.00     0.039 C 
HETATM    3  C   LIG     1      17.351  38.051  25.079  1.00  0.00     0.039 C 
ENDROOT
BRANCH   1   4
HETATM    4  O   LIG     1      16.997  36.470  23.225  1.00  0.00    -0.391 OA
HETATM    5  C   LIG     1      16.950  36.391  21.815  1.00  0.00     0.202 C 
ENDBRANCH   1   4
TORSDOF 1
ENDMDL
MODEL 9
REMARK VINA RESULT:      -3.0      6.494      7.706
REMARK  1 active torsions:
REMARK  status: ('A' for Active; 'I' for Inactive)
REMARK    1  A    between atoms: O_2  and  C_3 
ROOT
HETATM    1  C   LIG     1      15.247  32.234  18.760  1.00  0.00     0.112 C 
HETATM    2  C   LIG     1      14.238  32.090  17.609  1.00  0.00     0.039 C 
HETATM    3  C   LIG     1      14.838  31.417  19.994  1.00  0.00     0.039 C 
ENDROOT
BRANCH   1   4
HETATM    4  O   LIG     1      15.568  33.583  19.081  1.00  0.00    -0.391 OA
HETATM    5  C   LIG     1      15.626  33.825  20.473  1.00  0.00     0.202 C 
ENDBRANCH   1   4
TORSDOF 1
ENDMDL
MODEL 10
REMARK VINA RESULT:      -3.0      4.452      5.273
REMARK  1 active torsions:
REMARK  status: ('A' for Active; 'I' for Inactive)
REMARK    1  A    between atoms: O_2  and  C_3 
ROOT
HETATM    1  C   LIG     1      18.708  38.013  20.645  1.00  0.00     0.112 C 
HETATM    2  C   LIG     1      18.842  39.435  20.075  1.00  0.00     0.039 C 
HETATM    3  C   LIG     1      18.956  36.936  19.579  1.00  0.00     0.039 C 
ENDROOT
BRANCH   1   4
HETATM    4  O   LIG     1      17.503  37.794  21.371  1.00  0.00    -0.391 OA
HETATM    5  C   LIG     1      17.314  38.715  22.427  1.00  0.00     0.202 C 
ENDBRANCH   1   4
TORSDOF 1
ENDMDL
MODEL 11
REMARK VINA RESULT:      -2.9      6.691      7.795
REMARK  1 active torsions:
REMARK  status: ('A' for Active; 'I' for Inactive)
REMARK    1  A    between atoms: O_2  and  C_3 
ROOT
HETATM    1  C   LIG     1      15.052  32.616  19.395  1.00  0.00     0.112 C 
HETATM    2  C   LIG     1      15.674  33.637  20.362  1.00  0.00     0.039 C 
HETATM    3  C   LIG     1      14.913  31.226  20.032  1.00  0.00     0.039 C 
ENDROOT
BRANCH   1   4
HETATM    4  O   LIG     1      15.682  32.571  18.119  1.00  0.00    -0.391 OA
HETATM    5  C   LIG     1      14.893  33.131  17.089  1.00  0.00     0.202 C 
ENDBRANCH   1   4
TORSDOF 1
ENDMDL
MODEL 12
REMARK VINA RESULT:      -2.9      8.229      9.244
REMARK  1 active torsions:
REMARK  status: ('A' for Active; 'I' for Inactive)
REMARK    1  A    between atoms: O_2  and  C_3 
ROOT
HETATM    1  C   LIG     1      14.634  32.284  17.912  1.00  0.00     0.112 C 
HETATM    2  C   LIG     1      14.828  31.721  19.331  1.00  0.00     0.039 C 
HETATM    3  C   LIG     1      13.797  31.348  17.029  1.00  0.00     0.039 C 
ENDROOT
BRANCH   1   4
HETATM    4  O   LIG     1      15.844  32.691  17.283  1.00  0.00    -0.391 OA
HETATM    5  C   LIG     1      15.797  32.597  15.873  1.00  0.00     0.202 C 
ENDBRANCH   1   4
TORSDOF 1
ENDMDL
MODEL 13
REMARK VINA RESULT:      -2.9     10.994     12.057
REMARK  1 active torsions:
REMARK  status: ('A' for Active; 'I' for Inactive)
REMARK    1  A    between atoms: O_2  and  C_3 
ROOT
HETATM    1  C   LIG     1      15.107  30.636  14.339  1.00  0.00     0.112 C 
HETATM    2  C   LIG     1      14.155  30.788  15.538  1.00  0.00     0.039 C 
HETATM    3  C   LIG     1      15.237  29.174  13.887  1.00  0.00     0.039 C 
ENDROOT
BRANCH   1   4
HETATM    4  O   LIG     1      16.371  31.264  14.523  1.00  0.00    -0.391 OA
HETATM    5  C   LIG     1      16.323  32.361  15.413  1.00  0.00     0.202 C 
ENDBRANCH   1   4
TORSDOF 1
ENDMDL
MODEL 14
REMARK VINA RESULT:      -2.9      2.777      3.228
REMARK  1 active torsions:
REMARK  status: ('A' for Active; 'I' for Inactive)
REMARK    1  A    between atoms: O_2  and  C_3 
ROOT
HETATM    1  C   LIG     1      16.709  36.831  22.527  1.00  0.00     0.112 C 
HETATM    2  C   LIG     1      16.850  37.439  23.934  1.00  0.00     0.039 C 
HETATM    3  C   LIG     1      16.901  35.308  22.534  1.00  0.00     0.039 C 
ENDROOT
BRANCH   1   4
HETATM    4  O   LIG     1      17.504  37.477  21.538  1.00  0.00    -0.391 OA
HETATM    5  C   LIG     1      17.852  38.803  21.883  1.00  0.00     0.202 C 
ENDBRANCH   1   4
TORSDOF 1
ENDMDL
MODEL 15
REMARK VINA RESULT:      -2.8      3.229      4.017
REMARK  1 active torsions:
REMARK  status: ('A' for Active; 'I' for Inactive)
REMARK    1  A    between atoms: O_2  and  C_3 
ROOT
HETATM    1  C   LIG     1      16.786  36.826  21.937  1.00  0.00     0.112 C 
HETATM    2  C   LIG     1      16.502  37.454  23.312  1.00  0.00     0.039 C 
HETATM    3  C   LIG     1      17.014  35.310  22.030  1.00  0.00     0.039 C 
ENDROOT
BRANCH   1   4
HETATM    4  O   LIG     1      17.809  37.487  21.200  1.00  0.00    -0.391 OA
HETATM    5  C   LIG     1      18.319  36.709  20.135  1.00  0.00     0.202 C 
ENDBRANCH   1   4
TORSDOF 1
ENDMDL
MODEL 16
REMARK VINA RESULT:      -2.8      9.053     10.318
REMARK  1 active torsions:
REMARK  status: ('A' for Active; 'I' for Inactive)
REMARK    1  A    between atoms: O_2  and  C_3 
ROOT
HETATM    1  C   LIG     1      14.108  32.265  17.352  1.00  0.00     0.112 C 
HETATM    2  C   LIG     1      15.113  32.231  16.188  1.00  0.00     0.039 C 
HETATM    3  C   LIG     1      14.784  32.006  18.707  1.00  0.00     0.039 C 
ENDROOT
BRANCH   1   4
HETATM    4  O   LIG     1      12.962  31.446  17.149  1.00  0.00    -0.391 OA
HETATM    5  C   LIG     1      13.032  30.672  15.968  1.00  0.00     0.202 C 
ENDBRANCH   1   4
TORSDOF 1
ENDMDL
MODEL 17
REMARK VINA RESULT:      -2.7     10.339     11.486
REMARK  1 active torsions:
REMARK  status: ('A' for Active; 'I' for Inactive)
REMARK    1  A    between atoms: O_2  and  C_3 
ROOT
HETATM    1  C   LIG     1      14.467  30.666  15.465  1.00  0.00     0.112 C 
HETATM    2  C   LIG     1      14.620  29.969  14.103  1.00  0.00     0.039 C 
HETATM    3  C   LIG     1      13.007  30.692  15.941  1.00  0.00     0.039 C 
ENDROOT
BRANCH   1   4
HETATM    4  O   LIG     1      15.084  31.947  15.531  1.00  0.00    -0.391 OA
HETATM    5  C   LIG     1      14.788  32.648  16.722  1.00  0.00     0.202 C 
ENDBRANCH   1   4
TORSDOF 1
ENDMDL
MODEL 18
REMARK VINA RESULT:      -2.7     12.089     12.785
REMARK  1 active torsions:
REMARK  status: ('A' for Active; 'I' for Inactive)
REMARK    1  A    between atoms: O_2  and  C_3 
ROOT
HETATM    1  C   LIG     1      14.423  30.024  14.148  1.00  0.00     0.112 C 
HETATM    2  C   LIG     1      15.228  28.737  13.900  1.00  0.00     0.039 C 
HETATM    3  C   LIG     1      15.283  31.131  14.774  1.00  0.00     0.039 C 
ENDROOT
BRANCH   1   4
HETATM    4  O   LIG     1      13.204  29.816  14.852  1.00  0.00    -0.391 OA
HETATM    5  C   LIG     1      13.048  30.678  15.962  1.00  0.00     0.202 C 
ENDBRANCH   1   4
TORSDOF 1
ENDMDL
MODEL 19
REMARK VINA RESULT:      -2.7     11.240     12.220
REMARK  1 active torsions:
REMARK  status: ('A' for Active; 'I' for Inactive)
REMARK    1  A    between atoms: O_2  and  C_3 
ROOT
HETATM    1  C   LIG     1      16.035  32.071  13.851  1.00  0.00     0.112 C 
HETATM    2  C   LIG     1      16.254  32.335  15.351  1.00  0.00     0.039 C 
HETATM    3  C   LIG     1      15.365  30.713  13.595  1.00  0.00     0.039 C 
ENDROOT
BRANCH   1   4
HETATM    4  O   LIG     1      17.199  32.265  13.055  1.00  0.00    -0.391 OA
HETATM    5  C   LIG     1      17.795  33.533  13.241  1.00  0.00     0.202 C 
ENDBRANCH   1   4
TORSDOF 1
ENDMDL
MODEL 20
REMARK VINA RESULT:      -2.7      9.864     11.016
REMARK  1 active torsions:
REMARK  status: ('A' for Active; 'I' for Inactive)
REMARK    1  A    between atoms: O_2  and  C_3 
ROOT
HETATM    1  C   LIG     1      15.811  32.062  15.035  1.00  0.00     0.112 C 
HETATM    2  C   LIG     1      16.102  32.081  13.525  1.00  0.00     0.039 C 
HETATM    3  C   LIG     1      14.647  31.124  15.387  1.00  0.00     0.039 C 
ENDROOT
BRANCH   1   4
HETATM    4  O   LIG     1      15.662  33.356  15.610  1.00  0.00    -0.391 OA
HETATM    5  C   LIG     1      14.974  33.339  16.845  1.00  0.00     0.202 C 
ENDBRANCH   1   4
TORSDOF 1
ENDMDL
