REMARK  2 active torsions:
REMARK  status: ('A' for Active; 'I' for Inactive)
REMARK    1  A    between atoms: C_2  and  C_4 
REMARK    2  A    between atoms: C_4  and  O_5 
ROOT
HETATM    1  C   LIG     1      -0.736   0.253  -0.532  1.00  0.00     0.117 C 
HETATM    2  C   LIG     1      -1.968   0.597   0.321  1.00  0.00     0.039 C 
ENDROOT
BRANCH   1   3
HETATM    3  C   LIG     1       0.595   0.325   0.266  1.00  0.00     0.006 C 
HETATM    4  C   LIG     1       0.702  -0.733   1.377  1.00  0.00     0.012 C 
HETATM    5  C   LIG     1       1.798   0.212  -0.681  1.00  0.00     0.012 C 
ENDBRANCH   1   3
BRANCH   1   6
HETATM    6  O   LIG     1      -0.892  -0.990  -1.174  1.00  0.00    -0.396 OA
HETATM    7  H   LIG     1      -1.145  -1.661  -0.488  1.00  0.00     0.210 HD
ENDBRANCH   1   6
TORSDOF 2
