MODEL 1
REMARK VINA RESULT:      -3.5      0.000      0.000
REMARK  1 active torsions:
REMARK  status: ('A' for Active; 'I' for Inactive)
REMARK       I    between atoms: N_1  and  C_2 
REMARK    1  A    between atoms: C_2  and  O_3 
ROOT
HETATM    1  N   LIG     1      17.671  38.109  25.818  1.00  0.00    -0.346 N 
HETATM    2  C   LIG     1      16.949  37.405  24.812  1.00  0.00     0.357 C 
HETATM    3  O   LIG     1      15.995  37.974  24.213  1.00  0.00    -0.239 OA
HETATM    4  H   LIG     1      18.462  37.646  26.317  1.00  0.00     0.161 HD
HETATM    5  H   LIG     1      17.417  39.092  26.064  1.00  0.00     0.161 HD
ENDROOT
BRANCH   2   6
HETATM    6  O   LIG     1      17.306  36.091  24.499  1.00  0.00    -0.309 OA
HETATM    7  C   LIG     1      17.473  35.087  25.492  1.00  0.00     0.215 C 
ENDBRANCH   2   6
TORSDOF 1
ENDMDL
MODEL 2
REMARK VINA RESULT:      -3.4      2.227      2.445
REMARK  1 active torsions:
REMARK  status: ('A' for Active; 'I' for Inactive)
REMARK       I    between atoms: N_1  and  C_2 
REMARK    1  A    between atoms: C_2  and  O_3 
ROOT
HETATM    1  N   LIG     1      15.174  38.164  23.056  1.00  0.00    -0.346 N 
HETATM    2  C   LIG     1      16.348  37.680  23.702  1.00  0.00     0.357 C 
HETATM    3  O   LIG     1      17.086  36.845  23.113  1.00  0.00    -0.239 OA
HETATM    4  H   LIG     1      14.558  38.857  23.536  1.00  0.00     0.161 HD
HETATM    5  H   LIG     1      14.921  37.833  22.099  1.00  0.00     0.161 HD
ENDROOT
BRANCH   2   6
HETATM    6  O   LIG     1      16.668  38.137  24.984  1.00  0.00    -0.309 OA
HETATM    7  C   LIG     1      17.617  37.481  25.815  1.00  0.00     0.215 C 
ENDBRANCH   2   6
TORSDOF 1
ENDMDL
MODEL 3
REMARK VINA RESULT:      -3.3      1.298      2.603
REMARK  1 active torsions:
REMARK  status: ('A' for Active; 'I' for Inactive)
REMARK       I    between atoms: N_1  and  C_2 
REMARK    1  A    between atoms: C_2  and  O_3 
ROOT
HETATM    1  N   LIG     1      17.334  38.561  25.749  1.00  0.00    -0.346 N 
HETATM    2  C   LIG     1      16.906  37.656  24.735  1.00  0.00     0.357 C 
HETATM    3  O   LIG     1      17.245  36.442  24.798  1.00  0.00    -0.239 OA
HETATM    4  H   LIG     1      17.058  39.567  25.706  1.00  0.00     0.161 HD
HETATM    5  H   LIG     1      17.925  38.228  26.543  1.00  0.00     0.161 HD
ENDROOT
BRANCH   2   6
HETATM    6  O   LIG     1      16.116  38.124  23.682  1.00  0.00    -0.309 OA
HETATM    7  C   LIG     1      16.665  38.792  22.552  1.00  0.00     0.215 C 
ENDBRANCH   2   6
TORSDOF 1
ENDMDL
MODEL 4
REMARK VINA RESULT:      -3.2      2.213      2.213
REMARK  1 active torsions:
REMARK  status: ('A' for Active; 'I' for Inactive)
REMARK       I    between atoms: N_1  and  C_2 
REMARK    1  A    between atoms: C_2  and  O_3 
ROOT
HETATM    1  N   LIG     1      15.380  38.057  23.188  1.00  0.00    -0.346 N 
HETATM    2  C   LIG     1      16.479  37.645  23.997  1.00  0.00     0.357 C 
HETATM    3  O   LIG     1      16.887  38.395  24.924  1.00  0.00    -0.239 OA
HETATM    4  H   LIG     1      15.034  37.442  22.419  1.00  0.00     0.161 HD
HETATM    5  H   LIG     1      14.911  38.974  23.358  1.00  0.00     0.161 HD
ENDROOT
BRANCH   2   6
HETATM    6  O   LIG     1      17.091  36.413  23.751  1.00  0.00    -0.309 OA
HETATM    7  C   LIG     1      16.822  35.643  22.586  1.00  0.00     0.215 C 
ENDBRANCH   2   6
TORSDOF 1
ENDMDL
MODEL 5
REMARK VINA RESULT:      -3.2      2.585      3.160
REMARK  1 active torsions:
REMARK  status: ('A' for Active; 'I' for Inactive)
REMARK       I    between atoms: N_1  and  C_2 
REMARK    1  A    between atoms: C_2  and  O_3 
ROOT
HETATM    1  N   LIG     1      15.186  38.115  23.073  1.00  0.00    -0.346 N 
HETATM    2  C   LIG     1      16.478  37.989  23.659  1.00  0.00     0.357 C 
HETATM    3  O   LIG     1      16.595  37.963  24.915  1.00  0.00    -0.239 OA
HETATM    4  H   LIG     1      15.080  38.136  22.034  1.00  0.00     0.161 HD
HETATM    5  H   LIG     1      14.335  38.184  23.674  1.00  0.00     0.161 HD
ENDROOT
BRANCH   2   6
HETATM    6  O   LIG     1      17.603  37.897  22.835  1.00  0.00    -0.309 OA
HETATM    7  C   LIG     1      18.088  38.999  22.077  1.00  0.00     0.215 C 
ENDBRANCH   2   6
TORSDOF 1
ENDMDL
MODEL 6
REMARK VINA RESULT:      -3.1      7.192      7.455
REMARK  1 active torsions:
REMARK  status: ('A' for Active; 'I' for Inactive)
REMARK       I    between atoms: N_1  and  C_2 
REMARK    1  A    between atoms: C_2  and  O_3 
ROOT
HETATM    1  N   LIG     1      13.404  30.237  28.228  1.00  0.00    -0.346 N 
HETATM    2  C   LIG     1      13.431  31.502  27.573  1.00  0.00     0.357 C 
HETATM    3  O   LIG     1      14.174  32.419  28.017  1.00  0.00    -0.239 OA
HETATM    4  H   LIG     1      12.792  29.472  27.866  1.00  0.00     0.161 HD
HETATM    5  H   LIG     1      13.993  30.064  29.072  1.00  0.00     0.161 HD
ENDROOT
BRANCH   2   6
HETATM    6  O   LIG     1      12.633  31.712  26.445  1.00  0.00    -0.309 OA
HETATM    7  C   LIG     1      12.498  30.743  25.413  1.00  0.00     0.215 C 
ENDBRANCH   2   6
TORSDOF 1
ENDMDL
MODEL 7
REMARK VINA RESULT:      -3.1      8.697      8.932
REMARK  1 active torsions:
REMARK  status: ('A' for Active; 'I' for Inactive)
REMARK       I    between atoms: N_1  and  C_2 
REMARK    1  A    between atoms: C_2  and  O_3 
ROOT
HETATM    1  N   LIG     1      14.418  31.665  19.793  1.00  0.00    -0.346 N 
HETATM    2  C   LIG     1      14.504  31.887  18.388  1.00  0.00     0.357 C 
HETATM    3  O   LIG     1      13.763  31.231  17.606  1.00  0.00    -0.239 OA
HETATM    4  H   LIG     1      15.028  32.204  20.448  1.00  0.00     0.161 HD
HETATM    5  H   LIG     1      13.746  30.966  20.180  1.00  0.00     0.161 HD
ENDROOT
BRANCH   2   6
HETATM    6  O   LIG     1      15.411  32.828  17.893  1.00  0.00    -0.309 OA
HETATM    7  C   LIG     1      15.046  33.807  16.928  1.00  0.00     0.215 C 
ENDBRANCH   2   6
TORSDOF 1
ENDMDL
MODEL 8
REMARK VINA RESULT:      -3.0      8.706      8.737
REMARK  1 active torsions:
REMARK  status: ('A' for Active; 'I' for Inactive)
REMARK       I    between atoms: N_1  and  C_2 
REMARK    1  A    between atoms: C_2  and  O_3 
ROOT
HETATM    1  N   LIG     1      15.351  34.699  18.353  1.00  0.00    -0.346 N 
HETATM    2  C   LIG     1      15.224  34.130  17.053  1.00  0.00     0.357 C 
HETATM    3  O   LIG     1      15.938  34.564  16.108  1.00  0.00    -0.239 OA
HETATM    4  H   LIG     1      14.765  34.345  19.141  1.00  0.00     0.161 HD
HETATM    5  H   LIG     1      16.031  35.472  18.530  1.00  0.00     0.161 HD
ENDROOT
BRANCH   2   6
HETATM    6  O   LIG     1      14.308  33.096  16.840  1.00  0.00    -0.309 OA
HETATM    7  C   LIG     1      14.223  31.962  17.694  1.00  0.00     0.215 C 
ENDBRANCH   2   6
TORSDOF 1
ENDMDL
MODEL 9
REMARK VINA RESULT:      -3.0      8.055      8.285
REMARK  1 active torsions:
REMARK  status: ('A' for Active; 'I' for Inactive)
REMARK       I    between atoms: N_1  and  C_2 
REMARK    1  A    between atoms: C_2  and  O_3 
ROOT
HETATM    1  N   LIG     1      14.319  31.481  19.278  1.00  0.00    -0.346 N 
HETATM    2  C   LIG     1      15.281  32.491  18.987  1.00  0.00     0.357 C 
HETATM    3  O   LIG     1      15.798  33.152  19.930  1.00  0.00    -0.239 OA
HETATM    4  H   LIG     1      13.887  30.929  18.503  1.00  0.00     0.161 HD
HETATM    5  H   LIG     1      14.038  31.284  20.264  1.00  0.00     0.161 HD
ENDROOT
BRANCH   2   6
HETATM    6  O   LIG     1      15.642  32.739  17.660  1.00  0.00    -0.309 OA
HETATM    7  C   LIG     1      15.024  33.752  16.876  1.00  0.00     0.215 C 
ENDBRANCH   2   6
TORSDOF 1
ENDMDL
MODEL 10
REMARK VINA RESULT:      -3.0      6.884      7.127
REMARK  1 active torsions:
REMARK  status: ('A' for Active; 'I' for Inactive)
REMARK       I    between atoms: N_1  and  C_2 
REMARK    1  A    between atoms: C_2  and  O_3 
ROOT
HETATM    1  N   LIG     1      14.263  31.852  19.943  1.00  0.00    -0.346 N 
HETATM    2  C   LIG     1      15.301  32.679  19.424  1.00  0.00     0.357 C 
HETATM    3  O   LIG     1      15.583  32.631  18.196  1.00  0.00    -0.239 OA
HETATM    4  H   LIG     1      14.023  31.887  20.959  1.00  0.00     0.161 HD
HETATM    5  H   LIG     1      13.734  31.208  19.315  1.00  0.00     0.161 HD
ENDROOT
BRANCH   2   6
HETATM    6  O   LIG     1      15.996  33.534  20.284  1.00  0.00    -0.309 OA
HETATM    7  C   LIG     1      15.336  34.427  21.173  1.00  0.00     0.215 C 
ENDBRANCH   2   6
TORSDOF 1
ENDMDL
MODEL 11
REMARK VINA RESULT:      -3.0      5.126      5.395
REMARK  1 active torsions:
REMARK  status: ('A' for Active; 'I' for Inactive)
REMARK       I    between atoms: N_1  and  C_2 
REMARK    1  A    between atoms: C_2  and  O_3 
ROOT
HETATM    1  N   LIG     1      14.233  34.062  21.481  1.00  0.00    -0.346 N 
HETATM    2  C   LIG     1      15.520  34.158  20.878  1.00  0.00     0.357 C 
HETATM    3  O   LIG     1      15.718  33.647  19.742  1.00  0.00    -0.239 OA
HETATM    4  H   LIG     1      14.061  34.484  22.421  1.00  0.00     0.161 HD
HETATM    5  H   LIG     1      13.452  33.572  20.990  1.00  0.00     0.161 HD
ENDROOT
BRANCH   2   6
HETATM    6  O   LIG     1      16.551  34.818  21.553  1.00  0.00    -0.309 OA
HETATM    7  C   LIG     1      17.193  35.973  21.028  1.00  0.00     0.215 C 
ENDBRANCH   2   6
TORSDOF 1
ENDMDL
MODEL 12
REMARK VINA RESULT:      -2.9     11.069     11.150
REMARK  1 active torsions:
REMARK  status: ('A' for Active; 'I' for Inactive)
REMARK       I    between atoms: N_1  and  C_2 
REMARK    1  A    between atoms: C_2  and  O_3 
ROOT
HETATM    1  N   LIG     1      17.792  32.892  15.172  1.00  0.00    -0.346 N 
HETATM    2  C   LIG     1      17.384  34.221  14.860  1.00  0.00     0.357 C 
HETATM    3  O   LIG     1      16.808  34.920  15.737  1.00  0.00    -0.239 OA
HETATM    4  H   LIG     1      18.270  32.307  14.452  1.00  0.00     0.161 HD
HETATM    5  H   LIG     1      17.617  32.493  16.121  1.00  0.00     0.161 HD
ENDROOT
BRANCH   2   6
HETATM    6  O   LIG     1      17.627  34.734  13.583  1.00  0.00    -0.309 OA
HETATM    7  C   LIG     1      18.307  33.993  12.577  1.00  0.00     0.215 C 
ENDBRANCH   2   6
TORSDOF 1
ENDMDL
MODEL 13
REMARK VINA RESULT:      -2.9      5.462      5.511
REMARK  1 active torsions:
REMARK  status: ('A' for Active; 'I' for Inactive)
REMARK       I    between atoms: N_1  and  C_2 
REMARK    1  A    between atoms: C_2  and  O_3 
ROOT
HETATM    1  N   LIG     1      14.441  35.602  21.084  1.00  0.00    -0.346 N 
HETATM    2  C   LIG     1      15.681  35.229  20.488  1.00  0.00     0.357 C 
HETATM    3  O   LIG     1      16.736  35.842  20.808  1.00  0.00    -0.239 OA
HETATM    4  H   LIG     1      13.563  35.100  20.826  1.00  0.00     0.161 HD
HETATM    5  H   LIG     1      14.400  36.377  21.782  1.00  0.00     0.161 HD
ENDROOT
BRANCH   2   6
HETATM    6  O   LIG     1      15.713  34.189  19.556  1.00  0.00    -0.309 OA
HETATM    7  C   LIG     1      15.434  32.839  19.907  1.00  0.00     0.215 C 
ENDBRANCH   2   6
TORSDOF 1
ENDMDL
MODEL 14
REMARK VINA RESULT:      -2.8      2.119      2.848
REMARK  1 active torsions:
REMARK  status: ('A' for Active; 'I' for Inactive)
REMARK       I    between atoms: N_1  and  C_2 
REMARK    1  A    between atoms: C_2  and  O_3 
ROOT
HETATM    1  N   LIG     1      17.496  35.074  25.439  1.00  0.00    -0.346 N 
HETATM    2  C   LIG     1      17.812  36.363  25.956  1.00  0.00     0.357 C 
HETATM    3  O   LIG     1      18.671  36.474  26.874  1.00  0.00    -0.239 OA
HETATM    4  H   LIG     1      16.787  34.973  24.678  1.00  0.00     0.161 HD
HETATM    5  H   LIG     1      17.968  34.221  25.812  1.00  0.00     0.161 HD
ENDROOT
BRANCH   2   6
HETATM    6  O   LIG     1      17.167  37.491  25.441  1.00  0.00    -0.309 OA
HETATM    7  C   LIG     1      16.723  37.568  24.092  1.00  0.00     0.215 C 
ENDBRANCH   2   6
TORSDOF 1
ENDMDL
MODEL 15
REMARK VINA RESULT:      -2.8      9.367      9.509
REMARK  1 active torsions:
REMARK  status: ('A' for Active; 'I' for Inactive)
REMARK       I    between atoms: N_1  and  C_2 
REMARK    1  A    between atoms: C_2  and  O_3 
ROOT
HETATM    1  N   LIG     1      13.008  30.805  16.754  1.00  0.00    -0.346 N 
HETATM    2  C   LIG     1      13.905  31.658  17.459  1.00  0.00     0.357 C 
HETATM    3  O   LIG     1      14.362  32.688  16.893  1.00  0.00    -0.239 OA
HETATM    4  H   LIG     1      12.624  29.950  17.216  1.00  0.00     0.161 HD
HETATM    5  H   LIG     1      12.725  31.026  15.774  1.00  0.00     0.161 HD
ENDROOT
BRANCH   2   6
HETATM    6  O   LIG     1      14.269  31.342  18.771  1.00  0.00    -0.309 OA
HETATM    7  C   LIG     1      15.206  32.115  19.511  1.00  0.00     0.215 C 
ENDBRANCH   2   6
TORSDOF 1
ENDMDL
MODEL 16
REMARK VINA RESULT:      -2.8      9.356      9.404
REMARK  1 active torsions:
REMARK  status: ('A' for Active; 'I' for Inactive)
REMARK       I    between atoms: N_1  and  C_2 
REMARK    1  A    between atoms: C_2  and  O_3 
ROOT
HETATM    1  N   LIG     1      15.331  34.606  17.908  1.00  0.00    -0.346 N 
HETATM    2  C   LIG     1      15.061  33.702  16.841  1.00  0.00     0.357 C 
HETATM    3  O   LIG     1      14.077  32.916  16.922  1.00  0.00    -0.239 OA
HETATM    4  H   LIG     1      16.143  35.261  17.848  1.00  0.00     0.161 HD
HETATM    5  H   LIG     1      14.722  34.624  18.756  1.00  0.00     0.161 HD
ENDROOT
BRANCH   2   6
HETATM    6  O   LIG     1      15.889  33.695  15.715  1.00  0.00    -0.309 OA
HETATM    7  C   LIG     1      16.461  32.502  15.193  1.00  0.00     0.215 C 
ENDBRANCH   2   6
TORSDOF 1
ENDMDL
MODEL 17
REMARK VINA RESULT:      -2.7      9.213      9.414
REMARK  1 active torsions:
REMARK  status: ('A' for Active; 'I' for Inactive)
REMARK       I    between atoms: N_1  and  C_2 
REMARK    1  A    between atoms: C_2  and  O_3 
ROOT
HETATM    1  N   LIG     1      15.229  33.365  18.436  1.00  0.00    -0.346 N 
HETATM    2  C   LIG     1      14.528  32.182  18.061  1.00  0.00     0.357 C 
HETATM    3  O   LIG     1      14.305  31.289  18.923  1.00  0.00    -0.239 OA
HETATM    4  H   LIG     1      15.417  34.110  17.729  1.00  0.00     0.161 HD
HETATM    5  H   LIG     1      15.559  33.497  19.418  1.00  0.00     0.161 HD
ENDROOT
BRANCH   2   6
HETATM    6  O   LIG     1      14.096  32.026  16.741  1.00  0.00    -0.309 OA
HETATM    7  C   LIG     1      13.376  30.880  16.303  1.00  0.00     0.215 C 
ENDBRANCH   2   6
TORSDOF 1
ENDMDL
MODEL 18
REMARK VINA RESULT:      -2.7      4.067      4.213
REMARK  1 active torsions:
REMARK  status: ('A' for Active; 'I' for Inactive)
REMARK       I    between atoms: N_1  and  C_2 
REMARK    1  A    between atoms: C_2  and  O_3 
ROOT
HETATM    1  N   LIG     1      14.392  35.670  21.209  1.00  0.00    -0.346 N 
HETATM    2  C   LIG     1      15.544  36.287  21.779  1.00  0.00     0.357 C 
HETATM    3  O   LIG     1      15.410  37.312  22.501  1.00  0.00    -0.239 OA
HETATM    4  H   LIG     1      14.494  34.820  20.611  1.00  0.00     0.161 HD
HETATM    5  H   LIG     1      13.440  36.059  21.386  1.00  0.00     0.161 HD
ENDROOT
BRANCH   2   6
HETATM    6  O   LIG     1      16.809  35.748  21.529  1.00  0.00    -0.309 OA
HETATM    7  C   LIG     1      17.720  36.332  20.606  1.00  0.00     0.215 C 
ENDBRANCH   2   6
TORSDOF 1
ENDMDL
MODEL 19
REMARK VINA RESULT:      -2.7     11.036     11.208
REMARK  1 active torsions:
REMARK  status: ('A' for Active; 'I' for Inactive)
REMARK       I    between atoms: N_1  and  C_2 
REMARK    1  A    between atoms: C_2  and  O_3 
ROOT
HETATM    1  N   LIG     1      16.023  32.876  16.217  1.00  0.00    -0.346 N 
HETATM    2  C   LIG     1      16.871  32.352  15.199  1.00  0.00     0.357 C 
HETATM    3  O   LIG     1      18.094  32.659  15.186  1.00  0.00    -0.239 OA
HETATM    4  H   LIG     1      15.009  32.626  16.236  1.00  0.00     0.161 HD
HETATM    5  H   LIG     1      16.406  33.510  16.953  1.00  0.00     0.161 HD
ENDROOT
BRANCH   2   6
HETATM    6  O   LIG     1      16.336  31.505  14.225  1.00  0.00    -0.309 OA
HETATM    7  C   LIG     1      15.195  30.689  14.463  1.00  0.00     0.215 C 
ENDBRANCH   2   6
TORSDOF 1
ENDMDL
MODEL 20
REMARK VINA RESULT:      -2.6     12.805     13.033
REMARK  1 active torsions:
REMARK  status: ('A' for Active; 'I' for Inactive)
REMARK       I    between atoms: N_1  and  C_2 
REMARK    1  A    between atoms: C_2  and  O_3 
ROOT
HETATM    1  N   LIG     1      13.686  28.860  13.846  1.00  0.00    -0.346 N 
HETATM    2  C   LIG     1      14.610  29.891  14.182  1.00  0.00     0.357 C 
HETATM    3  O   LIG     1      15.660  30.035  13.499  1.00  0.00    -0.239 OA
HETATM    4  H   LIG     1      12.813  28.734  14.406  1.00  0.00     0.161 HD
HETATM    5  H   LIG     1      13.871  28.224  13.039  1.00  0.00     0.161 HD
ENDROOT
BRANCH   2   6
HETATM    6  O   LIG     1      14.342  30.730  15.267  1.00  0.00    -0.309 OA
HETATM    7  C   LIG     1      13.110  30.693  15.977  1.00  0.00     0.215 C 
ENDBRANCH   2   6
TORSDOF 1
ENDMDL
