MODEL 1
REMARK VINA RESULT:      -4.5      0.000      0.000
REMARK  2 active torsions:
REMARK  status: ('A' for Active; 'I' for Inactive)
REMARK    1  A    between atoms: C_2  and  C_4 
REMARK    2  A    between atoms: C_4  and  O_5 
ROOT
HETATM    1  C   LIG     1      17.055  37.503  24.971  1.00  0.00     0.117 C 
HETATM    2  C   LIG     1      17.139  37.820  23.469  1.00  0.00     0.039 C 
ENDROOT
BRANCH   1   3
HETATM    3  C   LIG     1      17.982  36.332  25.399  1.00  0.00     0.006 C 
HETATM    4  C   LIG     1      18.431  36.411  26.867  1.00  0.00     0.012 C 
HETATM    5  C   LIG     1      17.302  34.982  25.131  1.00  0.00     0.012 C 
ENDBRANCH   1   3
BRANCH   1   6
HETATM    6  O   LIG     1      17.279  38.656  25.748  1.00  0.00    -0.396 OA
HETATM    7  H   LIG     1      16.837  39.421  25.297  1.00  0.00     0.210 HD
ENDBRANCH   1   6
TORSDOF 2
ENDMDL
MODEL 2
REMARK VINA RESULT:      -4.2      0.801      2.335
REMARK  2 active torsions:
REMARK  status: ('A' for Active; 'I' for Inactive)
REMARK    1  A    between atoms: C_2  and  C_4 
REMARK    2  A    between atoms: C_4  and  O_5 
ROOT
HETATM    1  C   LIG     1      17.924  37.455  25.295  1.00  0.00     0.117 C 
HETATM    2  C   LIG     1      18.546  36.763  26.518  1.00  0.00     0.039 C 
ENDROOT
BRANCH   1   3
HETATM    3  C   LIG     1      16.979  36.525  24.485  1.00  0.00     0.006 C 
HETATM    4  C   LIG     1      16.985  36.809  22.974  1.00  0.00     0.012 C 
HETATM    5  C   LIG     1      17.325  35.051  24.741  1.00  0.00     0.012 C 
ENDBRANCH   1   3
BRANCH   1   6
HETATM    6  O   LIG     1      17.286  38.656  25.659  1.00  0.00    -0.396 OA
HETATM    7  H   LIG     1      16.601  38.444  26.345  1.00  0.00     0.210 HD
ENDBRANCH   1   6
TORSDOF 2
ENDMDL
MODEL 3
REMARK VINA RESULT:      -4.1      4.058      5.424
REMARK  2 active torsions:
REMARK  status: ('A' for Active; 'I' for Inactive)
REMARK    1  A    between atoms: C_2  and  C_4 
REMARK    2  A    between atoms: C_4  and  O_5 
ROOT
HETATM    1  C   LIG     1      18.697  38.694  21.394  1.00  0.00     0.117 C 
HETATM    2  C   LIG     1      17.360  38.125  21.897  1.00  0.00     0.039 C 
ENDROOT
BRANCH   1   3
HETATM    3  C   LIG     1      18.988  38.343  19.909  1.00  0.00     0.006 C 
HETATM    4  C   LIG     1      20.364  38.826  19.422  1.00  0.00     0.012 C 
HETATM    5  C   LIG     1      18.852  36.831  19.676  1.00  0.00     0.012 C 
ENDBRANCH   1   3
BRANCH   1   6
HETATM    6  O   LIG     1      18.781  40.080  21.628  1.00  0.00    -0.396 OA
HETATM    7  H   LIG     1      17.857  40.437  21.690  1.00  0.00     0.210 HD
ENDBRANCH   1   6
TORSDOF 2
ENDMDL
MODEL 4
REMARK VINA RESULT:      -4.0      5.332      6.395
REMARK  2 active torsions:
REMARK  status: ('A' for Active; 'I' for Inactive)
REMARK    1  A    between atoms: C_2  and  C_4 
REMARK    2  A    between atoms: C_4  and  O_5 
ROOT
HETATM    1  C   LIG     1      19.507  39.295  19.155  1.00  0.00     0.117 C 
HETATM    2  C   LIG     1      18.780  39.089  17.816  1.00  0.00     0.039 C 
ENDROOT
BRANCH   1   3
HETATM    3  C   LIG     1      19.199  38.179  20.191  1.00  0.00     0.006 C 
HETATM    4  C   LIG     1      18.136  38.581  21.228  1.00  0.00     0.012 C 
HETATM    5  C   LIG     1      18.773  36.886  19.481  1.00  0.00     0.012 C 
ENDBRANCH   1   3
BRANCH   1   6
HETATM    6  O   LIG     1      20.892  39.460  18.964  1.00  0.00    -0.396 OA
HETATM    7  H   LIG     1      21.099  40.427  19.034  1.00  0.00     0.210 HD
ENDBRANCH   1   6
TORSDOF 2
ENDMDL
MODEL 5
REMARK VINA RESULT:      -4.0      2.068      3.682
REMARK  2 active torsions:
REMARK  status: ('A' for Active; 'I' for Inactive)
REMARK    1  A    between atoms: C_2  and  C_4 
REMARK    2  A    between atoms: C_4  and  O_5 
ROOT
HETATM    1  C   LIG     1      16.691  38.285  23.773  1.00  0.00     0.117 C 
HETATM    2  C   LIG     1      17.243  37.736  25.099  1.00  0.00     0.039 C 
ENDROOT
BRANCH   1   3
HETATM    3  C   LIG     1      17.449  37.745  22.530  1.00  0.00     0.006 C 
HETATM    4  C   LIG     1      16.675  36.661  21.761  1.00  0.00     0.012 C 
HETATM    5  C   LIG     1      17.817  38.896  21.582  1.00  0.00     0.012 C 
ENDBRANCH   1   3
BRANCH   1   6
HETATM    6  O   LIG     1      15.303  38.070  23.671  1.00  0.00    -0.396 OA
HETATM    7  H   LIG     1      14.865  38.519  24.440  1.00  0.00     0.210 HD
ENDBRANCH   1   6
TORSDOF 2
ENDMDL
MODEL 6
REMARK VINA RESULT:      -4.0      4.130      4.806
REMARK  2 active torsions:
REMARK  status: ('A' for Active; 'I' for Inactive)
REMARK    1  A    between atoms: C_2  and  C_4 
REMARK    2  A    between atoms: C_4  and  O_5 
ROOT
HETATM    1  C   LIG     1      15.241  34.928  21.481  1.00  0.00     0.117 C 
HETATM    2  C   LIG     1      15.698  33.912  20.421  1.00  0.00     0.039 C 
ENDROOT
BRANCH   1   3
HETATM    3  C   LIG     1      16.407  35.791  22.037  1.00  0.00     0.006 C 
HETATM    4  C   LIG     1      17.096  35.174  23.265  1.00  0.00     0.012 C 
HETATM    5  C   LIG     1      17.444  36.068  20.940  1.00  0.00     0.012 C 
ENDBRANCH   1   3
BRANCH   1   6
HETATM    6  O   LIG     1      14.185  35.725  21.000  1.00  0.00    -0.396 OA
HETATM    7  H   LIG     1      13.497  35.787  21.713  1.00  0.00     0.210 HD
ENDBRANCH   1   6
TORSDOF 2
ENDMDL
MODEL 7
REMARK VINA RESULT:      -4.0      2.579      3.908
REMARK  2 active torsions:
REMARK  status: ('A' for Active; 'I' for Inactive)
REMARK    1  A    between atoms: C_2  and  C_4 
REMARK    2  A    between atoms: C_4  and  O_5 
ROOT
HETATM    1  C   LIG     1      16.355  37.516  22.948  1.00  0.00     0.117 C 
HETATM    2  C   LIG     1      16.973  37.326  24.343  1.00  0.00     0.039 C 
ENDROOT
BRANCH   1   3
HETATM    3  C   LIG     1      16.342  36.211  22.106  1.00  0.00     0.006 C 
HETATM    4  C   LIG     1      14.977  35.908  21.466  1.00  0.00     0.012 C 
HETATM    5  C   LIG     1      17.428  36.258  21.022  1.00  0.00     0.012 C 
ENDBRANCH   1   3
BRANCH   1   6
HETATM    6  O   LIG     1      15.074  38.094  23.033  1.00  0.00    -0.396 OA
HETATM    7  H   LIG     1      15.087  38.764  23.765  1.00  0.00     0.210 HD
ENDBRANCH   1   6
TORSDOF 2
ENDMDL
MODEL 8
REMARK VINA RESULT:      -3.9      4.075      4.666
REMARK  2 active torsions:
REMARK  status: ('A' for Active; 'I' for Inactive)
REMARK    1  A    between atoms: C_2  and  C_4 
REMARK    2  A    between atoms: C_4  and  O_5 
ROOT
HETATM    1  C   LIG     1      18.599  38.435  20.564  1.00  0.00     0.117 C 
HETATM    2  C   LIG     1      19.080  37.325  19.616  1.00  0.00     0.039 C 
ENDROOT
BRANCH   1   3
HETATM    3  C   LIG     1      17.846  37.888  21.808  1.00  0.00     0.006 C 
HETATM    4  C   LIG     1      16.866  38.900  22.425  1.00  0.00     0.012 C 
HETATM    5  C   LIG     1      17.106  36.589  21.461  1.00  0.00     0.012 C 
ENDBRANCH   1   3
BRANCH   1   6
HETATM    6  O   LIG     1      19.658  39.287  20.929  1.00  0.00    -0.396 OA
HETATM    7  H   LIG     1      19.726  39.287  21.919  1.00  0.00     0.210 HD
ENDBRANCH   1   6
TORSDOF 2
ENDMDL
MODEL 9
REMARK VINA RESULT:      -3.8      3.665      4.823
REMARK  2 active torsions:
REMARK  status: ('A' for Active; 'I' for Inactive)
REMARK    1  A    between atoms: C_2  and  C_4 
REMARK    2  A    between atoms: C_4  and  O_5 
ROOT
HETATM    1  C   LIG     1      17.845  36.347  20.661  1.00  0.00     0.117 C 
HETATM    2  C   LIG     1      18.828  36.980  19.663  1.00  0.00     0.039 C 
ENDROOT
BRANCH   1   3
HETATM    3  C   LIG     1      17.215  37.381  21.634  1.00  0.00     0.006 C 
HETATM    4  C   LIG     1      16.928  36.811  23.033  1.00  0.00     0.012 C 
HETATM    5  C   LIG     1      18.108  38.625  21.750  1.00  0.00     0.012 C 
ENDBRANCH   1   3
BRANCH   1   6
HETATM    6  O   LIG     1      16.860  35.591  19.996  1.00  0.00    -0.396 OA
HETATM    7  H   LIG     1      16.638  34.808  20.564  1.00  0.00     0.210 HD
ENDBRANCH   1   6
TORSDOF 2
ENDMDL
MODEL 10
REMARK VINA RESULT:      -3.8     10.157     10.990
REMARK  2 active torsions:
REMARK  status: ('A' for Active; 'I' for Inactive)
REMARK    1  A    between atoms: C_2  and  C_4 
REMARK    2  A    between atoms: C_4  and  O_5 
ROOT
HETATM    1  C   LIG     1      13.944  32.281  16.990  1.00  0.00     0.117 C 
HETATM    2  C   LIG     1      14.958  33.422  16.809  1.00  0.00     0.039 C 
ENDROOT
BRANCH   1   3
HETATM    3  C   LIG     1      14.251  31.048  16.096  1.00  0.00     0.006 C 
HETATM    4  C   LIG     1      12.995  30.410  15.479  1.00  0.00     0.012 C 
HETATM    5  C   LIG     1      15.246  31.421  14.987  1.00  0.00     0.012 C 
ENDBRANCH   1   3
BRANCH   1   6
HETATM    6  O   LIG     1      13.817  31.922  18.345  1.00  0.00    -0.396 OA
HETATM    7  H   LIG     1      14.324  32.582  18.887  1.00  0.00     0.210 HD
ENDBRANCH   1   6
TORSDOF 2
ENDMDL
MODEL 11
REMARK VINA RESULT:      -3.8      2.042      3.292
REMARK  2 active torsions:
REMARK  status: ('A' for Active; 'I' for Inactive)
REMARK    1  A    between atoms: C_2  and  C_4 
REMARK    2  A    between atoms: C_4  and  O_5 
ROOT
HETATM    1  C   LIG     1      17.088  35.652  24.790  1.00  0.00     0.117 C 
HETATM    2  C   LIG     1      17.897  35.045  25.948  1.00  0.00     0.039 C 
ENDROOT
BRANCH   1   3
HETATM    3  C   LIG     1      17.457  37.133  24.501  1.00  0.00     0.006 C 
HETATM    4  C   LIG     1      16.562  37.791  23.437  1.00  0.00     0.012 C 
HETATM    5  C   LIG     1      17.424  37.959  25.795  1.00  0.00     0.012 C 
ENDBRANCH   1   3
BRANCH   1   6
HETATM    6  O   LIG     1      17.181  34.856  23.632  1.00  0.00    -0.396 OA
HETATM    7  H   LIG     1      18.002  35.122  23.141  1.00  0.00     0.210 HD
ENDBRANCH   1   6
TORSDOF 2
ENDMDL
MODEL 12
REMARK VINA RESULT:      -3.8      2.459      3.310
REMARK  2 active torsions:
REMARK  status: ('A' for Active; 'I' for Inactive)
REMARK    1  A    between atoms: C_2  and  C_4 
REMARK    2  A    between atoms: C_4  and  O_5 
ROOT
HETATM    1  C   LIG     1      16.051  37.192  23.105  1.00  0.00     0.117 C 
HETATM    2  C   LIG     1      16.072  36.340  21.825  1.00  0.00     0.039 C 
ENDROOT
BRANCH   1   3
HETATM    3  C   LIG     1      17.440  37.794  23.457  1.00  0.00     0.006 C 
HETATM    4  C   LIG     1      17.862  38.946  22.530  1.00  0.00     0.012 C 
HETATM    5  C   LIG     1      17.469  38.262  24.919  1.00  0.00     0.012 C 
ENDBRANCH   1   3
BRANCH   1   6
HETATM    6  O   LIG     1      15.055  38.184  23.040  1.00  0.00    -0.396 OA
HETATM    7  H   LIG     1      14.658  38.163  22.130  1.00  0.00     0.210 HD
ENDBRANCH   1   6
TORSDOF 2
ENDMDL
MODEL 13
REMARK VINA RESULT:      -3.7      3.962      4.747
REMARK  2 active torsions:
REMARK  status: ('A' for Active; 'I' for Inactive)
REMARK    1  A    between atoms: C_2  and  C_4 
REMARK    2  A    between atoms: C_4  and  O_5 
ROOT
HETATM    1  C   LIG     1      17.183  36.554  21.188  1.00  0.00     0.117 C 
HETATM    2  C   LIG     1      17.027  35.340  22.118  1.00  0.00     0.039 C 
ENDROOT
BRANCH   1   3
HETATM    3  C   LIG     1      17.638  37.838  21.935  1.00  0.00     0.006 C 
HETATM    4  C   LIG     1      18.336  38.863  21.026  1.00  0.00     0.012 C 
HETATM    5  C   LIG     1      16.448  38.497  22.647  1.00  0.00     0.012 C 
ENDBRANCH   1   3
BRANCH   1   6
HETATM    6  O   LIG     1      18.027  36.258  20.101  1.00  0.00    -0.396 OA
HETATM    7  H   LIG     1      17.533  35.658  19.483  1.00  0.00     0.210 HD
ENDBRANCH   1   6
TORSDOF 2
ENDMDL
MODEL 14
REMARK VINA RESULT:      -3.7      9.343     10.142
REMARK  2 active torsions:
REMARK  status: ('A' for Active; 'I' for Inactive)
REMARK    1  A    between atoms: C_2  and  C_4 
REMARK    2  A    between atoms: C_4  and  O_5 
ROOT
HETATM    1  C   LIG     1      13.837  31.466  17.121  1.00  0.00     0.117 C 
HETATM    2  C   LIG     1      13.997  30.801  15.744  1.00  0.00     0.039 C 
ENDROOT
BRANCH   1   3
HETATM    3  C   LIG     1      15.030  32.390  17.491  1.00  0.00     0.006 C 
HETATM    4  C   LIG     1      14.895  33.818  16.935  1.00  0.00     0.012 C 
HETATM    5  C   LIG     1      15.223  32.438  19.013  1.00  0.00     0.012 C 
ENDBRANCH   1   3
BRANCH   1   6
HETATM    6  O   LIG     1      12.606  32.140  17.222  1.00  0.00    -0.396 OA
HETATM    7  H   LIG     1      12.790  33.083  17.470  1.00  0.00     0.210 HD
ENDBRANCH   1   6
TORSDOF 2
ENDMDL
MODEL 15
REMARK VINA RESULT:      -3.7      4.243      4.987
REMARK  2 active torsions:
REMARK  status: ('A' for Active; 'I' for Inactive)
REMARK    1  A    between atoms: C_2  and  C_4 
REMARK    2  A    between atoms: C_4  and  O_5 
ROOT
HETATM    1  C   LIG     1      18.351  36.865  20.354  1.00  0.00     0.117 C 
HETATM    2  C   LIG     1      18.777  38.342  20.391  1.00  0.00     0.039 C 
ENDROOT
BRANCH   1   3
HETATM    3  C   LIG     1      17.083  36.578  21.205  1.00  0.00     0.006 C 
HETATM    4  C   LIG     1      17.079  35.181  21.848  1.00  0.00     0.012 C 
HETATM    5  C   LIG     1      16.905  37.652  22.288  1.00  0.00     0.012 C 
ENDBRANCH   1   3
BRANCH   1   6
HETATM    6  O   LIG     1      18.204  36.410  19.031  1.00  0.00    -0.396 OA
HETATM    7  H   LIG     1      18.491  35.461  18.998  1.00  0.00     0.210 HD
ENDBRANCH   1   6
TORSDOF 2
ENDMDL
MODEL 16
REMARK VINA RESULT:      -3.6      3.539      4.315
REMARK  2 active torsions:
REMARK  status: ('A' for Active; 'I' for Inactive)
REMARK    1  A    between atoms: C_2  and  C_4 
REMARK    2  A    between atoms: C_4  and  O_5 
ROOT
HETATM    1  C   LIG     1      17.539  36.829  20.819  1.00  0.00     0.117 C 
HETATM    2  C   LIG     1      18.743  36.820  19.863  1.00  0.00     0.039 C 
ENDROOT
BRANCH   1   3
HETATM    3  C   LIG     1      17.127  35.408  21.291  1.00  0.00     0.006 C 
HETATM    4  C   LIG     1      16.932  35.300  22.813  1.00  0.00     0.012 C 
HETATM    5  C   LIG     1      15.854  34.947  20.567  1.00  0.00     0.012 C 
ENDBRANCH   1   3
BRANCH   1   6
HETATM    6  O   LIG     1      17.759  37.696  21.906  1.00  0.00    -0.396 OA
HETATM    7  H   LIG     1      17.788  38.625  21.557  1.00  0.00     0.210 HD
ENDBRANCH   1   6
TORSDOF 2
ENDMDL
MODEL 17
REMARK VINA RESULT:      -3.6      2.457      3.769
REMARK  2 active torsions:
REMARK  status: ('A' for Active; 'I' for Inactive)
REMARK    1  A    between atoms: C_2  and  C_4 
REMARK    2  A    between atoms: C_4  and  O_5 
ROOT
HETATM    1  C   LIG     1      16.767  36.767  23.259  1.00  0.00     0.117 C 
HETATM    2  C   LIG     1      17.451  37.545  24.396  1.00  0.00     0.039 C 
ENDROOT
BRANCH   1   3
HETATM    3  C   LIG     1      17.036  37.379  21.857  1.00  0.00     0.006 C 
HETATM    4  C   LIG     1      17.996  38.580  21.885  1.00  0.00     0.012 C 
HETATM    5  C   LIG     1      17.566  36.308  20.894  1.00  0.00     0.012 C 
ENDBRANCH   1   3
BRANCH   1   6
HETATM    6  O   LIG     1      17.101  35.400  23.304  1.00  0.00    -0.396 OA
HETATM    7  H   LIG     1      17.812  35.280  23.986  1.00  0.00     0.210 HD
ENDBRANCH   1   6
TORSDOF 2
ENDMDL
MODEL 18
REMARK VINA RESULT:      -3.6      3.863      5.046
REMARK  2 active torsions:
REMARK  status: ('A' for Active; 'I' for Inactive)
REMARK    1  A    between atoms: C_2  and  C_4 
REMARK    2  A    between atoms: C_4  and  O_5 
ROOT
HETATM    1  C   LIG     1      17.279  37.690  21.566  1.00  0.00     0.117 C 
HETATM    2  C   LIG     1      16.939  38.838  22.530  1.00  0.00     0.039 C 
ENDROOT
BRANCH   1   3
HETATM    3  C   LIG     1      18.611  37.916  20.798  1.00  0.00     0.006 C 
HETATM    4  C   LIG     1      18.773  37.004  19.570  1.00  0.00     0.012 C 
HETATM    5  C   LIG     1      18.750  39.386  20.380  1.00  0.00     0.012 C 
ENDBRANCH   1   3
BRANCH   1   6
HETATM    6  O   LIG     1      17.262  36.447  22.226  1.00  0.00    -0.396 OA
HETATM    7  H   LIG     1      16.473  35.939  21.906  1.00  0.00     0.210 HD
ENDBRANCH   1   6
TORSDOF 2
ENDMDL
MODEL 19
REMARK VINA RESULT:      -3.6      8.437      9.388
REMARK  2 active torsions:
REMARK  status: ('A' for Active; 'I' for Inactive)
REMARK    1  A    between atoms: C_2  and  C_4 
REMARK    2  A    between atoms: C_4  and  O_5 
ROOT
HETATM    1  C   LIG     1      15.319  32.567  18.522  1.00  0.00     0.117 C 
HETATM    2  C   LIG     1      14.744  31.575  19.546  1.00  0.00     0.039 C 
ENDROOT
BRANCH   1   3
HETATM    3  C   LIG     1      14.591  32.515  17.151  1.00  0.00     0.006 C 
HETATM    4  C   LIG     1      15.540  32.643  15.947  1.00  0.00     0.012 C 
HETATM    5  C   LIG     1      13.763  31.228  17.029  1.00  0.00     0.012 C 
ENDBRANCH   1   3
BRANCH   1   6
HETATM    6  O   LIG     1      15.354  33.874  19.044  1.00  0.00    -0.396 OA
HETATM    7  H   LIG     1      15.174  33.822  20.018  1.00  0.00     0.210 HD
ENDBRANCH   1   6
TORSDOF 2
ENDMDL
MODEL 20
REMARK VINA RESULT:      -3.5      2.938      3.959
REMARK  2 active torsions:
REMARK  status: ('A' for Active; 'I' for Inactive)
REMARK    1  A    between atoms: C_2  and  C_4 
REMARK    2  A    between atoms: C_4  and  O_5 
ROOT
HETATM    1  C   LIG     1      18.072  38.131  21.886  1.00  0.00     0.117 C 
HETATM    2  C   LIG     1      18.552  39.347  21.077  1.00  0.00     0.039 C 
ENDROOT
BRANCH   1   3
HETATM    3  C   LIG     1      17.042  38.502  22.988  1.00  0.00     0.006 C 
HETATM    4  C   LIG     1      15.671  37.830  22.798  1.00  0.00     0.012 C 
HETATM    5  C   LIG     1      17.598  38.171  24.380  1.00  0.00     0.012 C 
ENDBRANCH   1   3
BRANCH   1   6
HETATM    6  O   LIG     1      17.587  37.115  21.040  1.00  0.00    -0.396 OA
HETATM    7  H   LIG     1      18.228  37.007  20.290  1.00  0.00     0.210 HD
ENDBRANCH   1   6
TORSDOF 2
ENDMDL
