REMARK  1 active torsions:
REMARK  status: ('A' for Active; 'I' for Inactive)
REMARK    1  A    between atoms: C_5  and  C_6 
ROOT
HETATM    1  C   LIG     1       3.580  -0.146  -0.153  1.00  0.00     0.043 C 
HETATM    2  C   LIG     1       2.111   0.002   0.132  1.00  0.00    -0.087 C 
HETATM    3  C   LIG     1       1.503  -0.741   1.073  1.00  0.00    -0.024 C 
HETATM    4  C   LIG     1       0.021  -0.595   1.281  1.00  0.00     0.036 C 
HETATM    5  C   LIG     1      -0.716  -0.596  -0.081  1.00  0.00     0.017 C 
HETATM    6  C   LIG     1      -0.013   0.280  -1.169  1.00  0.00     0.013 C 
HETATM    7  C   LIG     1       1.276   0.964  -0.678  1.00  0.00     0.034 C 
ENDROOT
BRANCH   5   8
HETATM    8  C   LIG     1      -2.173  -0.196   0.103  1.00  0.00    -0.089 C 
HETATM    9  C   LIG     1      -2.539   1.196   0.552  1.00  0.00     0.043 C 
HETATM   10  C   LIG     1      -3.155  -1.079  -0.133  1.00  0.00     0.014 C 
ENDBRANCH   5   8
TORSDOF 1
