MODEL 1
REMARK VINA RESULT:      -6.5      0.000      0.000
REMARK  1 active torsions:
REMARK  status: ('A' for Active; 'I' for Inactive)
REMARK    1  A    between atoms: C_5  and  C_6 
ROOT
HETATM    1  C   LIG     1      19.432  39.158  18.409  1.00  0.00     0.043 C 
HETATM    2  C   LIG     1      19.024  38.360  19.616  1.00  0.00    -0.087 C 
HETATM    3  C   LIG     1      18.597  37.090  19.503  1.00  0.00    -0.024 C 
HETATM    4  C   LIG     1      18.147  36.353  20.735  1.00  0.00     0.036 C 
HETATM    5  C   LIG     1      17.212  37.248  21.586  1.00  0.00     0.017 C 
HETATM    6  C   LIG     1      17.720  38.721  21.726  1.00  0.00     0.013 C 
HETATM    7  C   LIG     1      19.041  38.996  20.985  1.00  0.00     0.034 C 
ENDROOT
BRANCH   5   8
HETATM    8  C   LIG     1      16.961  36.612  22.945  1.00  0.00    -0.089 C 
HETATM    9  C   LIG     1      16.706  37.467  24.161  1.00  0.00     0.043 C 
HETATM   10  C   LIG     1      16.961  35.278  23.082  1.00  0.00     0.014 C 
ENDBRANCH   5   8
TORSDOF 1
ENDMDL
MODEL 2
REMARK VINA RESULT:      -6.4      1.201      2.274
REMARK  1 active torsions:
REMARK  status: ('A' for Active; 'I' for Inactive)
REMARK    1  A    between atoms: C_5  and  C_6 
ROOT
HETATM    1  C   LIG     1      20.796  38.660  19.345  1.00  0.00     0.043 C 
HETATM    2  C   LIG     1      19.432  38.407  19.925  1.00  0.00    -0.087 C 
HETATM    3  C   LIG     1      18.995  39.080  21.004  1.00  0.00    -0.024 C 
HETATM    4  C   LIG     1      17.645  38.751  21.579  1.00  0.00     0.036 C 
HETATM    5  C   LIG     1      17.469  37.216  21.693  1.00  0.00     0.017 C 
HETATM    6  C   LIG     1      17.966  36.438  20.431  1.00  0.00     0.013 C 
HETATM    7  C   LIG     1      18.540  37.346  19.328  1.00  0.00     0.034 C 
ENDROOT
BRANCH   5   8
HETATM    8  C   LIG     1      16.026  36.871  22.030  1.00  0.00    -0.089 C 
HETATM    9  C   LIG     1      15.352  35.677  21.403  1.00  0.00     0.043 C 
HETATM   10  C   LIG     1      15.330  37.626  22.894  1.00  0.00     0.014 C 
ENDBRANCH   5   8
TORSDOF 1
ENDMDL
MODEL 3
REMARK VINA RESULT:      -6.4      1.885      4.862
REMARK  1 active torsions:
REMARK  status: ('A' for Active; 'I' for Inactive)
REMARK    1  A    between atoms: C_5  and  C_6 
ROOT
HETATM    1  C   LIG     1      17.993  34.771  26.464  1.00  0.00     0.043 C 
HETATM    2  C   LIG     1      17.553  35.733  25.395  1.00  0.00    -0.087 C 
HETATM    3  C   LIG     1      17.220  35.306  24.165  1.00  0.00    -0.024 C 
HETATM    4  C   LIG     1      16.841  36.313  23.115  1.00  0.00     0.036 C 
HETATM    5  C   LIG     1      17.846  37.490  23.110  1.00  0.00     0.017 C 
HETATM    6  C   LIG     1      18.221  37.993  24.543  1.00  0.00     0.013 C 
HETATM    7  C   LIG     1      17.526  37.216  25.675  1.00  0.00     0.034 C 
ENDROOT
BRANCH   5   8
HETATM    8  C   LIG     1      17.332  38.625  22.236  1.00  0.00    -0.089 C 
HETATM    9  C   LIG     1      18.231  39.285  21.222  1.00  0.00     0.043 C 
HETATM   10  C   LIG     1      16.067  39.055  22.357  1.00  0.00     0.014 C 
ENDBRANCH   5   8
TORSDOF 1
ENDMDL
MODEL 4
REMARK VINA RESULT:      -6.3      2.134      3.418
REMARK  1 active torsions:
REMARK  status: ('A' for Active; 'I' for Inactive)
REMARK    1  A    between atoms: C_5  and  C_6 
ROOT
HETATM    1  C   LIG     1      16.207  35.404  19.958  1.00  0.00     0.043 C 
HETATM    2  C   LIG     1      16.773  35.716  21.316  1.00  0.00    -0.087 C 
HETATM    3  C   LIG     1      16.651  34.854  22.339  1.00  0.00    -0.024 C 
HETATM    4  C   LIG     1      17.185  35.238  23.692  1.00  0.00     0.036 C 
HETATM    5  C   LIG     1      16.760  36.684  24.047  1.00  0.00     0.017 C 
HETATM    6  C   LIG     1      16.915  37.687  22.857  1.00  0.00     0.013 C 
HETATM    7  C   LIG     1      17.451  37.042  21.566  1.00  0.00     0.034 C 
ENDROOT
BRANCH   5   8
HETATM    8  C   LIG     1      17.502  37.166  25.285  1.00  0.00    -0.089 C 
HETATM    9  C   LIG     1      18.300  36.205  26.129  1.00  0.00     0.043 C 
HETATM   10  C   LIG     1      17.455  38.458  25.645  1.00  0.00     0.014 C 
ENDBRANCH   5   8
TORSDOF 1
ENDMDL
MODEL 5
REMARK VINA RESULT:      -5.7      1.686      2.814
REMARK  1 active torsions:
REMARK  status: ('A' for Active; 'I' for Inactive)
REMARK    1  A    between atoms: C_5  and  C_6 
ROOT
HETATM    1  C   LIG     1      17.908  39.303  20.717  1.00  0.00     0.043 C 
HETATM    2  C   LIG     1      18.002  38.326  21.856  1.00  0.00    -0.087 C 
HETATM    3  C   LIG     1      17.301  37.179  21.853  1.00  0.00    -0.024 C 
HETATM    4  C   LIG     1      17.387  36.262  23.042  1.00  0.00     0.036 C 
HETATM    5  C   LIG     1      17.248  37.069  24.356  1.00  0.00     0.017 C 
HETATM    6  C   LIG     1      18.075  38.396  24.361  1.00  0.00     0.013 C 
HETATM    7  C   LIG     1      18.858  38.645  23.058  1.00  0.00     0.034 C 
ENDROOT
BRANCH   5   8
HETATM    8  C   LIG     1      17.586  36.195  25.555  1.00  0.00    -0.089 C 
HETATM    9  C   LIG     1      17.130  34.759  25.615  1.00  0.00     0.043 C 
HETATM   10  C   LIG     1      18.297  36.691  26.578  1.00  0.00     0.014 C 
ENDBRANCH   5   8
TORSDOF 1
ENDMDL
MODEL 6
REMARK VINA RESULT:      -5.6      9.348     10.665
REMARK  1 active torsions:
REMARK  status: ('A' for Active; 'I' for Inactive)
REMARK    1  A    between atoms: C_5  and  C_6 
ROOT
HETATM    1  C   LIG     1      14.677  33.428  16.823  1.00  0.00     0.043 C 
HETATM    2  C   LIG     1      14.770  32.061  16.205  1.00  0.00    -0.087 C 
HETATM    3  C   LIG     1      15.631  31.803  15.205  1.00  0.00    -0.024 C 
HETATM    4  C   LIG     1      15.647  30.434  14.583  1.00  0.00     0.036 C 
HETATM    5  C   LIG     1      14.202  29.958  14.294  1.00  0.00     0.017 C 
HETATM    6  C   LIG     1      13.206  30.248  15.464  1.00  0.00     0.013 C 
HETATM    7  C   LIG     1      13.853  30.956  16.669  1.00  0.00     0.034 C 
ENDROOT
BRANCH   5   8
HETATM    8  C   LIG     1      14.195  28.487  13.905  1.00  0.00    -0.089 C 
HETATM    9  C   LIG     1      12.905  27.706  13.866  1.00  0.00     0.043 C 
HETATM   10  C   LIG     1      15.339  27.862  13.591  1.00  0.00     0.014 C 
ENDBRANCH   5   8
TORSDOF 1
ENDMDL
MODEL 7
REMARK VINA RESULT:      -5.6      1.853      3.998
REMARK  1 active torsions:
REMARK  status: ('A' for Active; 'I' for Inactive)
REMARK    1  A    between atoms: C_5  and  C_6 
ROOT
HETATM    1  C   LIG     1      15.306  33.504  20.351  1.00  0.00     0.043 C 
HETATM    2  C   LIG     1      15.794  34.682  21.148  1.00  0.00    -0.087 C 
HETATM    3  C   LIG     1      14.989  35.724  21.418  1.00  0.00    -0.024 C 
HETATM    4  C   LIG     1      15.540  36.903  22.171  1.00  0.00     0.036 C 
HETATM    5  C   LIG     1      16.915  37.316  21.590  1.00  0.00     0.017 C 
HETATM    6  C   LIG     1      17.854  36.102  21.289  1.00  0.00     0.013 C 
HETATM    7  C   LIG     1      17.226  34.736  21.620  1.00  0.00     0.034 C 
ENDROOT
BRANCH   5   8
HETATM    8  C   LIG     1      17.591  38.334  22.498  1.00  0.00    -0.089 C 
HETATM    9  C   LIG     1      17.393  38.285  23.992  1.00  0.00     0.043 C 
HETATM   10  C   LIG     1      18.376  39.291  21.981  1.00  0.00     0.014 C 
ENDBRANCH   5   8
TORSDOF 1
ENDMDL
MODEL 8
REMARK VINA RESULT:      -5.6      1.870      4.171
REMARK  1 active torsions:
REMARK  status: ('A' for Active; 'I' for Inactive)
REMARK    1  A    between atoms: C_5  and  C_6 
ROOT
HETATM    1  C   LIG     1      14.693  33.524  21.232  1.00  0.00     0.043 C 
HETATM    2  C   LIG     1      15.441  34.826  21.150  1.00  0.00    -0.087 C 
HETATM    3  C   LIG     1      16.754  34.862  20.865  1.00  0.00    -0.024 C 
HETATM    4  C   LIG     1      17.468  36.185  20.851  1.00  0.00     0.036 C 
HETATM    5  C   LIG     1      17.082  37.018  22.098  1.00  0.00     0.017 C 
HETATM    6  C   LIG     1      15.552  36.985  22.418  1.00  0.00     0.013 C 
HETATM    7  C   LIG     1      14.731  36.127  21.439  1.00  0.00     0.034 C 
ENDROOT
BRANCH   5   8
HETATM    8  C   LIG     1      17.595  38.445  21.963  1.00  0.00    -0.089 C 
HETATM    9  C   LIG     1      18.689  38.781  20.982  1.00  0.00     0.043 C 
HETATM   10  C   LIG     1      17.079  39.426  22.718  1.00  0.00     0.014 C 
ENDBRANCH   5   8
TORSDOF 1
ENDMDL
MODEL 9
REMARK VINA RESULT:      -5.5      1.158      4.303
REMARK  1 active torsions:
REMARK  status: ('A' for Active; 'I' for Inactive)
REMARK    1  A    between atoms: C_5  and  C_6 
ROOT
HETATM    1  C   LIG     1      15.253  37.644  23.349  1.00  0.00     0.043 C 
HETATM    2  C   LIG     1      16.564  37.689  22.614  1.00  0.00    -0.087 C 
HETATM    3  C   LIG     1      17.171  38.857  22.338  1.00  0.00    -0.024 C 
HETATM    4  C   LIG     1      18.452  38.851  21.551  1.00  0.00     0.036 C 
HETATM    5  C   LIG     1      18.326  37.913  20.325  1.00  0.00     0.017 C 
HETATM    6  C   LIG     1      17.631  36.551  20.653  1.00  0.00     0.013 C 
HETATM    7  C   LIG     1      17.201  36.412  22.124  1.00  0.00     0.034 C 
ENDROOT
BRANCH   5   8
HETATM    8  C   LIG     1      19.686  37.704  19.673  1.00  0.00    -0.089 C 
HETATM    9  C   LIG     1      20.508  38.881  19.213  1.00  0.00     0.043 C 
HETATM   10  C   LIG     1      20.173  36.467  19.499  1.00  0.00     0.014 C 
ENDBRANCH   5   8
TORSDOF 1
ENDMDL
MODEL 10
REMARK VINA RESULT:      -5.5      1.022      4.292
REMARK  1 active torsions:
REMARK  status: ('A' for Active; 'I' for Inactive)
REMARK    1  A    between atoms: C_5  and  C_6 
ROOT
HETATM    1  C   LIG     1      16.387  37.405  24.029  1.00  0.00     0.043 C 
HETATM    2  C   LIG     1      16.964  37.714  22.675  1.00  0.00    -0.087 C 
HETATM    3  C   LIG     1      17.330  36.734  21.831  1.00  0.00    -0.024 C 
HETATM    4  C   LIG     1      17.954  37.095  20.511  1.00  0.00     0.036 C 
HETATM    5  C   LIG     1      19.041  38.179  20.709  1.00  0.00     0.017 C 
HETATM    6  C   LIG     1      18.607  39.325  21.681  1.00  0.00     0.013 C 
HETATM    7  C   LIG     1      17.190  39.147  22.257  1.00  0.00     0.034 C 
ENDROOT
BRANCH   5   8
HETATM    8  C   LIG     1      19.494  38.730  19.364  1.00  0.00    -0.089 C 
HETATM    9  C   LIG     1      18.486  39.137  18.319  1.00  0.00     0.043 C 
HETATM   10  C   LIG     1      20.800  38.861  19.089  1.00  0.00     0.014 C 
ENDBRANCH   5   8
TORSDOF 1
ENDMDL
MODEL 11
REMARK VINA RESULT:      -5.5      8.583     10.088
REMARK  1 active torsions:
REMARK  status: ('A' for Active; 'I' for Inactive)
REMARK    1  A    between atoms: C_5  and  C_6 
ROOT
HETATM    1  C   LIG     1      13.215  28.065  14.093  1.00  0.00     0.043 C 
HETATM    2  C   LIG     1      13.787  29.436  14.324  1.00  0.00    -0.087 C 
HETATM    3  C   LIG     1      14.947  29.814  13.759  1.00  0.00    -0.024 C 
HETATM    4  C   LIG     1      15.505  31.176  14.066  1.00  0.00     0.036 C 
HETATM    5  C   LIG     1      15.438  31.453  15.589  1.00  0.00     0.017 C 
HETATM    6  C   LIG     1      14.083  31.024  16.240  1.00  0.00     0.013 C 
HETATM    7  C   LIG     1      13.085  30.404  15.245  1.00  0.00     0.034 C 
ENDROOT
BRANCH   5   8
HETATM    8  C   LIG     1      15.760  32.912  15.877  1.00  0.00    -0.089 C 
HETATM    9  C   LIG     1      16.902  33.603  15.175  1.00  0.00     0.043 C 
HETATM   10  C   LIG     1      15.030  33.607  16.762  1.00  0.00     0.014 C 
ENDBRANCH   5   8
TORSDOF 1
ENDMDL
MODEL 12
REMARK VINA RESULT:      -5.4      7.840      9.105
REMARK  1 active torsions:
REMARK  status: ('A' for Active; 'I' for Inactive)
REMARK    1  A    between atoms: C_5  and  C_6 
ROOT
HETATM    1  C   LIG     1      13.434  28.865  14.092  1.00  0.00     0.043 C 
HETATM    2  C   LIG     1      13.815  30.118  14.831  1.00  0.00    -0.087 C 
HETATM    3  C   LIG     1      15.013  30.700  14.649  1.00  0.00    -0.024 C 
HETATM    4  C   LIG     1      15.367  31.921  15.454  1.00  0.00     0.036 C 
HETATM    5  C   LIG     1      15.002  31.708  16.943  1.00  0.00     0.017 C 
HETATM    6  C   LIG     1      13.602  31.042  17.151  1.00  0.00     0.013 C 
HETATM    7  C   LIG     1      12.865  30.722  15.838  1.00  0.00     0.034 C 
ENDROOT
BRANCH   5   8
HETATM    8  C   LIG     1      15.118  33.016  17.711  1.00  0.00    -0.089 C 
HETATM    9  C   LIG     1      15.307  33.018  19.207  1.00  0.00     0.043 C 
HETATM   10  C   LIG     1      15.055  34.191  17.066  1.00  0.00     0.014 C 
ENDBRANCH   5   8
TORSDOF 1
ENDMDL
MODEL 13
REMARK VINA RESULT:      -5.4      1.852      4.795
REMARK  1 active torsions:
REMARK  status: ('A' for Active; 'I' for Inactive)
REMARK    1  A    between atoms: C_5  and  C_6 
ROOT
HETATM    1  C   LIG     1      17.753  36.551  26.841  1.00  0.00     0.043 C 
HETATM    2  C   LIG     1      17.764  36.482  25.339  1.00  0.00    -0.087 C 
HETATM    3  C   LIG     1      17.663  37.592  24.587  1.00  0.00    -0.024 C 
HETATM    4  C   LIG     1      17.623  37.465  23.089  1.00  0.00     0.036 C 
HETATM    5  C   LIG     1      16.642  36.342  22.671  1.00  0.00     0.017 C 
HETATM    6  C   LIG     1      16.772  35.048  23.539  1.00  0.00     0.013 C 
HETATM    7  C   LIG     1      17.841  35.145  24.643  1.00  0.00     0.034 C 
ENDROOT
BRANCH   5   8
HETATM    8  C   LIG     1      16.786  36.037  21.187  1.00  0.00    -0.089 C 
HETATM    9  C   LIG     1      17.984  36.524  20.413  1.00  0.00     0.043 C 
HETATM   10  C   LIG     1      15.845  35.327  20.545  1.00  0.00     0.014 C 
ENDBRANCH   5   8
TORSDOF 1
ENDMDL
MODEL 14
REMARK VINA RESULT:      -5.1      8.794     10.375
REMARK  1 active torsions:
REMARK  status: ('A' for Active; 'I' for Inactive)
REMARK    1  A    between atoms: C_5  and  C_6 
ROOT
HETATM    1  C   LIG     1      12.778  28.210  13.747  1.00  0.00     0.043 C 
HETATM    2  C   LIG     1      13.627  29.226  14.460  1.00  0.00    -0.087 C 
HETATM    3  C   LIG     1      13.091  30.092  15.338  1.00  0.00    -0.024 C 
HETATM    4  C   LIG     1      13.973  31.125  15.982  1.00  0.00     0.036 C 
HETATM    5  C   LIG     1      14.877  31.799  14.921  1.00  0.00     0.017 C 
HETATM    6  C   LIG     1      15.508  30.787  13.910  1.00  0.00     0.013 C 
HETATM    7  C   LIG     1      15.103  29.323  14.161  1.00  0.00     0.034 C 
ENDROOT
BRANCH   5   8
HETATM    8  C   LIG     1      15.940  32.654  15.594  1.00  0.00    -0.089 C 
HETATM    9  C   LIG     1      17.382  32.575  15.159  1.00  0.00     0.043 C 
HETATM   10  C   LIG     1      15.609  33.494  16.587  1.00  0.00     0.014 C 
ENDBRANCH   5   8
TORSDOF 1
ENDMDL
MODEL 15
REMARK VINA RESULT:      -4.9      5.703      7.132
REMARK  1 active torsions:
REMARK  status: ('A' for Active; 'I' for Inactive)
REMARK    1  A    between atoms: C_5  and  C_6 
ROOT
HETATM    1  C   LIG     1      16.491  34.791  20.962  1.00  0.00     0.043 C 
HETATM    2  C   LIG     1      15.676  34.011  19.969  1.00  0.00    -0.087 C 
HETATM    3  C   LIG     1      15.513  32.682  20.088  1.00  0.00    -0.024 C 
HETATM    4  C   LIG     1      14.735  31.939  19.037  1.00  0.00     0.036 C 
HETATM    5  C   LIG     1      15.182  32.383  17.623  1.00  0.00     0.017 C 
HETATM    6  C   LIG     1      15.358  33.931  17.484  1.00  0.00     0.013 C 
HETATM    7  C   LIG     1      15.062  34.708  18.779  1.00  0.00     0.034 C 
ENDROOT
BRANCH   5   8
HETATM    8  C   LIG     1      14.233  31.832  16.568  1.00  0.00    -0.089 C 
HETATM    9  C   LIG     1      12.740  31.919  16.754  1.00  0.00     0.043 C 
HETATM   10  C   LIG     1      14.714  31.260  15.454  1.00  0.00     0.014 C 
ENDBRANCH   5   8
TORSDOF 1
ENDMDL
MODEL 16
REMARK VINA RESULT:      -4.8      8.193     10.144
REMARK  1 active torsions:
REMARK  status: ('A' for Active; 'I' for Inactive)
REMARK    1  A    between atoms: C_5  and  C_6 
ROOT
HETATM    1  C   LIG     1      12.992  29.551  14.866  1.00  0.00     0.043 C 
HETATM    2  C   LIG     1      14.260  30.361  14.857  1.00  0.00    -0.087 C 
HETATM    3  C   LIG     1      14.449  31.374  15.720  1.00  0.00    -0.024 C 
HETATM    4  C   LIG     1      15.710  32.188  15.633  1.00  0.00     0.036 C 
HETATM    5  C   LIG     1      16.006  32.565  14.161  1.00  0.00     0.017 C 
HETATM    6  C   LIG     1      15.798  31.381  13.161  1.00  0.00     0.013 C 
HETATM    7  C   LIG     1      15.332  30.076  13.833  1.00  0.00     0.034 C 
ENDROOT
BRANCH   5   8
HETATM    8  C   LIG     1      17.400  33.164  14.036  1.00  0.00    -0.089 C 
HETATM    9  C   LIG     1      17.798  33.939  12.805  1.00  0.00     0.043 C 
HETATM   10  C   LIG     1      18.296  33.010  15.022  1.00  0.00     0.014 C 
ENDBRANCH   5   8
TORSDOF 1
ENDMDL
MODEL 17
REMARK VINA RESULT:      -4.7      5.787      6.979
REMARK  1 active torsions:
REMARK  status: ('A' for Active; 'I' for Inactive)
REMARK    1  A    between atoms: C_5  and  C_6 
ROOT
HETATM    1  C   LIG     1      14.451  30.813  15.237  1.00  0.00     0.043 C 
HETATM    2  C   LIG     1      14.501  31.777  16.390  1.00  0.00    -0.087 C 
HETATM    3  C   LIG     1      15.229  32.906  16.328  1.00  0.00    -0.024 C 
HETATM    4  C   LIG     1      15.290  33.808  17.529  1.00  0.00     0.036 C 
HETATM    5  C   LIG     1      15.541  32.980  18.812  1.00  0.00     0.017 C 
HETATM    6  C   LIG     1      14.683  31.674  18.888  1.00  0.00     0.013 C 
HETATM    7  C   LIG     1      13.764  31.464  17.671  1.00  0.00     0.034 C 
ENDROOT
BRANCH   5   8
HETATM    8  C   LIG     1      15.351  33.846  20.050  1.00  0.00    -0.089 C 
HETATM    9  C   LIG     1      15.855  35.266  20.080  1.00  0.00     0.043 C 
HETATM   10  C   LIG     1      14.731  33.356  21.133  1.00  0.00     0.014 C 
ENDBRANCH   5   8
TORSDOF 1
ENDMDL
MODEL 18
REMARK VINA RESULT:      -4.7      7.372      9.343
REMARK  1 active torsions:
REMARK  status: ('A' for Active; 'I' for Inactive)
REMARK    1  A    between atoms: C_5  and  C_6 
ROOT
HETATM    1  C   LIG     1      13.292  30.228  16.528  1.00  0.00     0.043 C 
HETATM    2  C   LIG     1      14.195  31.163  15.771  1.00  0.00    -0.087 C 
HETATM    3  C   LIG     1      14.833  30.769  14.656  1.00  0.00    -0.024 C 
HETATM    4  C   LIG     1      15.768  31.724  13.967  1.00  0.00     0.036 C 
HETATM    5  C   LIG     1      16.694  32.410  15.002  1.00  0.00     0.017 C 
HETATM    6  C   LIG     1      15.945  32.879  16.292  1.00  0.00     0.013 C 
HETATM    7  C   LIG     1      14.439  32.561  16.286  1.00  0.00     0.034 C 
ENDROOT
BRANCH   5   8
HETATM    8  C   LIG     1      17.460  33.554  14.353  1.00  0.00    -0.089 C 
HETATM    9  C   LIG     1      18.241  33.335  13.082  1.00  0.00     0.043 C 
HETATM   10  C   LIG     1      17.451  34.777  14.904  1.00  0.00     0.014 C 
ENDBRANCH   5   8
TORSDOF 1
ENDMDL
MODEL 19
REMARK VINA RESULT:      -4.4     10.304     11.756
REMARK  1 active torsions:
REMARK  status: ('A' for Active; 'I' for Inactive)
REMARK    1  A    between atoms: C_5  and  C_6 
ROOT
HETATM    1  C   LIG     1      12.909  26.599  12.839  1.00  0.00     0.043 C 
HETATM    2  C   LIG     1      13.460  27.745  13.642  1.00  0.00    -0.087 C 
HETATM    3  C   LIG     1      12.653  28.690  14.156  1.00  0.00    -0.024 C 
HETATM    4  C   LIG     1      13.258  29.845  14.904  1.00  0.00     0.036 C 
HETATM    5  C   LIG     1      14.465  30.419  14.122  1.00  0.00     0.017 C 
HETATM    6  C   LIG     1      15.408  29.317  13.537  1.00  0.00     0.013 C 
HETATM    7  C   LIG     1      14.949  27.880  13.844  1.00  0.00     0.034 C 
ENDROOT
BRANCH   5   8
HETATM    8  C   LIG     1      15.233  31.412  14.983  1.00  0.00    -0.089 C 
HETATM    9  C   LIG     1      14.701  31.839  16.327  1.00  0.00     0.043 C 
HETATM   10  C   LIG     1      16.398  31.923  14.557  1.00  0.00     0.014 C 
ENDBRANCH   5   8
TORSDOF 1
ENDMDL
MODEL 20
REMARK VINA RESULT:      -4.0     17.755     18.786
REMARK  1 active torsions:
REMARK  status: ('A' for Active; 'I' for Inactive)
REMARK    1  A    between atoms: C_5  and  C_6 
ROOT
HETATM    1  C   LIG     1      27.044  32.532  38.088  1.00  0.00     0.043 C 
HETATM    2  C   LIG     1      27.335  31.468  37.066  1.00  0.00    -0.087 C 
HETATM    3  C   LIG     1      28.494  31.452  36.384  1.00  0.00    -0.024 C 
HETATM    4  C   LIG     1      28.714  30.399  35.333  1.00  0.00     0.036 C 
HETATM    5  C   LIG     1      27.462  30.270  34.431  1.00  0.00     0.017 C 
HETATM    6  C   LIG     1      26.117  30.276  35.228  1.00  0.00     0.013 C 
HETATM    7  C   LIG     1      26.298  30.417  36.751  1.00  0.00     0.034 C 
ENDROOT
BRANCH   5   8
HETATM    8  C   LIG     1      27.576  29.044  33.536  1.00  0.00    -0.089 C 
HETATM    9  C   LIG     1      26.503  27.985  33.539  1.00  0.00     0.043 C 
HETATM   10  C   LIG     1      28.636  28.888  32.729  1.00  0.00     0.014 C 
ENDBRANCH   5   8
TORSDOF 1
ENDMDL
