REMARK  3 active torsions:
REMARK  status: ('A' for Active; 'I' for Inactive)
REMARK    1  A    between atoms: O_1  and  C_2 
REMARK    2  A    between atoms: C_2  and  C_3 
REMARK    3  A    between atoms: C_3  and  C_4 
ROOT
HETATM    1  C   LIG     1       0.070  -0.396  -0.337  1.00  0.00    -0.056 A 
HETATM    2  C   LIG     1       0.611   0.656  -1.095  1.00  0.00     0.007 A 
HETATM    3  C   LIG     1       1.915   1.101  -0.855  1.00  0.00     0.001 A 
HETATM    4  C   LIG     1       2.688   0.499   0.141  1.00  0.00     0.000 A 
HETATM    5  C   LIG     1       2.160  -0.552   0.896  1.00  0.00     0.001 A 
HETATM    6  C   LIG     1       0.857  -1.001   0.659  1.00  0.00     0.007 A 
ENDROOT
BRANCH   1   7
HETATM    7  C   LIG     1      -1.334  -0.880  -0.600  1.00  0.00     0.064 C 
BRANCH   7   8
HETATM    8  C   LIG     1      -2.377   0.152  -0.167  1.00  0.00     0.168 C 
BRANCH   8   9
HETATM    9  O   LIG     1      -2.291   0.370   1.215  1.00  0.00    -0.401 OA
HETATM   10  H   LIG     1      -2.985   1.046   1.430  1.00  0.00     0.209 HD
ENDBRANCH   8   9
ENDBRANCH   7   8
ENDBRANCH   1   7
TORSDOF 3
