REMARK  6 active torsions:
REMARK  status: ('A' for Active; 'I' for Inactive)
REMARK    1  A    between atoms: N_1  and  CA_2 
REMARK    2  A    between atoms: CA_2  and  CB_3 
REMARK    3  A    between atoms: CA_2  and  C_11 
REMARK    4  A    between atoms: CB_3  and  CG_4 
REMARK    5  A    between atoms: CZ_7  and  OH_8 
REMARK    6  A    between atoms: C_11  and  O_12 
ROOT
ATOM      1  CB  TYR A   1      -0.922  -0.932  -0.305  1.00  0.00     0.085 C 
ENDROOT
BRANCH   1   2
ATOM      2  CA  TYR A   1      -1.876   0.278  -0.348  1.00  0.00     0.318 C 
BRANCH   2   3
ATOM      3  N   TYR A   1      -2.000   0.885   0.979  1.00  0.00     0.093 N 
ATOM      4  H1  TYR A   1      -1.077   1.299   1.244  1.00  0.00     0.314 HD
ATOM      5  H2  TYR A   1      -2.661   1.694   0.911  1.00  0.00     0.314 HD
ENDBRANCH   2   3
BRANCH   2   6
ATOM      6  C   TYR A   1      -3.231  -0.160  -0.830  1.00  0.00     0.174 C 
ATOM      7  OXT TYR A   1      -3.906  -0.991  -0.163  1.00  0.00    -0.648 OA
BRANCH   6   8
ATOM      8  O   TYR A   1      -3.745   0.358  -2.015  1.00  0.00    -0.775 OA
ATOM      9  H   TYR A   1      -4.657   0.075  -2.353  1.00  0.00     0.167 HD
ENDBRANCH   6   8
ENDBRANCH   2   6
ENDBRANCH   1   2
BRANCH   1  10
ATOM     10  CG  TYR A   1       0.502  -0.522  -0.021  1.00  0.00    -0.055 A 
ATOM     11  CD1 TYR A   1       1.110  -0.855   1.202  1.00  0.00     0.010 A 
ATOM     12  CE1 TYR A   1       2.430  -0.475   1.460  1.00  0.00     0.037 A 
ATOM     13  CZ  TYR A   1       3.159   0.237   0.499  1.00  0.00     0.065 A 
ATOM     14  CE2 TYR A   1       2.561   0.566  -0.722  1.00  0.00     0.037 A 
ATOM     15  CD2 TYR A   1       1.241   0.187  -0.983  1.00  0.00     0.010 A 
BRANCH  13  16
ATOM     16  OH  TYR A   1       4.475   0.622   0.745  1.00  0.00    -0.361 OA
ATOM     17  HH  TYR A   1       4.937   0.399   1.619  1.00  0.00     0.217 HD
ENDBRANCH  13  16
ENDBRANCH   1  10
TORSDOF 6
