MODEL 1
REMARK VINA RESULT:      -3.5      0.000      0.000
REMARK  2 active torsions:
REMARK  status: ('A' for Active; 'I' for Inactive)
REMARK    1  A    between atoms: C_2  and  O_3 
REMARK    2  A    between atoms: O_3  and  C_4 
ROOT
HETATM    1  O   LIG     1      16.244  37.876  24.551  1.00  0.00    -0.392 OA
ENDROOT
BRANCH   1   2
HETATM    2  C   LIG     1      17.389  38.198  25.318  1.00  0.00     0.163 C 
HETATM    3  C   LIG     1      18.050  36.927  25.838  1.00  0.00     0.033 C 
ENDBRANCH   1   2
BRANCH   1   4
HETATM    4  C   LIG     1      16.610  37.562  23.223  1.00  0.00     0.163 C 
HETATM    5  C   LIG     1      17.001  38.840  22.497  1.00  0.00     0.033 C 
ENDBRANCH   1   4
TORSDOF 2
ENDMDL
MODEL 2
REMARK VINA RESULT:      -3.5      0.053      2.929
REMARK  2 active torsions:
REMARK  status: ('A' for Active; 'I' for Inactive)
REMARK    1  A    between atoms: C_2  and  O_3 
REMARK    2  A    between atoms: O_3  and  C_4 
ROOT
HETATM    1  O   LIG     1      16.267  37.889  24.562  1.00  0.00    -0.392 OA
ENDROOT
BRANCH   1   2
HETATM    2  C   LIG     1      16.686  37.556  23.251  1.00  0.00     0.163 C 
HETATM    3  C   LIG     1      16.992  38.822  22.458  1.00  0.00     0.033 C 
ENDBRANCH   1   2
BRANCH   1   4
HETATM    4  C   LIG     1      17.381  38.194  25.376  1.00  0.00     0.163 C 
HETATM    5  C   LIG     1      18.038  36.900  25.830  1.00  0.00     0.033 C 
ENDBRANCH   1   4
TORSDOF 2
ENDMDL
MODEL 3
REMARK VINA RESULT:      -3.4      1.674      2.266
REMARK  2 active torsions:
REMARK  status: ('A' for Active; 'I' for Inactive)
REMARK    1  A    between atoms: C_2  and  O_3 
REMARK    2  A    between atoms: O_3  and  C_4 
ROOT
HETATM    1  O   LIG     1      18.557  37.211  25.714  1.00  0.00    -0.392 OA
ENDROOT
BRANCH   1   2
HETATM    2  C   LIG     1      18.307  36.263  26.736  1.00  0.00     0.163 C 
HETATM    3  C   LIG     1      17.904  34.925  26.129  1.00  0.00     0.033 C 
ENDBRANCH   1   2
BRANCH   1   4
HETATM    4  C   LIG     1      17.370  37.898  25.375  1.00  0.00     0.163 C 
HETATM    5  C   LIG     1      17.355  38.161  23.878  1.00  0.00     0.033 C 
ENDBRANCH   1   4
TORSDOF 2
ENDMDL
MODEL 4
REMARK VINA RESULT:      -3.3      2.063      2.517
REMARK  2 active torsions:
REMARK  status: ('A' for Active; 'I' for Inactive)
REMARK    1  A    between atoms: C_2  and  O_3 
REMARK    2  A    between atoms: O_3  and  C_4 
ROOT
HETATM    1  O   LIG     1      17.300  36.440  24.665  1.00  0.00    -0.392 OA
ENDROOT
BRANCH   1   2
HETATM    2  C   LIG     1      17.356  35.073  25.028  1.00  0.00     0.163 C 
HETATM    3  C   LIG     1      18.209  34.893  26.279  1.00  0.00     0.033 C 
ENDBRANCH   1   2
BRANCH   1   4
HETATM    4  C   LIG     1      16.923  36.578  23.311  1.00  0.00     0.163 C 
HETATM    5  C   LIG     1      16.933  35.209  22.647  1.00  0.00     0.033 C 
ENDBRANCH   1   4
TORSDOF 2
ENDMDL
MODEL 5
REMARK VINA RESULT:      -3.2      1.636      3.348
REMARK  2 active torsions:
REMARK  status: ('A' for Active; 'I' for Inactive)
REMARK    1  A    between atoms: C_2  and  O_3 
REMARK    2  A    between atoms: O_3  and  C_4 
ROOT
HETATM    1  O   LIG     1      17.307  35.757  24.431  1.00  0.00    -0.392 OA
ENDROOT
BRANCH   1   2
HETATM    2  C   LIG     1      17.125  37.124  24.751  1.00  0.00     0.163 C 
HETATM    3  C   LIG     1      16.781  37.918  23.497  1.00  0.00     0.033 C 
ENDBRANCH   1   2
BRANCH   1   4
HETATM    4  C   LIG     1      17.506  34.995  25.605  1.00  0.00     0.163 C 
HETATM    5  C   LIG     1      18.307  35.816  26.603  1.00  0.00     0.033 C 
ENDBRANCH   1   4
TORSDOF 2
ENDMDL
MODEL 6
REMARK VINA RESULT:      -3.0      8.768      9.898
REMARK  2 active torsions:
REMARK  status: ('A' for Active; 'I' for Inactive)
REMARK    1  A    between atoms: C_2  and  O_3 
REMARK    2  A    between atoms: O_3  and  C_4 
ROOT
HETATM    1  O   LIG     1      13.944  31.413  18.053  1.00  0.00    -0.392 OA
ENDROOT
BRANCH   1   2
HETATM    2  C   LIG     1      13.247  31.802  16.884  1.00  0.00     0.163 C 
HETATM    3  C   LIG     1      13.183  30.642  15.897  1.00  0.00     0.033 C 
ENDBRANCH   1   2
BRANCH   1   4
HETATM    4  C   LIG     1      14.968  32.340  18.352  1.00  0.00     0.163 C 
HETATM    5  C   LIG     1      15.496  32.068  19.751  1.00  0.00     0.033 C 
ENDBRANCH   1   4
TORSDOF 2
ENDMDL
MODEL 7
REMARK VINA RESULT:      -3.0      8.759      9.533
REMARK  2 active torsions:
REMARK  status: ('A' for Active; 'I' for Inactive)
REMARK    1  A    between atoms: C_2  and  O_3 
REMARK    2  A    between atoms: O_3  and  C_4 
ROOT
HETATM    1  O   LIG     1      13.941  31.420  18.048  1.00  0.00    -0.392 OA
ENDROOT
BRANCH   1   2
HETATM    2  C   LIG     1      14.977  32.338  18.341  1.00  0.00     0.163 C 
HETATM    3  C   LIG     1      15.512  32.098  19.749  1.00  0.00     0.033 C 
ENDBRANCH   1   2
BRANCH   1   4
HETATM    4  C   LIG     1      13.239  31.818  16.889  1.00  0.00     0.163 C 
HETATM    5  C   LIG     1      13.176  30.651  15.916  1.00  0.00     0.033 C 
ENDBRANCH   1   4
TORSDOF 2
ENDMDL
MODEL 8
REMARK VINA RESULT:      -3.0      3.682      4.601
REMARK  2 active torsions:
REMARK  status: ('A' for Active; 'I' for Inactive)
REMARK    1  A    between atoms: C_2  and  O_3 
REMARK    2  A    between atoms: O_3  and  C_4 
ROOT
HETATM    1  O   LIG     1      19.695  39.081  20.739  1.00  0.00    -0.392 OA
ENDROOT
BRANCH   1   2
HETATM    2  C   LIG     1      18.309  39.154  21.019  1.00  0.00     0.163 C 
HETATM    3  C   LIG     1      18.052  38.859  22.492  1.00  0.00     0.033 C 
ENDBRANCH   1   2
BRANCH   1   4
HETATM    4  C   LIG     1      19.916  38.457  19.491  1.00  0.00     0.163 C 
HETATM    5  C   LIG     1      19.237  37.097  19.485  1.00  0.00     0.033 C 
ENDBRANCH   1   4
TORSDOF 2
ENDMDL
MODEL 9
REMARK VINA RESULT:      -3.0      3.092      3.686
REMARK  2 active torsions:
REMARK  status: ('A' for Active; 'I' for Inactive)
REMARK    1  A    between atoms: C_2  and  O_3 
REMARK    2  A    between atoms: O_3  and  C_4 
ROOT
HETATM    1  O   LIG     1      17.623  37.354  21.393  1.00  0.00    -0.392 OA
ENDROOT
BRANCH   1   2
HETATM    2  C   LIG     1      16.797  36.732  22.359  1.00  0.00     0.163 C 
HETATM    3  C   LIG     1      16.940  35.216  22.279  1.00  0.00     0.033 C 
ENDBRANCH   1   2
BRANCH   1   4
HETATM    4  C   LIG     1      17.942  36.449  20.357  1.00  0.00     0.163 C 
HETATM    5  C   LIG     1      19.105  37.003  19.549  1.00  0.00     0.033 C 
ENDBRANCH   1   4
TORSDOF 2
ENDMDL
MODEL 10
REMARK VINA RESULT:      -2.8      3.116      4.486
REMARK  2 active torsions:
REMARK  status: ('A' for Active; 'I' for Inactive)
REMARK    1  A    between atoms: C_2  and  O_3 
REMARK    2  A    between atoms: O_3  and  C_4 
ROOT
HETATM    1  O   LIG     1      18.363  38.165  20.837  1.00  0.00    -0.392 OA
ENDROOT
BRANCH   1   2
HETATM    2  C   LIG     1      19.154  39.273  20.450  1.00  0.00     0.163 C 
HETATM    3  C   LIG     1      20.281  38.820  19.528  1.00  0.00     0.033 C 
ENDBRANCH   1   2
BRANCH   1   4
HETATM    4  C   LIG     1      17.563  38.493  21.955  1.00  0.00     0.163 C 
HETATM    5  C   LIG     1      16.729  37.283  22.345  1.00  0.00     0.033 C 
ENDBRANCH   1   4
TORSDOF 2
ENDMDL
MODEL 11
REMARK VINA RESULT:      -2.8      1.603      2.686
REMARK  2 active torsions:
REMARK  status: ('A' for Active; 'I' for Inactive)
REMARK    1  A    between atoms: C_2  and  O_3 
REMARK    2  A    between atoms: O_3  and  C_4 
ROOT
HETATM    1  O   LIG     1      16.784  37.069  23.693  1.00  0.00    -0.392 OA
ENDROOT
BRANCH   1   2
HETATM    2  C   LIG     1      17.493  38.294  23.703  1.00  0.00     0.163 C 
HETATM    3  C   LIG     1      17.458  38.936  22.321  1.00  0.00     0.033 C 
ENDBRANCH   1   2
BRANCH   1   4
HETATM    4  C   LIG     1      16.555  36.640  22.366  1.00  0.00     0.163 C 
HETATM    5  C   LIG     1      16.979  35.186  22.231  1.00  0.00     0.033 C 
ENDBRANCH   1   4
TORSDOF 2
ENDMDL
MODEL 12
REMARK VINA RESULT:      -2.8      1.875      2.632
REMARK  2 active torsions:
REMARK  status: ('A' for Active; 'I' for Inactive)
REMARK    1  A    between atoms: C_2  and  O_3 
REMARK    2  A    between atoms: O_3  and  C_4 
ROOT
HETATM    1  O   LIG     1      18.107  38.613  23.005  1.00  0.00    -0.392 OA
ENDROOT
BRANCH   1   2
HETATM    2  C   LIG     1      17.091  37.974  23.755  1.00  0.00     0.163 C 
HETATM    3  C   LIG     1      15.833  37.812  22.909  1.00  0.00     0.033 C 
ENDBRANCH   1   2
BRANCH   1   4
HETATM    4  C   LIG     1      17.833  38.523  21.622  1.00  0.00     0.163 C 
HETATM    5  C   LIG     1      18.853  39.352  20.856  1.00  0.00     0.033 C 
ENDBRANCH   1   4
TORSDOF 2
ENDMDL
MODEL 13
REMARK VINA RESULT:      -2.8      5.563      6.387
REMARK  2 active torsions:
REMARK  status: ('A' for Active; 'I' for Inactive)
REMARK    1  A    between atoms: C_2  and  O_3 
REMARK    2  A    between atoms: O_3  and  C_4 
ROOT
HETATM    1  O   LIG     1      16.137  33.352  20.270  1.00  0.00    -0.392 OA
ENDROOT
BRANCH   1   2
HETATM    2  C   LIG     1      15.562  34.529  20.806  1.00  0.00     0.163 C 
HETATM    3  C   LIG     1      16.392  35.037  21.979  1.00  0.00     0.033 C 
ENDBRANCH   1   2
BRANCH   1   4
HETATM    4  C   LIG     1      15.215  32.686  19.433  1.00  0.00     0.163 C 
HETATM    5  C   LIG     1      14.851  31.348  20.056  1.00  0.00     0.033 C 
ENDBRANCH   1   4
TORSDOF 2
ENDMDL
MODEL 14
REMARK VINA RESULT:      -2.7      1.699      2.742
REMARK  2 active torsions:
REMARK  status: ('A' for Active; 'I' for Inactive)
REMARK    1  A    between atoms: C_2  and  O_3 
REMARK    2  A    between atoms: O_3  and  C_4 
ROOT
HETATM    1  O   LIG     1      17.062  36.621  23.669  1.00  0.00    -0.392 OA
ENDROOT
BRANCH   1   2
HETATM    2  C   LIG     1      16.738  36.505  22.295  1.00  0.00     0.163 C 
HETATM    3  C   LIG     1      16.767  35.042  21.869  1.00  0.00     0.033 C 
ENDBRANCH   1   2
BRANCH   1   4
HETATM    4  C   LIG     1      16.959  37.966  24.089  1.00  0.00     0.163 C 
HETATM    5  C   LIG     1      17.111  38.880  22.883  1.00  0.00     0.033 C 
ENDBRANCH   1   4
TORSDOF 2
ENDMDL
MODEL 15
REMARK VINA RESULT:      -2.7      8.392      9.176
REMARK  2 active torsions:
REMARK  status: ('A' for Active; 'I' for Inactive)
REMARK    1  A    between atoms: C_2  and  O_3 
REMARK    2  A    between atoms: O_3  and  C_4 
ROOT
HETATM    1  O   LIG     1      15.829  32.535  17.326  1.00  0.00    -0.392 OA
ENDROOT
BRANCH   1   2
HETATM    2  C   LIG     1      14.885  32.451  18.377  1.00  0.00     0.163 C 
HETATM    3  C   LIG     1      15.580  32.088  19.684  1.00  0.00     0.033 C 
ENDBRANCH   1   2
BRANCH   1   4
HETATM    4  C   LIG     1      15.201  32.328  16.077  1.00  0.00     0.163 C 
HETATM    5  C   LIG     1      14.117  31.273  16.232  1.00  0.00     0.033 C 
ENDBRANCH   1   4
TORSDOF 2
ENDMDL
MODEL 16
REMARK VINA RESULT:      -2.6     11.682     12.604
REMARK  2 active torsions:
REMARK  status: ('A' for Active; 'I' for Inactive)
REMARK    1  A    between atoms: C_2  and  O_3 
REMARK    2  A    between atoms: O_3  and  C_4 
ROOT
HETATM    1  O   LIG     1      14.763  30.953  14.825  1.00  0.00    -0.392 OA
ENDROOT
BRANCH   1   2
HETATM    2  C   LIG     1      13.564  30.345  15.268  1.00  0.00     0.163 C 
HETATM    3  C   LIG     1      12.965  31.138  16.424  1.00  0.00     0.033 C 
ENDBRANCH   1   2
BRANCH   1   4
HETATM    4  C   LIG     1      15.218  30.343  13.635  1.00  0.00     0.163 C 
HETATM    5  C   LIG     1      15.254  28.835  13.829  1.00  0.00     0.033 C 
ENDBRANCH   1   4
TORSDOF 2
ENDMDL
MODEL 17
REMARK VINA RESULT:      -2.5      9.224     10.222
REMARK  2 active torsions:
REMARK  status: ('A' for Active; 'I' for Inactive)
REMARK    1  A    between atoms: C_2  and  O_3 
REMARK    2  A    between atoms: O_3  and  C_4 
ROOT
HETATM    1  O   LIG     1      14.359  32.145  17.398  1.00  0.00    -0.392 OA
ENDROOT
BRANCH   1   2
HETATM    2  C   LIG     1      14.997  33.254  16.792  1.00  0.00     0.163 C 
HETATM    3  C   LIG     1      15.987  32.781  15.734  1.00  0.00     0.033 C 
ENDBRANCH   1   2
BRANCH   1   4
HETATM    4  C   LIG     1      13.069  31.956  16.853  1.00  0.00     0.163 C 
HETATM    5  C   LIG     1      13.030  30.629  16.112  1.00  0.00     0.033 C 
ENDBRANCH   1   4
TORSDOF 2
ENDMDL
MODEL 18
REMARK VINA RESULT:      -2.5     10.258     11.146
REMARK  2 active torsions:
REMARK  status: ('A' for Active; 'I' for Inactive)
REMARK    1  A    between atoms: C_2  and  O_3 
REMARK    2  A    between atoms: O_3  and  C_4 
ROOT
HETATM    1  O   LIG     1      13.820  30.710  16.379  1.00  0.00    -0.392 OA
ENDROOT
BRANCH   1   2
HETATM    2  C   LIG     1      14.016  31.774  17.292  1.00  0.00     0.163 C 
HETATM    3  C   LIG     1      14.948  32.820  16.690  1.00  0.00     0.033 C 
ENDBRANCH   1   2
BRANCH   1   4
HETATM    4  C   LIG     1      14.573  30.920  15.203  1.00  0.00     0.163 C 
HETATM    5  C   LIG     1      14.409  29.720  14.284  1.00  0.00     0.033 C 
ENDBRANCH   1   4
TORSDOF 2
ENDMDL
MODEL 19
REMARK VINA RESULT:      -2.5     11.226     12.175
REMARK  2 active torsions:
REMARK  status: ('A' for Active; 'I' for Inactive)
REMARK    1  A    between atoms: C_2  and  O_3 
REMARK    2  A    between atoms: O_3  and  C_4 
ROOT
HETATM    1  O   LIG     1      16.516  31.247  14.706  1.00  0.00    -0.392 OA
ENDROOT
BRANCH   1   2
HETATM    2  C   LIG     1      16.905  32.605  14.808  1.00  0.00     0.163 C 
HETATM    3  C   LIG     1      17.245  33.162  13.431  1.00  0.00     0.033 C 
ENDBRANCH   1   2
BRANCH   1   4
HETATM    4  C   LIG     1      15.505  31.093  13.731  1.00  0.00     0.163 C 
HETATM    5  C   LIG     1      14.644  29.892  14.090  1.00  0.00     0.033 C 
ENDBRANCH   1   4
TORSDOF 2
ENDMDL
MODEL 20
REMARK VINA RESULT:      -2.4      9.249     10.123
REMARK  2 active torsions:
REMARK  status: ('A' for Active; 'I' for Inactive)
REMARK    1  A    between atoms: C_2  and  O_3 
REMARK    2  A    between atoms: O_3  and  C_4 
ROOT
HETATM    1  O   LIG     1      16.805  32.840  15.860  1.00  0.00    -0.392 OA
ENDROOT
BRANCH   1   2
HETATM    2  C   LIG     1      15.453  32.772  16.273  1.00  0.00     0.163 C 
HETATM    3  C   LIG     1      15.040  34.076  16.946  1.00  0.00     0.033 C 
ENDBRANCH   1   2
BRANCH   1   4
HETATM    4  C   LIG     1      16.898  32.756  14.453  1.00  0.00     0.163 C 
HETATM    5  C   LIG     1      17.954  33.735  13.963  1.00  0.00     0.033 C 
ENDBRANCH   1   4
TORSDOF 2
ENDMDL
