REMARK  2 active torsions:
REMARK  status: ('A' for Active; 'I' for Inactive)
REMARK    1  A    between atoms: C_2  and  O_3 
REMARK    2  A    between atoms: O_3  and  C_4 
ROOT
HETATM    1  O   LIG     1      -0.227   0.689   0.105  1.00  0.00    -0.392 OA
ENDROOT
BRANCH   1   2
HETATM    2  C   LIG     1       1.144   0.834  -0.216  1.00  0.00     0.163 C 
HETATM    3  C   LIG     1       1.988  -0.108   0.635  1.00  0.00     0.033 C 
ENDBRANCH   1   2
BRANCH   1   4
HETATM    4  C   LIG     1      -0.861  -0.181  -0.810  1.00  0.00     0.163 C 
HETATM    5  C   LIG     1      -2.293  -0.423  -0.359  1.00  0.00     0.033 C 
ENDBRANCH   1   4
TORSDOF 2
