REMARK  1 active torsions:
REMARK  status: ('A' for Active; 'I' for Inactive)
REMARK    1  A    between atoms: N_2  and  N_3 
ROOT
HETATM    1  C   LIG     1       1.027  -0.239  -0.122  1.00  0.00     0.126 C 
HETATM    2  N   LIG     1      -0.114   0.617   0.193  1.00  0.00    -0.268 NA
HETATM    3  H   LIG     1      -0.145   1.365  -0.539  1.00  0.00     0.139 HD
ENDROOT
BRANCH   2   4
HETATM    4  N   LIG     1      -1.285  -0.152   0.063  1.00  0.00    -0.271 NA
HETATM    5  H   LIG     1      -1.378  -0.725   0.933  1.00  0.00     0.137 HD
HETATM    6  H   LIG     1      -2.098   0.507   0.073  1.00  0.00     0.137 HD
ENDBRANCH   2   4
TORSDOF 1
