MODEL 1
REMARK VINA RESULT:      -3.3      0.000      0.000
REMARK  0 active torsions:
REMARK  status: ('A' for Active; 'I' for Inactive)
REMARK       I    between atoms: C_2  and  N_3 
ROOT
HETATM    1  C   LIG     1      12.630  30.740  26.229  1.00  0.00     0.117 C 
HETATM    2  C   LIG     1      12.826  31.740  27.322  1.00  0.00     0.211 C 
HETATM    3  N   LIG     1      13.616  31.410  28.463  1.00  0.00    -0.370 N 
HETATM    4  O   LIG     1      12.293  32.879  27.237  1.00  0.00    -0.274 OA
HETATM    5  H   LIG     1      13.755  32.106  29.228  1.00  0.00     0.159 HD
HETATM    6  H   LIG     1      14.063  30.469  28.545  1.00  0.00     0.159 HD
ENDROOT
TORSDOF 0
ENDMDL
MODEL 2
REMARK VINA RESULT:      -3.2      7.723      7.749
REMARK  0 active torsions:
REMARK  status: ('A' for Active; 'I' for Inactive)
REMARK       I    between atoms: C_2  and  N_3 
ROOT
HETATM    1  C   LIG     1      18.387  36.502  26.540  1.00  0.00     0.117 C 
HETATM    2  C   LIG     1      17.582  37.203  25.494  1.00  0.00     0.211 C 
HETATM    3  N   LIG     1      17.295  38.594  25.623  1.00  0.00    -0.370 N 
HETATM    4  O   LIG     1      17.153  36.565  24.496  1.00  0.00    -0.274 OA
HETATM    5  H   LIG     1      16.733  39.087  24.894  1.00  0.00     0.159 HD
HETATM    6  H   LIG     1      17.644  39.134  26.446  1.00  0.00     0.159 HD
ENDROOT
TORSDOF 0
ENDMDL
MODEL 3
REMARK VINA RESULT:      -3.2     12.310     12.310
REMARK  0 active torsions:
REMARK  status: ('A' for Active; 'I' for Inactive)
REMARK       I    between atoms: C_2  and  N_3 
ROOT
HETATM    1  C   LIG     1      19.188  37.466  19.560  1.00  0.00     0.117 C 
HETATM    2  C   LIG     1      19.664  38.822  19.968  1.00  0.00     0.211 C 
HETATM    3  N   LIG     1      19.189  39.415  21.175  1.00  0.00    -0.370 N 
HETATM    4  O   LIG     1      20.486  39.446  19.245  1.00  0.00    -0.274 OA
HETATM    5  H   LIG     1      19.519  40.362  21.464  1.00  0.00     0.159 HD
HETATM    6  H   LIG     1      18.507  38.908  21.783  1.00  0.00     0.159 HD
ENDROOT
TORSDOF 0
ENDMDL
MODEL 4
REMARK VINA RESULT:      -3.2      7.474      7.588
REMARK  0 active torsions:
REMARK  status: ('A' for Active; 'I' for Inactive)
REMARK       I    between atoms: C_2  and  N_3 
ROOT
HETATM    1  C   LIG     1      17.327  36.117  24.647  1.00  0.00     0.117 C 
HETATM    2  C   LIG     1      16.893  37.537  24.820  1.00  0.00     0.211 C 
HETATM    3  N   LIG     1      17.561  38.382  25.755  1.00  0.00    -0.370 N 
HETATM    4  O   LIG     1      15.934  37.990  24.140  1.00  0.00    -0.274 OA
HETATM    5  H   LIG     1      17.261  39.373  25.879  1.00  0.00     0.159 HD
HETATM    6  H   LIG     1      18.357  38.018  26.325  1.00  0.00     0.159 HD
ENDROOT
TORSDOF 0
ENDMDL
MODEL 5
REMARK VINA RESULT:      -3.0      2.093      2.218
REMARK  0 active torsions:
REMARK  status: ('A' for Active; 'I' for Inactive)
REMARK       I    between atoms: C_2  and  N_3 
ROOT
HETATM    1  C   LIG     1      12.657  32.370  27.285  1.00  0.00     0.117 C 
HETATM    2  C   LIG     1      13.169  30.980  27.482  1.00  0.00     0.211 C 
HETATM    3  N   LIG     1      12.669  29.912  26.680  1.00  0.00    -0.370 N 
HETATM    4  O   LIG     1      14.044  30.749  28.359  1.00  0.00    -0.274 OA
HETATM    5  H   LIG     1      13.024  28.940  26.814  1.00  0.00     0.159 HD
HETATM    6  H   LIG     1      11.944  30.090  25.950  1.00  0.00     0.159 HD
ENDROOT
TORSDOF 0
ENDMDL
MODEL 6
REMARK VINA RESULT:      -3.0      7.863      7.943
REMARK  0 active torsions:
REMARK  status: ('A' for Active; 'I' for Inactive)
REMARK       I    between atoms: C_2  and  N_3 
ROOT
HETATM    1  C   LIG     1      17.052  36.383  23.584  1.00  0.00     0.117 C 
HETATM    2  C   LIG     1      16.418  37.697  23.903  1.00  0.00     0.211 C 
HETATM    3  N   LIG     1      15.302  38.158  23.142  1.00  0.00    -0.370 N 
HETATM    4  O   LIG     1      16.869  38.403  24.844  1.00  0.00    -0.274 OA
HETATM    5  H   LIG     1      14.857  39.076  23.361  1.00  0.00     0.159 HD
HETATM    6  H   LIG     1      14.920  37.583  22.359  1.00  0.00     0.159 HD
ENDROOT
TORSDOF 0
ENDMDL
MODEL 7
REMARK VINA RESULT:      -2.9      7.618      7.659
REMARK  0 active torsions:
REMARK  status: ('A' for Active; 'I' for Inactive)
REMARK       I    between atoms: C_2  and  N_3 
ROOT
HETATM    1  C   LIG     1      15.459  32.160  19.777  1.00  0.00     0.117 C 
HETATM    2  C   LIG     1      15.349  33.518  20.390  1.00  0.00     0.211 C 
HETATM    3  N   LIG     1      14.362  33.776  21.387  1.00  0.00    -0.370 N 
HETATM    4  O   LIG     1      16.129  34.439  20.026  1.00  0.00    -0.274 OA
HETATM    5  H   LIG     1      14.282  34.724  21.818  1.00  0.00     0.159 HD
HETATM    6  H   LIG     1      13.710  33.022  21.697  1.00  0.00     0.159 HD
ENDROOT
TORSDOF 0
ENDMDL
MODEL 8
REMARK VINA RESULT:      -2.9      9.172      9.379
REMARK  0 active torsions:
REMARK  status: ('A' for Active; 'I' for Inactive)
REMARK       I    between atoms: C_2  and  N_3 
ROOT
HETATM    1  C   LIG     1      15.365  32.033  19.776  1.00  0.00     0.117 C 
HETATM    2  C   LIG     1      14.930  32.296  18.370  1.00  0.00     0.211 C 
HETATM    3  N   LIG     1      13.644  31.868  17.926  1.00  0.00    -0.370 N 
HETATM    4  O   LIG     1      15.701  32.896  17.575  1.00  0.00    -0.274 OA
HETATM    5  H   LIG     1      13.338  32.050  16.945  1.00  0.00     0.159 HD
HETATM    6  H   LIG     1      12.996  31.369  18.576  1.00  0.00     0.159 HD
ENDROOT
TORSDOF 0
ENDMDL
MODEL 9
REMARK VINA RESULT:      -2.9      7.642      7.699
REMARK  0 active torsions:
REMARK  status: ('A' for Active; 'I' for Inactive)
REMARK       I    between atoms: C_2  and  N_3 
ROOT
HETATM    1  C   LIG     1      16.744  35.127  22.165  1.00  0.00     0.117 C 
HETATM    2  C   LIG     1      15.742  34.707  21.140  1.00  0.00     0.211 C 
HETATM    3  N   LIG     1      14.379  34.506  21.512  1.00  0.00    -0.370 N 
HETATM    4  O   LIG     1      16.098  34.529  19.945  1.00  0.00    -0.274 OA
HETATM    5  H   LIG     1      13.676  34.213  20.798  1.00  0.00     0.159 HD
HETATM    6  H   LIG     1      14.070  34.650  22.499  1.00  0.00     0.159 HD
ENDROOT
TORSDOF 0
ENDMDL
MODEL 10
REMARK VINA RESULT:      -2.8      9.290      9.495
REMARK  0 active torsions:
REMARK  status: ('A' for Active; 'I' for Inactive)
REMARK       I    between atoms: C_2  and  N_3 
ROOT
HETATM    1  C   LIG     1      13.723  31.511  16.942  1.00  0.00     0.117 C 
HETATM    2  C   LIG     1      14.567  32.074  18.039  1.00  0.00     0.211 C 
HETATM    3  N   LIG     1      14.224  31.832  19.403  1.00  0.00    -0.370 N 
HETATM    4  O   LIG     1      15.584  32.764  17.761  1.00  0.00    -0.274 OA
HETATM    5  H   LIG     1      14.811  32.223  20.171  1.00  0.00     0.159 HD
HETATM    6  H   LIG     1      13.384  31.262  19.646  1.00  0.00     0.159 HD
ENDROOT
TORSDOF 0
ENDMDL
MODEL 11
REMARK VINA RESULT:      -2.7      7.740      7.742
REMARK  0 active torsions:
REMARK  status: ('A' for Active; 'I' for Inactive)
REMARK       I    between atoms: C_2  and  N_3 
ROOT
HETATM    1  C   LIG     1      16.806  35.154  21.733  1.00  0.00     0.117 C 
HETATM    2  C   LIG     1      15.624  36.067  21.796  1.00  0.00     0.211 C 
HETATM    3  N   LIG     1      14.390  35.684  21.191  1.00  0.00    -0.370 N 
HETATM    4  O   LIG     1      15.716  37.178  22.383  1.00  0.00    -0.274 OA
HETATM    5  H   LIG     1      13.563  36.318  21.234  1.00  0.00     0.159 HD
HETATM    6  H   LIG     1      14.301  34.766  20.702  1.00  0.00     0.159 HD
ENDROOT
TORSDOF 0
ENDMDL
MODEL 12
REMARK VINA RESULT:      -2.6     10.729     10.923
REMARK  0 active torsions:
REMARK  status: ('A' for Active; 'I' for Inactive)
REMARK       I    between atoms: C_2  and  N_3 
ROOT
HETATM    1  C   LIG     1      15.650  32.447  15.763  1.00  0.00     0.117 C 
HETATM    2  C   LIG     1      14.946  33.306  16.762  1.00  0.00     0.211 C 
HETATM    3  N   LIG     1      14.177  32.709  17.805  1.00  0.00    -0.370 N 
HETATM    4  O   LIG     1      15.029  34.561  16.685  1.00  0.00    -0.274 OA
HETATM    5  H   LIG     1      13.683  33.305  18.505  1.00  0.00     0.159 HD
HETATM    6  H   LIG     1      14.100  31.670  17.880  1.00  0.00     0.159 HD
ENDROOT
TORSDOF 0
ENDMDL
MODEL 13
REMARK VINA RESULT:      -2.6     13.042     13.328
REMARK  0 active torsions:
REMARK  status: ('A' for Active; 'I' for Inactive)
REMARK       I    between atoms: C_2  and  N_3 
ROOT
HETATM    1  C   LIG     1      13.747  30.520  15.441  1.00  0.00     0.117 C 
HETATM    2  C   LIG     1      13.867  29.492  14.364  1.00  0.00     0.211 C 
HETATM    3  N   LIG     1      12.719  28.753  13.948  1.00  0.00    -0.370 N 
HETATM    4  O   LIG     1      14.982  29.275  13.821  1.00  0.00    -0.274 OA
HETATM    5  H   LIG     1      12.799  28.034  13.196  1.00  0.00     0.159 HD
HETATM    6  H   LIG     1      11.789  28.923  14.391  1.00  0.00     0.159 HD
ENDROOT
TORSDOF 0
ENDMDL
MODEL 14
REMARK VINA RESULT:      -2.6     10.009     10.050
REMARK  0 active torsions:
REMARK  status: ('A' for Active; 'I' for Inactive)
REMARK       I    between atoms: C_2  and  N_3 
ROOT
HETATM    1  C   LIG     1      17.350  37.481  21.740  1.00  0.00     0.117 C 
HETATM    2  C   LIG     1      17.566  38.870  22.247  1.00  0.00     0.211 C 
HETATM    3  N   LIG     1      18.691  39.627  21.805  1.00  0.00    -0.370 N 
HETATM    4  O   LIG     1      16.754  39.375  23.067  1.00  0.00    -0.274 OA
HETATM    5  H   LIG     1      18.845  40.598  22.157  1.00  0.00     0.159 HD
HETATM    6  H   LIG     1      19.372  39.220  21.125  1.00  0.00     0.159 HD
ENDROOT
TORSDOF 0
ENDMDL
MODEL 15
REMARK VINA RESULT:      -2.6     11.135     11.138
REMARK  0 active torsions:
REMARK  status: ('A' for Active; 'I' for Inactive)
REMARK       I    between atoms: C_2  and  N_3 
ROOT
HETATM    1  C   LIG     1      19.328  37.897  19.611  1.00  0.00     0.117 C 
HETATM    2  C   LIG     1      18.593  38.426  20.799  1.00  0.00     0.211 C 
HETATM    3  N   LIG     1      18.864  39.742  21.282  1.00  0.00    -0.370 N 
HETATM    4  O   LIG     1      17.734  37.710  21.379  1.00  0.00    -0.274 OA
HETATM    5  H   LIG     1      18.352  40.114  22.112  1.00  0.00     0.159 HD
HETATM    6  H   LIG     1      19.574  40.345  20.810  1.00  0.00     0.159 HD
ENDROOT
TORSDOF 0
ENDMDL
MODEL 16
REMARK VINA RESULT:      -2.6     12.951     12.951
REMARK  0 active torsions:
REMARK  status: ('A' for Active; 'I' for Inactive)
REMARK       I    between atoms: C_2  and  N_3 
ROOT
HETATM    1  C   LIG     1      18.822  39.324  17.548  1.00  0.00     0.117 C 
HETATM    2  C   LIG     1      19.408  38.809  18.822  1.00  0.00     0.211 C 
HETATM    3  N   LIG     1      18.951  37.576  19.374  1.00  0.00    -0.370 N 
HETATM    4  O   LIG     1      20.308  39.465  19.412  1.00  0.00    -0.274 OA
HETATM    5  H   LIG     1      19.359  37.213  20.264  1.00  0.00     0.159 HD
HETATM    6  H   LIG     1      18.206  37.023  18.895  1.00  0.00     0.159 HD
ENDROOT
TORSDOF 0
ENDMDL
MODEL 17
REMARK VINA RESULT:      -2.5      8.987      8.997
REMARK  0 active torsions:
REMARK  status: ('A' for Active; 'I' for Inactive)
REMARK       I    between atoms: C_2  and  N_3 
ROOT
HETATM    1  C   LIG     1      16.962  35.189  22.160  1.00  0.00     0.117 C 
HETATM    2  C   LIG     1      17.283  36.183  21.092  1.00  0.00     0.211 C 
HETATM    3  N   LIG     1      17.616  37.526  21.440  1.00  0.00    -0.370 N 
HETATM    4  O   LIG     1      17.259  35.836  19.881  1.00  0.00    -0.274 OA
HETATM    5  H   LIG     1      17.841  38.223  20.696  1.00  0.00     0.159 HD
HETATM    6  H   LIG     1      17.638  37.825  22.440  1.00  0.00     0.159 HD
ENDROOT
TORSDOF 0
ENDMDL
MODEL 18
REMARK VINA RESULT:      -2.4     13.347     13.524
REMARK  0 active torsions:
REMARK  status: ('A' for Active; 'I' for Inactive)
REMARK       I    between atoms: C_2  and  N_3 
ROOT
HETATM    1  C   LIG     1      18.147  33.947  13.548  1.00  0.00     0.117 C 
HETATM    2  C   LIG     1      17.444  33.819  14.861  1.00  0.00     0.211 C 
HETATM    3  N   LIG     1      17.233  32.531  15.437  1.00  0.00    -0.370 N 
HETATM    4  O   LIG     1      17.035  34.849  15.460  1.00  0.00    -0.274 OA
HETATM    5  H   LIG     1      16.742  32.438  16.354  1.00  0.00     0.159 HD
HETATM    6  H   LIG     1      17.567  31.669  14.951  1.00  0.00     0.159 HD
ENDROOT
TORSDOF 0
ENDMDL
MODEL 19
REMARK VINA RESULT:      -2.4     15.173     15.359
REMARK  0 active torsions:
REMARK  status: ('A' for Active; 'I' for Inactive)
REMARK       I    between atoms: C_2  and  N_3 
ROOT
HETATM    1  C   LIG     1      17.666  33.346  14.399  1.00  0.00     0.117 C 
HETATM    2  C   LIG     1      17.808  33.907  13.022  1.00  0.00     0.211 C 
HETATM    3  N   LIG     1      18.445  33.143  11.999  1.00  0.00    -0.370 N 
HETATM    4  O   LIG     1      17.366  35.058  12.761  1.00  0.00    -0.274 OA
HETATM    5  H   LIG     1      18.546  33.532  11.036  1.00  0.00     0.159 HD
HETATM    6  H   LIG     1      18.816  32.189  12.202  1.00  0.00     0.159 HD
ENDROOT
TORSDOF 0
ENDMDL
MODEL 20
REMARK VINA RESULT:      -2.4     10.078     10.082
REMARK  0 active torsions:
REMARK  status: ('A' for Active; 'I' for Inactive)
REMARK       I    between atoms: C_2  and  N_3 
ROOT
HETATM    1  C   LIG     1      13.993  31.868  17.301  1.00  0.00     0.117 C 
HETATM    2  C   LIG     1      15.056  32.828  17.726  1.00  0.00     0.211 C 
HETATM    3  N   LIG     1      15.491  33.855  16.836  1.00  0.00    -0.370 N 
HETATM    4  O   LIG     1      15.572  32.731  18.871  1.00  0.00    -0.274 OA
HETATM    5  H   LIG     1      16.233  34.528  17.129  1.00  0.00     0.159 HD
HETATM    6  H   LIG     1      15.071  33.946  15.884  1.00  0.00     0.159 HD
ENDROOT
TORSDOF 0
ENDMDL
