MODEL 1
REMARK VINA RESULT:      -3.3      0.000      0.000
REMARK  1 active torsions:
REMARK  status: ('A' for Active; 'I' for Inactive)
REMARK    1  A    between atoms: N_2  and  N_3 
ROOT
HETATM    1  C   LIG     1      13.201  31.988  27.477  1.00  0.00     0.126 C 
HETATM    2  N   LIG     1      13.951  31.249  28.490  1.00  0.00    -0.268 NA
HETATM    3  H   LIG     1      13.647  31.615  29.422  1.00  0.00     0.139 HD
ENDROOT
BRANCH   2   4
HETATM    4  N   LIG     1      13.564  29.898  28.418  1.00  0.00    -0.271 NA
HETATM    5  H   LIG     1      13.008  29.688  29.279  1.00  0.00     0.137 HD
HETATM    6  H   LIG     1      12.893  29.803  27.621  1.00  0.00     0.137 HD
ENDBRANCH   2   4
TORSDOF 1
ENDMDL
MODEL 2
REMARK VINA RESULT:      -2.5     12.834     13.173
REMARK  1 active torsions:
REMARK  status: ('A' for Active; 'I' for Inactive)
REMARK    1  A    between atoms: N_2  and  N_3 
ROOT
HETATM    1  C   LIG     1      18.828  38.452  20.347  1.00  0.00     0.126 C 
HETATM    2  N   LIG     1      19.772  39.562  20.242  1.00  0.00    -0.268 NA
HETATM    3  H   LIG     1      20.403  39.505  21.075  1.00  0.00     0.139 HD
ENDROOT
BRANCH   2   4
HETATM    4  N   LIG     1      20.562  39.355  19.096  1.00  0.00    -0.271 NA
HETATM    5  H   LIG     1      20.654  40.278  18.612  1.00  0.00     0.137 HD
HETATM    6  H   LIG     1      21.527  39.110  19.419  1.00  0.00     0.137 HD
ENDBRANCH   2   4
TORSDOF 1
ENDMDL
MODEL 3
REMARK VINA RESULT:      -2.5     15.754     15.877
REMARK  1 active torsions:
REMARK  status: ('A' for Active; 'I' for Inactive)
REMARK    1  A    between atoms: N_2  and  N_3 
ROOT
HETATM    1  C   LIG     1      11.622  26.253  12.527  1.00  0.00     0.126 C 
HETATM    2  N   LIG     1      11.894  27.451  13.317  1.00  0.00    -0.268 NA
HETATM    3  H   LIG     1      12.847  27.788  13.042  1.00  0.00     0.139 HD
ENDROOT
BRANCH   2   4
HETATM    4  N   LIG     1      10.969  28.441  12.939  1.00  0.00    -0.271 NA
HETATM    5  H   LIG     1      10.047  27.967  12.798  1.00  0.00     0.137 HD
HETATM    6  H   LIG     1      10.834  29.077  13.760  1.00  0.00     0.137 HD
ENDBRANCH   2   4
TORSDOF 1
ENDMDL
MODEL 4
REMARK VINA RESULT:      -2.5      7.966      8.145
REMARK  1 active torsions:
REMARK  status: ('A' for Active; 'I' for Inactive)
REMARK    1  A    between atoms: N_2  and  N_3 
ROOT
HETATM    1  C   LIG     1      15.770  35.313  20.606  1.00  0.00     0.126 C 
HETATM    2  N   LIG     1      14.444  35.350  21.219  1.00  0.00    -0.268 NA
HETATM    3  H   LIG     1      13.775  35.666  20.479  1.00  0.00     0.139 HD
ENDROOT
BRANCH   2   4
HETATM    4  N   LIG     1      14.092  34.035  21.575  1.00  0.00    -0.271 NA
HETATM    5  H   LIG     1      13.262  33.769  20.997  1.00  0.00     0.137 HD
HETATM    6  H   LIG     1      14.866  33.404  21.260  1.00  0.00     0.137 HD
ENDBRANCH   2   4
TORSDOF 1
ENDMDL
MODEL 5
REMARK VINA RESULT:      -2.5      8.302      8.459
REMARK  1 active torsions:
REMARK  status: ('A' for Active; 'I' for Inactive)
REMARK    1  A    between atoms: N_2  and  N_3 
ROOT
HETATM    1  C   LIG     1      17.123  36.797  24.257  1.00  0.00     0.126 C 
HETATM    2  N   LIG     1      16.515  38.072  24.629  1.00  0.00    -0.268 NA
HETATM    3  H   LIG     1      15.568  37.855  25.020  1.00  0.00     0.139 HD
ENDROOT
BRANCH   2   4
HETATM    4  N   LIG     1      17.283  38.635  25.665  1.00  0.00    -0.271 NA
HETATM    5  H   LIG     1      18.091  39.127  25.220  1.00  0.00     0.137 HD
HETATM    6  H   LIG     1      16.708  39.388  26.111  1.00  0.00     0.137 HD
ENDBRANCH   2   4
TORSDOF 1
ENDMDL
MODEL 6
REMARK VINA RESULT:      -2.4      8.749      8.923
REMARK  1 active torsions:
REMARK  status: ('A' for Active; 'I' for Inactive)
REMARK    1  A    between atoms: N_2  and  N_3 
ROOT
HETATM    1  C   LIG     1      17.499  38.242  23.781  1.00  0.00     0.126 C 
HETATM    2  N   LIG     1      16.131  38.007  24.236  1.00  0.00    -0.268 NA
HETATM    3  H   LIG     1      15.902  38.767  24.920  1.00  0.00     0.139 HD
ENDROOT
BRANCH   2   4
HETATM    4  N   LIG     1      15.272  38.159  23.132  1.00  0.00    -0.271 NA
HETATM    5  H   LIG     1      14.948  39.153  23.125  1.00  0.00     0.137 HD
HETATM    6  H   LIG     1      15.848  38.045  22.266  1.00  0.00     0.137 HD
ENDBRANCH   2   4
TORSDOF 1
ENDMDL
MODEL 7
REMARK VINA RESULT:      -2.4      9.161      9.201
REMARK  1 active torsions:
REMARK  status: ('A' for Active; 'I' for Inactive)
REMARK    1  A    between atoms: N_2  and  N_3 
ROOT
HETATM    1  C   LIG     1      15.379  32.705  19.760  1.00  0.00     0.126 C 
HETATM    2  N   LIG     1      14.246  31.810  19.544  1.00  0.00    -0.268 NA
HETATM    3  H   LIG     1      13.448  32.188  20.107  1.00  0.00     0.139 HD
ENDROOT
BRANCH   2   4
HETATM    4  N   LIG     1      13.882  31.886  18.187  1.00  0.00    -0.271 NA
HETATM    5  H   LIG     1      14.756  32.059  17.641  1.00  0.00     0.137 HD
HETATM    6  H   LIG     1      13.552  30.937  17.895  1.00  0.00     0.137 HD
ENDBRANCH   2   4
TORSDOF 1
ENDMDL
MODEL 8
REMARK VINA RESULT:      -2.4     12.604     12.761
REMARK  1 active torsions:
REMARK  status: ('A' for Active; 'I' for Inactive)
REMARK    1  A    between atoms: N_2  and  N_3 
ROOT
HETATM    1  C   LIG     1      15.441  33.064  16.277  1.00  0.00     0.126 C 
HETATM    2  N   LIG     1      15.747  34.484  16.439  1.00  0.00    -0.268 NA
HETATM    3  H   LIG     1      16.025  34.623  17.438  1.00  0.00     0.139 HD
ENDROOT
BRANCH   2   4
HETATM    4  N   LIG     1      16.866  34.782  15.641  1.00  0.00    -0.271 NA
HETATM    5  H   LIG     1      17.044  35.809  15.728  1.00  0.00     0.137 HD
HETATM    6  H   LIG     1      17.697  34.317  16.075  1.00  0.00     0.137 HD
ENDBRANCH   2   4
TORSDOF 1
ENDMDL
MODEL 9
REMARK VINA RESULT:      -2.4     13.385     13.515
REMARK  1 active torsions:
REMARK  status: ('A' for Active; 'I' for Inactive)
REMARK    1  A    between atoms: N_2  and  N_3 
ROOT
HETATM    1  C   LIG     1      17.453  33.588  14.763  1.00  0.00     0.126 C 
HETATM    2  N   LIG     1      17.027  34.805  15.449  1.00  0.00    -0.268 NA
HETATM    3  H   LIG     1      16.656  35.454  14.716  1.00  0.00     0.139 HD
ENDROOT
BRANCH   2   4
HETATM    4  N   LIG     1      15.958  34.474  16.301  1.00  0.00    -0.271 NA
HETATM    5  H   LIG     1      16.217  33.588  16.794  1.00  0.00     0.137 HD
HETATM    6  H   LIG     1      15.910  35.206  17.047  1.00  0.00     0.137 HD
ENDBRANCH   2   4
TORSDOF 1
ENDMDL
MODEL 10
REMARK VINA RESULT:      -2.4      2.197      2.502
REMARK  1 active torsions:
REMARK  status: ('A' for Active; 'I' for Inactive)
REMARK    1  A    between atoms: N_2  and  N_3 
ROOT
HETATM    1  C   LIG     1      12.719  30.934  26.973  1.00  0.00     0.126 C 
HETATM    2  N   LIG     1      12.837  32.358  27.276  1.00  0.00    -0.268 NA
HETATM    3  H   LIG     1      13.111  32.836  26.386  1.00  0.00     0.139 HD
ENDROOT
BRANCH   2   4
HETATM    4  N   LIG     1      11.563  32.834  27.638  1.00  0.00    -0.271 NA
HETATM    5  H   LIG     1      11.351  33.651  27.021  1.00  0.00     0.137 HD
HETATM    6  H   LIG     1      10.866  32.098  27.378  1.00  0.00     0.137 HD
ENDBRANCH   2   4
TORSDOF 1
ENDMDL
MODEL 11
REMARK VINA RESULT:      -2.2     11.769     11.821
REMARK  1 active torsions:
REMARK  status: ('A' for Active; 'I' for Inactive)
REMARK    1  A    between atoms: N_2  and  N_3 
ROOT
HETATM    1  C   LIG     1      13.418  30.498  15.516  1.00  0.00     0.126 C 
HETATM    2  N   LIG     1      12.532  30.594  16.674  1.00  0.00    -0.268 NA
HETATM    3  H   LIG     1      12.930  29.969  17.414  1.00  0.00     0.139 HD
ENDROOT
BRANCH   2   4
HETATM    4  N   LIG     1      12.588  31.914  17.158  1.00  0.00    -0.271 NA
HETATM    5  H   LIG     1      13.598  32.165  17.258  1.00  0.00     0.137 HD
HETATM    6  H   LIG     1      12.216  32.541  16.407  1.00  0.00     0.137 HD
ENDBRANCH   2   4
TORSDOF 1
ENDMDL
MODEL 12
REMARK VINA RESULT:      -2.2      7.914      8.049
REMARK  1 active torsions:
REMARK  status: ('A' for Active; 'I' for Inactive)
REMARK    1  A    between atoms: N_2  and  N_3 
ROOT
HETATM    1  C   LIG     1      15.472  32.353  19.748  1.00  0.00     0.126 C 
HETATM    2  N   LIG     1      14.288  32.476  20.595  1.00  0.00    -0.268 NA
HETATM    3  H   LIG     1      14.323  31.689  21.284  1.00  0.00     0.139 HD
ENDROOT
BRANCH   2   4
HETATM    4  N   LIG     1      14.393  33.678  21.319  1.00  0.00    -0.271 NA
HETATM    5  H   LIG     1      15.380  33.752  21.655  1.00  0.00     0.137 HD
HETATM    6  H   LIG     1      14.267  34.466  20.643  1.00  0.00     0.137 HD
ENDBRANCH   2   4
TORSDOF 1
ENDMDL
MODEL 13
REMARK VINA RESULT:      -2.2     16.201     16.334
REMARK  1 active torsions:
REMARK  status: ('A' for Active; 'I' for Inactive)
REMARK    1  A    between atoms: N_2  and  N_3 
ROOT
HETATM    1  C   LIG     1      17.925  33.746  13.372  1.00  0.00     0.126 C 
HETATM    2  N   LIG     1      17.415  35.106  13.219  1.00  0.00    -0.268 NA
HETATM    3  H   LIG     1      18.199  35.755  13.463  1.00  0.00     0.139 HD
ENDROOT
BRANCH   2   4
HETATM    4  N   LIG     1      17.107  35.306  11.860  1.00  0.00    -0.271 NA
HETATM    5  H   LIG     1      17.297  34.405  11.363  1.00  0.00     0.137 HD
HETATM    6  H   LIG     1      16.073  35.453  11.789  1.00  0.00     0.137 HD
ENDBRANCH   2   4
TORSDOF 1
ENDMDL
MODEL 14
REMARK VINA RESULT:      -2.1     15.270     15.341
REMARK  1 active torsions:
REMARK  status: ('A' for Active; 'I' for Inactive)
REMARK    1  A    between atoms: N_2  and  N_3 
ROOT
HETATM    1  C   LIG     1      16.098  32.160  14.231  1.00  0.00     0.126 C 
HETATM    2  N   LIG     1      16.357  32.932  13.019  1.00  0.00    -0.268 NA
HETATM    3  H   LIG     1      16.282  33.943  13.279  1.00  0.00     0.139 HD
ENDROOT
BRANCH   2   4
HETATM    4  N   LIG     1      17.687  32.692  12.626  1.00  0.00    -0.271 NA
HETATM    5  H   LIG     1      18.021  31.855  13.156  1.00  0.00     0.137 HD
HETATM    6  H   LIG     1      17.671  32.400  11.621  1.00  0.00     0.137 HD
ENDBRANCH   2   4
TORSDOF 1
ENDMDL
MODEL 15
REMARK VINA RESULT:      -2.1      9.607      9.771
REMARK  1 active torsions:
REMARK  status: ('A' for Active; 'I' for Inactive)
REMARK    1  A    between atoms: N_2  and  N_3 
ROOT
HETATM    1  C   LIG     1      15.694  33.946  20.437  1.00  0.00     0.126 C 
HETATM    2  N   LIG     1      15.627  34.912  19.343  1.00  0.00    -0.268 NA
HETATM    3  H   LIG     1      16.586  35.317  19.235  1.00  0.00     0.139 HD
ENDROOT
BRANCH   2   4
HETATM    4  N   LIG     1      15.325  34.212  18.161  1.00  0.00    -0.271 NA
HETATM    5  H   LIG     1      16.126  34.355  17.503  1.00  0.00     0.137 HD
HETATM    6  H   LIG     1      15.329  33.191  18.389  1.00  0.00     0.137 HD
ENDBRANCH   2   4
TORSDOF 1
ENDMDL
MODEL 16
REMARK VINA RESULT:      -2.1     14.272     14.272
REMARK  1 active torsions:
REMARK  status: ('A' for Active; 'I' for Inactive)
REMARK    1  A    between atoms: N_2  and  N_3 
ROOT
HETATM    1  C   LIG     1      14.288  29.971  14.495  1.00  0.00     0.126 C 
HETATM    2  N   LIG     1      13.916  28.757  13.773  1.00  0.00    -0.268 NA
HETATM    3  H   LIG     1      14.355  27.954  14.281  1.00  0.00     0.139 HD
ENDROOT
BRANCH   2   4
HETATM    4  N   LIG     1      12.520  28.605  13.866  1.00  0.00    -0.271 NA
HETATM    5  H   LIG     1      12.275  27.701  13.401  1.00  0.00     0.137 HD
HETATM    6  H   LIG     1      12.284  28.473  14.877  1.00  0.00     0.137 HD
ENDBRANCH   2   4
TORSDOF 1
ENDMDL
MODEL 17
REMARK VINA RESULT:      -2.0     15.445     15.487
REMARK  1 active torsions:
REMARK  status: ('A' for Active; 'I' for Inactive)
REMARK    1  A    between atoms: N_2  and  N_3 
ROOT
HETATM    1  C   LIG     1      17.972  33.567  13.969  1.00  0.00     0.126 C 
HETATM    2  N   LIG     1      17.571  32.854  12.759  1.00  0.00    -0.268 NA
HETATM    3  H   LIG     1      18.348  32.195  12.522  1.00  0.00     0.139 HD
ENDROOT
BRANCH   2   4
HETATM    4  N   LIG     1      16.437  32.080  13.066  1.00  0.00    -0.271 NA
HETATM    5  H   LIG     1      15.762  32.702  13.566  1.00  0.00     0.137 HD
HETATM    6  H   LIG     1      15.971  31.830  12.162  1.00  0.00     0.137 HD
ENDBRANCH   2   4
TORSDOF 1
ENDMDL
MODEL 18
REMARK VINA RESULT:      -2.0     10.590     10.626
REMARK  1 active torsions:
REMARK  status: ('A' for Active; 'I' for Inactive)
REMARK    1  A    between atoms: N_2  and  N_3 
ROOT
HETATM    1  C   LIG     1      15.088  32.671  16.609  1.00  0.00     0.126 C 
HETATM    2  N   LIG     1      14.624  33.003  17.954  1.00  0.00    -0.268 NA
HETATM    3  H   LIG     1      13.856  33.707  17.846  1.00  0.00     0.139 HD
ENDROOT
BRANCH   2   4
HETATM    4  N   LIG     1      14.061  31.845  18.520  1.00  0.00    -0.271 NA
HETATM    5  H   LIG     1      13.778  32.083  19.498  1.00  0.00     0.137 HD
HETATM    6  H   LIG     1      13.169  31.646  18.010  1.00  0.00     0.137 HD
ENDBRANCH   2   4
TORSDOF 1
ENDMDL
MODEL 19
REMARK VINA RESULT:      -1.9     14.627     14.903
REMARK  1 active torsions:
REMARK  status: ('A' for Active; 'I' for Inactive)
REMARK    1  A    between atoms: N_2  and  N_3 
ROOT
HETATM    1  C   LIG     1       4.870  39.449  35.601  1.00  0.00     0.126 C 
HETATM    2  N   LIG     1       5.676  40.625  35.921  1.00  0.00    -0.268 NA
HETATM    3  H   LIG     1       6.566  40.541  35.377  1.00  0.00     0.139 HD
ENDROOT
BRANCH   2   4
HETATM    4  N   LIG     1       4.995  41.762  35.448  1.00  0.00    -0.271 NA
HETATM    5  H   LIG     1       5.394  41.995  34.510  1.00  0.00     0.137 HD
HETATM    6  H   LIG     1       4.002  41.484  35.269  1.00  0.00     0.137 HD
ENDBRANCH   2   4
TORSDOF 1
ENDMDL
MODEL 20
REMARK VINA RESULT:      -1.9     16.862     17.011
REMARK  1 active torsions:
REMARK  status: ('A' for Active; 'I' for Inactive)
REMARK    1  A    between atoms: N_2  and  N_3 
ROOT
HETATM    1  C   LIG     1      12.079  25.405  11.083  1.00  0.00     0.126 C 
HETATM    2  N   LIG     1      11.835  26.384  12.138  1.00  0.00    -0.268 NA
HETATM    3  H   LIG     1      11.347  27.197  11.693  1.00  0.00     0.139 HD
ENDROOT
BRANCH   2   4
HETATM    4  N   LIG     1      10.946  25.813  13.067  1.00  0.00    -0.271 NA
HETATM    5  H   LIG     1      10.043  26.335  12.994  1.00  0.00     0.137 HD
HETATM    6  H   LIG     1      10.734  24.840  12.743  1.00  0.00     0.137 HD
ENDBRANCH   2   4
TORSDOF 1
ENDMDL
