REMARK  0 active torsions:
REMARK  status: ('A' for Active; 'I' for Inactive)
REMARK       I    between atoms: C_2  and  N_3 
ROOT
HETATM    1  C   LIG     1      -1.099   0.278   0.138  1.00  0.00     0.117 C 
HETATM    2  C   LIG     1       0.187  -0.470   0.276  1.00  0.00     0.211 C 
HETATM    3  N   LIG     1       1.357  -0.015  -0.402  1.00  0.00    -0.370 N 
HETATM    4  O   LIG     1       0.240  -1.506   0.991  1.00  0.00    -0.274 OA
HETATM    5  H   LIG     1       2.257  -0.535  -0.308  1.00  0.00     0.159 HD
HETATM    6  H   LIG     1       1.326   0.842  -0.998  1.00  0.00     0.159 HD
ENDROOT
TORSDOF 0
