REMARK  7 active torsions:
REMARK  status: ('A' for Active; 'I' for Inactive)
REMARK    1  A    between atoms: O_1  and  C_2 
REMARK    2  A    between atoms: C_10  and  O_11 
REMARK    3  A    between atoms: C_12  and  O_25 
REMARK    4  A    between atoms: C_14  and  C_15 
REMARK       I    between atoms: C_15  and  N_16 
REMARK    5  A    between atoms: C_18  and  O_19 
REMARK    6  A    between atoms: C_20  and  N_21 
REMARK    7  A    between atoms: C_29  and  O_30 
ROOT
HETATM    1  C   LIG     1       5.010   1.120  -0.213  1.00  0.00     0.080 A 
HETATM    2  C   LIG     1       5.938   0.384   0.531  1.00  0.00     0.037 A 
HETATM    3  C   LIG     1       5.691  -0.951   0.840  1.00  0.00     0.003 A 
HETATM    4  C   LIG     1       4.523  -1.572   0.396  1.00  0.00     0.011 A 
HETATM    5  C   LIG     1       3.561  -0.854  -0.350  1.00  0.00    -0.007 A 
HETATM    6  C   LIG     1       3.823   0.502  -0.657  1.00  0.00     0.057 A 
HETATM    7  C   LIG     1       2.777   1.269  -1.355  1.00  0.00     0.194 C 
HETATM    8  C   LIG     1       1.381   0.880  -1.094  1.00  0.00     0.033 C 
HETATM    9  C   LIG     1       0.481   1.830  -0.735  1.00  0.00     0.097 C 
HETATM   10  C   LIG     1      -0.778   1.492   0.071  1.00  0.00     0.177 C 
HETATM   11  C   LIG     1      -2.028   2.204  -0.399  1.00  0.00     0.208 C 
HETATM   12  C   LIG     1      -3.317   1.840   0.241  1.00  0.00     0.112 C 
HETATM   13  C   LIG     1      -3.416   0.693   0.959  1.00  0.00     0.096 C 
HETATM   14  C   LIG     1      -2.283  -0.356   0.994  1.00  0.00     0.286 C 
HETATM   15  O   LIG     1      -1.982   3.085  -1.300  1.00  0.00    -0.288 OA
HETATM   16  C   LIG     1      -1.133  -0.006   0.007  1.00  0.00     0.075 C 
HETATM   17  C   LIG     1       0.129  -0.864   0.214  1.00  0.00     0.024 C 
HETATM   18  C   LIG     1       1.075  -0.613  -0.981  1.00  0.00     0.065 C 
HETATM   19  C   LIG     1       2.369  -1.530  -1.045  1.00  0.00     0.090 C 
HETATM   20  C   LIG     1       2.088  -2.952  -0.492  1.00  0.00     0.052 C 
HETATM   21  O   LIG     1       3.061   2.254  -2.090  1.00  0.00    -0.287 OA
ENDROOT
BRANCH  12  22
HETATM   22  C   LIG     1      -4.458   2.783   0.161  1.00  0.00     0.255 C 
HETATM   23  N   LIG     1      -4.859   3.340  -1.092  1.00  0.00    -0.366 N 
HETATM   24  H   LIG     1      -5.634   4.040  -1.131  1.00  0.00     0.159 HD
HETATM   25  H   LIG     1      -4.441   3.007  -1.988  1.00  0.00     0.159 HD
HETATM   26  O   LIG     1      -5.091   3.097   1.205  1.00  0.00    -0.268 OA
ENDBRANCH  12  22
BRANCH  13  27
HETATM   27  O   LIG     1      -4.570   0.477   1.715  1.00  0.00    -0.362 OA
HETATM   28  H   LIG     1      -4.658  -0.294   2.360  1.00  0.00     0.217 HD
ENDBRANCH  13  27
BRANCH  10  29
HETATM   29  O   LIG     1      -0.528   1.832   1.417  1.00  0.00    -0.374 OA
HETATM   30  H   LIG     1      -0.449   2.821   1.478  1.00  0.00     0.211 HD
ENDBRANCH  10  29
BRANCH  14  31
HETATM   31  N   LIG     1      -2.736  -1.744   0.688  1.00  0.00     0.091 N 
HETATM   32  C   LIG     1      -3.875  -1.863  -0.239  1.00  0.00     0.310 C 
HETATM   33  C   LIG     1      -2.893  -2.602   1.872  1.00  0.00     0.310 C 
ENDBRANCH  14  31
BRANCH   9  34
HETATM   34  O   LIG     1       0.816   3.176  -0.920  1.00  0.00    -0.361 OA
HETATM   35  H   LIG     1       0.257   3.931  -0.544  1.00  0.00     0.217 HD
ENDBRANCH   9  34
BRANCH  19  36
HETATM   36  O   LIG     1       2.750  -1.665  -2.397  1.00  0.00    -0.385 OA
HETATM   37  H   LIG     1       2.040  -2.163  -2.881  1.00  0.00     0.211 HD
ENDBRANCH  19  36
BRANCH   1  38
HETATM   38  O   LIG     1       5.257   2.464  -0.493  1.00  0.00    -0.360 OA
HETATM   39  H   LIG     1       6.101   2.927  -0.177  1.00  0.00     0.217 HD
ENDBRANCH   1  38
TORSDOF 7
