REMARK  3 active torsions:
REMARK  status: ('A' for Active; 'I' for Inactive)
REMARK    1  A    between atoms: C_2  and  C_6 
REMARK    2  A    between atoms: C_2  and  N_3 
REMARK    3  A    between atoms: C_6  and  N_7 
ROOT
HETATM    1  N   LIG     1      -0.474   0.329   0.079  1.00  0.00    -0.343 N 
HETATM    2  C   LIG     1      -1.191  -0.833   0.553  1.00  0.00     0.052 A 
HETATM    3  C   LIG     1      -2.237  -1.361  -0.228  1.00  0.00     0.032 A 
HETATM    4  C   LIG     1      -3.058  -2.373   0.280  1.00  0.00     0.021 A 
HETATM    5  C   LIG     1      -2.819  -2.890   1.556  1.00  0.00     0.002 A 
HETATM    6  C   LIG     1      -1.764  -2.395   2.326  1.00  0.00     0.002 A 
HETATM    7  C   LIG     1      -0.955  -1.366   1.833  1.00  0.00     0.031 A 
HETATM    8  S   LIG     1      -2.445  -0.797  -1.920  1.00  0.00    -0.086 SA
HETATM    9  C   LIG     1      -2.280   0.935  -1.480  1.00  0.00     0.032 A 
HETATM   10  C   LIG     1      -1.236   1.335  -0.625  1.00  0.00     0.052 A 
HETATM   11  C   LIG     1      -1.071   2.702  -0.338  1.00  0.00     0.031 A 
HETATM   12  C   LIG     1      -1.929   3.649  -0.906  1.00  0.00     0.002 A 
HETATM   13  C   LIG     1      -2.971   3.240  -1.743  1.00  0.00     0.002 A 
HETATM   14  C   LIG     1      -3.151   1.884  -2.026  1.00  0.00     0.021 A 
ENDROOT
BRANCH   1  15
HETATM   15  C   LIG     1       0.967   0.503   0.332  1.00  0.00     0.164 C 
BRANCH  15  16
HETATM   16  C   LIG     1       1.792  -0.660  -0.283  1.00  0.00     0.236 C 
HETATM   17  C   LIG     1       1.713  -0.641  -1.816  1.00  0.00     0.044 C 
BRANCH  16  18
HETATM   18  N   LIG     1       3.215  -0.684   0.153  1.00  0.00     0.085 N 
HETATM   19  C   LIG     1       3.372  -1.279   1.491  1.00  0.00     0.310 C 
HETATM   20  C   LIG     1       3.897   0.622   0.089  1.00  0.00     0.310 C 
ENDBRANCH  16  18
ENDBRANCH  15  16
ENDBRANCH   1  15
TORSDOF 3
