REMARK  2 active torsions:
REMARK  status: ('A' for Active; 'I' for Inactive)
REMARK    1  A    between atoms: N_12  and  C_13 
REMARK    2  A    between atoms: C_13  and  C_14 
ROOT
HETATM    1  C   LIG     1       2.895   3.594  -0.144  1.00  0.00     0.002 A 
HETATM    2  C   LIG     1       3.700   3.213  -1.222  1.00  0.00     0.002 A 
HETATM    3  C   LIG     1       3.566   1.938  -1.779  1.00  0.00     0.021 A 
HETATM    4  C   LIG     1       2.619   1.047  -1.265  1.00  0.00     0.032 A 
HETATM    5  S   LIG     1       2.369  -0.551  -2.043  1.00  0.00    -0.086 SA
HETATM    6  C   LIG     1       2.312  -1.428  -0.477  1.00  0.00     0.032 A 
HETATM    7  C   LIG     1       2.990  -2.642  -0.327  1.00  0.00     0.021 A 
HETATM    8  C   LIG     1       2.858  -3.373   0.857  1.00  0.00     0.002 A 
HETATM    9  C   LIG     1       2.055  -2.888   1.894  1.00  0.00     0.002 A 
HETATM   10  C   LIG     1       1.396  -1.663   1.758  1.00  0.00     0.031 A 
HETATM   11  C   LIG     1       1.523  -0.918   0.572  1.00  0.00     0.052 A 
HETATM   12  N   LIG     1       0.983   0.418   0.462  1.00  0.00    -0.344 N 
HETATM   13  C   LIG     1       1.814   1.416  -0.170  1.00  0.00     0.052 A 
HETATM   14  C   LIG     1       1.964   2.697   0.389  1.00  0.00     0.031 A 
ENDROOT
BRANCH  12  15
HETATM   15  C   LIG     1      -0.326   0.775   1.037  1.00  0.00     0.136 C 
BRANCH  15  16
HETATM   16  C   LIG     1      -1.455  -0.132   0.494  1.00  0.00     0.032 C 
HETATM   17  C   LIG     1      -2.814   0.234   1.141  1.00  0.00     0.010 C 
HETATM   18  C   LIG     1      -3.697   1.040   0.190  1.00  0.00     0.031 C 
HETATM   19  C   LIG     1      -3.972   0.249  -1.104  1.00  0.00     0.272 C 
HETATM   20  N   LIG     1      -2.806  -0.527  -1.600  1.00  0.00     0.084 N 
HETATM   21  C   LIG     1      -1.511  -0.069  -1.057  1.00  0.00     0.278 C 
HETATM   22  C   LIG     1      -2.989  -1.980  -1.442  1.00  0.00     0.309 C 
ENDBRANCH  15  16
ENDBRANCH  12  15
TORSDOF 2
