MODEL 1
REMARK VINA RESULT:      -8.2      0.000      0.000
REMARK  3 active torsions:
REMARK  status: ('A' for Active; 'I' for Inactive)
REMARK    1  A    between atoms: C_2  and  C_6 
REMARK    2  A    between atoms: C_2  and  N_3 
REMARK    3  A    between atoms: C_6  and  N_7 
ROOT
HETATM    1  N   LIG     1      17.303  35.944  21.915  1.00  0.00    -0.343 N 
HETATM    2  C   LIG     1      17.279  36.120  23.349  1.00  0.00     0.052 A 
HETATM    3  C   LIG     1      17.084  37.409  23.881  1.00  0.00     0.032 A 
HETATM    4  C   LIG     1      17.226  37.638  25.253  1.00  0.00     0.021 A 
HETATM    5  C   LIG     1      17.527  36.575  26.109  1.00  0.00     0.002 A 
HETATM    6  C   LIG     1      17.691  35.287  25.596  1.00  0.00     0.002 A 
HETATM    7  C   LIG     1      17.574  35.057  24.221  1.00  0.00     0.031 A 
HETATM    8  S   LIG     1      16.552  38.738  22.797  1.00  0.00    -0.086 SA
HETATM    9  C   LIG     1      17.753  38.333  21.527  1.00  0.00     0.032 A 
HETATM   10  C   LIG     1      17.915  36.992  21.130  1.00  0.00     0.052 A 
HETATM   11  C   LIG     1      18.810  36.689  20.088  1.00  0.00     0.031 A 
HETATM   12  C   LIG     1      19.519  37.711  19.449  1.00  0.00     0.002 A 
HETATM   13  C   LIG     1      19.361  39.038  19.860  1.00  0.00     0.002 A 
HETATM   14  C   LIG     1      18.483  39.349  20.901  1.00  0.00     0.021 A 
ENDROOT
BRANCH   1  15
HETATM   15  C   LIG     1      16.761  34.732  21.276  1.00  0.00     0.164 C 
BRANCH  15  16
HETATM   16  C   LIG     1      15.232  34.605  21.514  1.00  0.00     0.236 C 
HETATM   17  C   LIG     1      14.510  35.916  21.173  1.00  0.00     0.044 C 
BRANCH  16  18
HETATM   18  N   LIG     1      14.602  33.472  20.783  1.00  0.00     0.085 N 
HETATM   19  C   LIG     1      13.931  32.531  21.697  1.00  0.00     0.310 C 
HETATM   20  C   LIG     1      15.511  32.747  19.877  1.00  0.00     0.310 C 
ENDBRANCH  16  18
ENDBRANCH  15  16
ENDBRANCH   1  15
TORSDOF 3
ENDMDL
