REMARK  5 active torsions:
REMARK  status: ('A' for Active; 'I' for Inactive)
REMARK    1  A    between atoms: C_2  and  C_3 
REMARK    2  A    between atoms: C_2  and  C_7 
REMARK    3  A    between atoms: C_3  and  N_4 
REMARK    4  A    between atoms: C_7  and  N_8 
REMARK    5  A    between atoms: C_11  and  O_12 
ROOT
HETATM    1  N   LIG     1       0.645   0.692   0.334  1.00  0.00    -0.344 N 
HETATM    2  C   LIG     1       1.928   0.036   0.349  1.00  0.00     0.054 A 
HETATM    3  C   LIG     1       2.024  -1.350   0.167  1.00  0.00     0.067 A 
HETATM    4  C   LIG     1       3.274  -1.966   0.021  1.00  0.00     0.070 A 
HETATM    5  C   LIG     1       3.099   0.813   0.382  1.00  0.00     0.032 A 
HETATM    6  C   LIG     1       4.348   0.210   0.215  1.00  0.00     0.024 A 
HETATM    7  C   LIG     1       4.439  -1.174   0.042  1.00  0.00     0.038 A 
HETATM    8  S   LIG     1       2.975   2.575   0.713  1.00  0.00    -0.086 SA
HETATM    9  C   LIG     1       1.624   2.807  -0.448  1.00  0.00     0.032 A 
HETATM   10  C   LIG     1       0.542   1.905  -0.437  1.00  0.00     0.052 A 
HETATM   11  C   LIG     1      -0.534   2.112  -1.313  1.00  0.00     0.031 A 
HETATM   12  C   LIG     1      -0.540   3.216  -2.171  1.00  0.00     0.002 A 
HETATM   13  C   LIG     1       0.540   4.104  -2.181  1.00  0.00     0.002 A 
HETATM   14  C   LIG     1       1.626   3.896  -1.327  1.00  0.00     0.021 A 
ENDROOT
BRANCH   1  15
HETATM   15  C   LIG     1      -0.351   0.380   1.371  1.00  0.00     0.135 C 
BRANCH  15  16
HETATM   16  C   LIG     1      -1.486  -0.530   0.826  1.00  0.00     0.028 C 
HETATM   17  C   LIG     1      -1.565  -1.845   1.621  1.00  0.00     0.013 C 
BRANCH  16  18
HETATM   18  C   LIG     1      -2.851   0.198   0.878  1.00  0.00     0.277 C 
BRANCH  18  19
HETATM   19  N   LIG     1      -3.911  -0.597   0.215  1.00  0.00     0.080 N 
HETATM   20  C   LIG     1      -5.228  -0.268   0.784  1.00  0.00     0.309 C 
HETATM   21  C   LIG     1      -3.931  -0.346  -1.238  1.00  0.00     0.309 C 
ENDBRANCH  18  19
ENDBRANCH  16  18
ENDBRANCH  15  16
ENDBRANCH   1  15
BRANCH   4  22
HETATM   22  O   LIG     1       3.314  -3.357  -0.155  1.00  0.00    -0.356 OA
HETATM   23  C   LIG     1       4.510  -4.112  -0.324  1.00  0.00     0.210 C 
ENDBRANCH   4  22
TORSDOF 5
