MODEL 1
REMARK VINA RESULT:      -7.7      0.000      0.000
REMARK  5 active torsions:
REMARK  status: ('A' for Active; 'I' for Inactive)
REMARK    1  A    between atoms: C_2  and  C_3 
REMARK    2  A    between atoms: C_2  and  C_7 
REMARK    3  A    between atoms: C_3  and  N_4 
REMARK    4  A    between atoms: C_7  and  N_8 
REMARK    5  A    between atoms: C_11  and  O_12 
ROOT
HETATM    1  N   LIG     1      16.871  36.544  21.833  1.00  0.00    -0.344 N 
HETATM    2  C   LIG     1      17.074  36.700  23.251  1.00  0.00     0.054 A 
HETATM    3  C   LIG     1      17.085  35.583  24.098  1.00  0.00     0.067 A 
HETATM    4  C   LIG     1      17.440  35.714  25.447  1.00  0.00     0.070 A 
HETATM    5  C   LIG     1      17.426  37.961  23.763  1.00  0.00     0.032 A 
HETATM    6  C   LIG     1      17.803  38.096  25.101  1.00  0.00     0.024 A 
HETATM    7  C   LIG     1      17.804  36.981  25.944  1.00  0.00     0.038 A 
HETATM    8  S   LIG     1      17.315  39.403  22.696  1.00  0.00    -0.086 SA
HETATM    9  C   LIG     1      18.141  38.587  21.326  1.00  0.00     0.032 A 
HETATM   10  C   LIG     1      17.752  37.283  20.963  1.00  0.00     0.052 A 
HETATM   11  C   LIG     1      18.366  36.663  19.865  1.00  0.00     0.031 A 
HETATM   12  C   LIG     1      19.338  37.343  19.126  1.00  0.00     0.002 A 
HETATM   13  C   LIG     1      19.725  38.635  19.495  1.00  0.00     0.002 A 
HETATM   14  C   LIG     1      19.134  39.255  20.600  1.00  0.00     0.021 A 
ENDROOT
BRANCH   1  15
HETATM   15  C   LIG     1      15.595  36.015  21.327  1.00  0.00     0.135 C 
BRANCH  15  16
HETATM   16  C   LIG     1      15.673  34.490  21.045  1.00  0.00     0.028 C 
HETATM   17  C   LIG     1      14.477  33.753  21.673  1.00  0.00     0.013 C 
BRANCH  16  18
HETATM   18  C   LIG     1      15.721  34.211  19.523  1.00  0.00     0.277 C 
BRANCH  18  19
HETATM   19  N   LIG     1      15.105  32.904  19.195  1.00  0.00     0.080 N 
HETATM   20  C   LIG     1      14.981  32.749  17.737  1.00  0.00     0.309 C 
HETATM   21  C   LIG     1      15.905  31.790  19.738  1.00  0.00     0.309 C 
ENDBRANCH  18  19
ENDBRANCH  16  18
ENDBRANCH  15  16
ENDBRANCH   1  15
BRANCH   4  22
HETATM   22  O   LIG     1      17.432  34.565  26.252  1.00  0.00    -0.356 OA
HETATM   23  C   LIG     1      16.308  34.119  27.004  1.00  0.00     0.210 C 
ENDBRANCH   4  22
TORSDOF 5
ENDMDL
MODEL 2
REMARK VINA RESULT:      -5.1     15.273     17.183
REMARK  5 active torsions:
REMARK  status: ('A' for Active; 'I' for Inactive)
REMARK    1  A    between atoms: C_2  and  C_3 
REMARK    2  A    between atoms: C_2  and  C_7 
REMARK    3  A    between atoms: C_3  and  N_4 
REMARK    4  A    between atoms: C_7  and  N_8 
REMARK    5  A    between atoms: C_11  and  O_12 
ROOT
HETATM    1  N   LIG     1      25.589  23.249  19.931  1.00  0.00    -0.344 N 
HETATM    2  C   LIG     1      24.895  22.196  19.233  1.00  0.00     0.054 A 
HETATM    3  C   LIG     1      25.472  21.580  18.115  1.00  0.00     0.067 A 
HETATM    4  C   LIG     1      24.875  20.453  17.534  1.00  0.00     0.070 A 
HETATM    5  C   LIG     1      23.708  21.675  19.776  1.00  0.00     0.032 A 
HETATM    6  C   LIG     1      23.118  20.539  19.217  1.00  0.00     0.024 A 
HETATM    7  C   LIG     1      23.693  19.932  18.097  1.00  0.00     0.038 A 
HETATM    8  S   LIG     1      22.922  22.527  21.149  1.00  0.00    -0.086 SA
HETATM    9  C   LIG     1      24.463  22.721  22.052  1.00  0.00     0.032 A 
HETATM   10  C   LIG     1      25.609  23.174  21.370  1.00  0.00     0.052 A 
HETATM   11  C   LIG     1      26.801  23.367  22.084  1.00  0.00     0.031 A 
HETATM   12  C   LIG     1      26.841  23.135  23.462  1.00  0.00     0.002 A 
HETATM   13  C   LIG     1      25.701  22.680  24.131  1.00  0.00     0.002 A 
HETATM   14  C   LIG     1      24.514  22.464  23.426  1.00  0.00     0.021 A 
ENDROOT
BRANCH   1  15
HETATM   15  C   LIG     1      25.875  24.519  19.246  1.00  0.00     0.135 C 
BRANCH  15  16
HETATM   16  C   LIG     1      27.391  24.685  18.948  1.00  0.00     0.028 C 
HETATM   17  C   LIG     1      27.684  24.462  17.454  1.00  0.00     0.013 C 
BRANCH  16  18
HETATM   18  C   LIG     1      27.889  26.086  19.377  1.00  0.00     0.277 C 
BRANCH  18  19
HETATM   19  N   LIG     1      29.110  26.474  18.634  1.00  0.00     0.080 N 
HETATM   20  C   LIG     1      28.975  27.842  18.107  1.00  0.00     0.309 C 
HETATM   21  C   LIG     1      30.302  26.401  19.499  1.00  0.00     0.309 C 
ENDBRANCH  18  19
ENDBRANCH  16  18
ENDBRANCH  15  16
ENDBRANCH   1  15
BRANCH   4  22
HETATM   22  O   LIG     1      25.492  19.876  16.414  1.00  0.00    -0.356 OA
HETATM   23  C   LIG     1      24.954  18.785  15.673  1.00  0.00     0.210 C 
ENDBRANCH   4  22
TORSDOF 5
ENDMDL
MODEL 3
REMARK VINA RESULT:      -5.0     15.074     16.935
REMARK  5 active torsions:
REMARK  status: ('A' for Active; 'I' for Inactive)
REMARK    1  A    between atoms: C_2  and  C_3 
REMARK    2  A    between atoms: C_2  and  C_7 
REMARK    3  A    between atoms: C_3  and  N_4 
REMARK    4  A    between atoms: C_7  and  N_8 
REMARK    5  A    between atoms: C_11  and  O_12 
ROOT
HETATM    1  N   LIG     1      25.395  22.947  19.467  1.00  0.00    -0.344 N 
HETATM    2  C   LIG     1      26.457  23.871  19.776  1.00  0.00     0.054 A 
HETATM    3  C   LIG     1      26.606  25.057  19.046  1.00  0.00     0.067 A 
HETATM    4  C   LIG     1      27.534  26.029  19.446  1.00  0.00     0.070 A 
HETATM    5  C   LIG     1      27.244  23.658  20.921  1.00  0.00     0.032 A 
HETATM    6  C   LIG     1      28.155  24.631  21.339  1.00  0.00     0.024 A 
HETATM    7  C   LIG     1      28.307  25.809  20.603  1.00  0.00     0.038 A 
HETATM    8  S   LIG     1      27.117  22.093  21.796  1.00  0.00    -0.086 SA
HETATM    9  C   LIG     1      25.321  22.105  21.776  1.00  0.00     0.032 A 
HETATM   10  C   LIG     1      24.646  22.418  20.580  1.00  0.00     0.052 A 
HETATM   11  C   LIG     1      23.244  22.384  20.552  1.00  0.00     0.031 A 
HETATM   12  C   LIG     1      22.527  22.019  21.696  1.00  0.00     0.002 A 
HETATM   13  C   LIG     1      23.203  21.715  22.882  1.00  0.00     0.002 A 
HETATM   14  C   LIG     1      24.599  21.766  22.926  1.00  0.00     0.021 A 
ENDROOT
BRANCH   1  15
HETATM   15  C   LIG     1      25.366  22.272  18.160  1.00  0.00     0.135 C 
BRANCH  15  16
HETATM   16  C   LIG     1      25.683  20.756  18.287  1.00  0.00     0.028 C 
HETATM   17  C   LIG     1      24.921  19.945  17.225  1.00  0.00     0.013 C 
BRANCH  16  18
HETATM   18  C   LIG     1      27.203  20.497  18.155  1.00  0.00     0.277 C 
BRANCH  18  19
HETATM   19  N   LIG     1      27.858  21.539  17.330  1.00  0.00     0.080 N 
HETATM   20  C   LIG     1      29.056  22.054  18.014  1.00  0.00     0.309 C 
HETATM   21  C   LIG     1      28.241  21.007  16.009  1.00  0.00     0.309 C 
ENDBRANCH  18  19
ENDBRANCH  16  18
ENDBRANCH  15  16
ENDBRANCH   1  15
BRANCH   4  22
HETATM   22  O   LIG     1      27.646  27.197  18.678  1.00  0.00    -0.356 OA
HETATM   23  C   LIG     1      28.876  27.722  18.187  1.00  0.00     0.210 C 
ENDBRANCH   4  22
TORSDOF 5
ENDMDL
MODEL 4
REMARK VINA RESULT:      -5.0     15.132     17.096
REMARK  5 active torsions:
REMARK  status: ('A' for Active; 'I' for Inactive)
REMARK    1  A    between atoms: C_2  and  C_3 
REMARK    2  A    between atoms: C_2  and  C_7 
REMARK    3  A    between atoms: C_3  and  N_4 
REMARK    4  A    between atoms: C_7  and  N_8 
REMARK    5  A    between atoms: C_11  and  O_12 
ROOT
HETATM    1  N   LIG     1      24.736  22.936  20.003  1.00  0.00    -0.344 N 
HETATM    2  C   LIG     1      24.576  21.707  19.267  1.00  0.00     0.054 A 
HETATM    3  C   LIG     1      23.351  21.387  18.667  1.00  0.00     0.067 A 
HETATM    4  C   LIG     1      23.239  20.277  17.820  1.00  0.00     0.070 A 
HETATM    5  C   LIG     1      25.702  20.904  19.013  1.00  0.00     0.032 A 
HETATM    6  C   LIG     1      25.604  19.808  18.153  1.00  0.00     0.024 A 
HETATM    7  C   LIG     1      24.378  19.489  17.563  1.00  0.00     0.038 A 
HETATM    8  S   LIG     1      27.245  21.261  19.863  1.00  0.00    -0.086 SA
HETATM    9  C   LIG     1      27.146  23.023  19.527  1.00  0.00     0.032 A 
HETATM   10  C   LIG     1      25.929  23.700  19.744  1.00  0.00     0.052 A 
HETATM   11  C   LIG     1      25.865  25.084  19.525  1.00  0.00     0.031 A 
HETATM   12  C   LIG     1      27.003  25.786  19.117  1.00  0.00     0.002 A 
HETATM   13  C   LIG     1      28.206  25.107  18.898  1.00  0.00     0.002 A 
HETATM   14  C   LIG     1      28.276  23.725  19.094  1.00  0.00     0.021 A 
ENDROOT
BRANCH   1  15
HETATM   15  C   LIG     1      23.954  23.164  21.229  1.00  0.00     0.135 C 
BRANCH  15  16
HETATM   16  C   LIG     1      24.190  22.046  22.280  1.00  0.00     0.028 C 
HETATM   17  C   LIG     1      24.681  22.639  23.612  1.00  0.00     0.013 C 
BRANCH  16  18
HETATM   18  C   LIG     1      22.898  21.227  22.515  1.00  0.00     0.277 C 
BRANCH  18  19
HETATM   19  N   LIG     1      23.200  19.792  22.725  1.00  0.00     0.080 N 
HETATM   20  C   LIG     1      22.305  19.225  23.746  1.00  0.00     0.309 C 
HETATM   21  C   LIG     1      23.053  19.030  21.471  1.00  0.00     0.309 C 
ENDBRANCH  18  19
ENDBRANCH  16  18
ENDBRANCH  15  16
ENDBRANCH   1  15
BRANCH   4  22
HETATM   22  O   LIG     1      21.988  20.000  17.248  1.00  0.00    -0.356 OA
HETATM   23  C   LIG     1      21.622  18.743  16.687  1.00  0.00     0.210 C 
ENDBRANCH   4  22
TORSDOF 5
ENDMDL
MODEL 5
REMARK VINA RESULT:      -5.0     16.192     18.182
REMARK  5 active torsions:
REMARK  status: ('A' for Active; 'I' for Inactive)
REMARK    1  A    between atoms: C_2  and  C_3 
REMARK    2  A    between atoms: C_2  and  C_7 
REMARK    3  A    between atoms: C_3  and  N_4 
REMARK    4  A    between atoms: C_7  and  N_8 
REMARK    5  A    between atoms: C_11  and  O_12 
ROOT
HETATM    1  N   LIG     1      27.349  27.524  33.244  1.00  0.00    -0.344 N 
HETATM    2  C   LIG     1      27.755  27.546  31.862  1.00  0.00     0.054 A 
HETATM    3  C   LIG     1      27.042  26.823  30.896  1.00  0.00     0.067 A 
HETATM    4  C   LIG     1      27.335  26.970  29.534  1.00  0.00     0.070 A 
HETATM    5  C   LIG     1      28.773  28.427  31.456  1.00  0.00     0.032 A 
HETATM    6  C   LIG     1      29.057  28.595  30.099  1.00  0.00     0.024 A 
HETATM    7  C   LIG     1      28.348  27.866  29.140  1.00  0.00     0.038 A 
HETATM    8  S   LIG     1      29.748  29.276  32.704  1.00  0.00    -0.086 SA
HETATM    9  C   LIG     1      28.306  29.749  33.664  1.00  0.00     0.032 A 
HETATM   10  C   LIG     1      27.310  28.790  33.932  1.00  0.00     0.052 A 
HETATM   11  C   LIG     1      26.206  29.148  34.720  1.00  0.00     0.031 A 
HETATM   12  C   LIG     1      26.108  30.438  35.250  1.00  0.00     0.002 A 
HETATM   13  C   LIG     1      27.097  31.387  34.974  1.00  0.00     0.002 A 
HETATM   14  C   LIG     1      28.191  31.047  34.175  1.00  0.00     0.021 A 
ENDROOT
BRANCH   1  15
HETATM   15  C   LIG     1      27.391  26.264  34.002  1.00  0.00     0.135 C 
BRANCH  15  16
HETATM   16  C   LIG     1      28.835  25.912  34.456  1.00  0.00     0.028 C 
HETATM   17  C   LIG     1      28.885  25.643  35.970  1.00  0.00     0.013 C 
BRANCH  16  18
HETATM   18  C   LIG     1      29.371  24.680  33.686  1.00  0.00     0.277 C 
BRANCH  18  19
HETATM   19  N   LIG     1      28.264  23.882  33.109  1.00  0.00     0.080 N 
HETATM   20  C   LIG     1      28.542  23.569  31.698  1.00  0.00     0.309 C 
HETATM   21  C   LIG     1      28.069  22.627  33.858  1.00  0.00     0.309 C 
ENDBRANCH  18  19
ENDBRANCH  16  18
ENDBRANCH  15  16
ENDBRANCH   1  15
BRANCH   4  22
HETATM   22  O   LIG     1      26.593  26.220  28.609  1.00  0.00    -0.356 OA
HETATM   23  C   LIG     1      26.801  24.836  28.344  1.00  0.00     0.210 C 
ENDBRANCH   4  22
TORSDOF 5
ENDMDL
MODEL 6
REMARK VINA RESULT:      -5.0     14.822     16.247
REMARK  5 active torsions:
REMARK  status: ('A' for Active; 'I' for Inactive)
REMARK    1  A    between atoms: C_2  and  C_3 
REMARK    2  A    between atoms: C_2  and  C_7 
REMARK    3  A    between atoms: C_3  and  N_4 
REMARK    4  A    between atoms: C_7  and  N_8 
REMARK    5  A    between atoms: C_11  and  O_12 
ROOT
HETATM    1  N   LIG     1      26.145  22.985  23.688  1.00  0.00    -0.344 N 
HETATM    2  C   LIG     1      26.114  23.013  25.128  1.00  0.00     0.054 A 
HETATM    3  C   LIG     1      26.530  24.153  25.829  1.00  0.00     0.067 A 
HETATM    4  C   LIG     1      26.351  24.242  27.216  1.00  0.00     0.070 A 
HETATM    5  C   LIG     1      25.510  21.953  25.825  1.00  0.00     0.032 A 
HETATM    6  C   LIG     1      25.307  22.043  27.205  1.00  0.00     0.024 A 
HETATM    7  C   LIG     1      25.731  23.178  27.901  1.00  0.00     0.038 A 
HETATM    8  S   LIG     1      25.068  20.455  24.936  1.00  0.00    -0.086 SA
HETATM    9  C   LIG     1      24.307  21.356  23.581  1.00  0.00     0.032 A 
HETATM   10  C   LIG     1      24.980  22.459  23.021  1.00  0.00     0.052 A 
HETATM   11  C   LIG     1      24.407  23.135  21.934  1.00  0.00     0.031 A 
HETATM   12  C   LIG     1      23.189  22.701  21.399  1.00  0.00     0.002 A 
HETATM   13  C   LIG     1      22.523  21.609  21.964  1.00  0.00     0.002 A 
HETATM   14  C   LIG     1      23.076  20.942  23.059  1.00  0.00     0.021 A 
ENDROOT
BRANCH   1  15
HETATM   15  C   LIG     1      27.430  23.082  22.979  1.00  0.00     0.135 C 
BRANCH  15  16
HETATM   16  C   LIG     1      27.665  24.506  22.402  1.00  0.00     0.028 C 
HETATM   17  C   LIG     1      28.868  25.182  23.082  1.00  0.00     0.013 C 
BRANCH  16  18
HETATM   18  C   LIG     1      27.888  24.452  20.871  1.00  0.00     0.277 C 
BRANCH  18  19
HETATM   19  N   LIG     1      27.352  25.662  20.206  1.00  0.00     0.080 N 
HETATM   20  C   LIG     1      28.369  26.251  19.320  1.00  0.00     0.309 C 
HETATM   21  C   LIG     1      26.145  25.344  19.420  1.00  0.00     0.309 C 
ENDBRANCH  18  19
ENDBRANCH  16  18
ENDBRANCH  15  16
ENDBRANCH   1  15
BRANCH   4  22
HETATM   22  O   LIG     1      26.788  25.404  27.870  1.00  0.00    -0.356 OA
HETATM   23  C   LIG     1      27.097  25.476  29.259  1.00  0.00     0.210 C 
ENDBRANCH   4  22
TORSDOF 5
ENDMDL
MODEL 7
REMARK VINA RESULT:      -4.9     15.327     17.463
REMARK  5 active torsions:
REMARK  status: ('A' for Active; 'I' for Inactive)
REMARK    1  A    between atoms: C_2  and  C_3 
REMARK    2  A    between atoms: C_2  and  C_7 
REMARK    3  A    between atoms: C_3  and  N_4 
REMARK    4  A    between atoms: C_7  and  N_8 
REMARK    5  A    between atoms: C_11  and  O_12 
ROOT
HETATM    1  N   LIG     1      25.151  21.696  19.838  1.00  0.00    -0.344 N 
HETATM    2  C   LIG     1      24.767  20.751  18.821  1.00  0.00     0.054 A 
HETATM    3  C   LIG     1      23.452  20.270  18.752  1.00  0.00     0.067 A 
HETATM    4  C   LIG     1      23.037  19.479  17.673  1.00  0.00     0.070 A 
HETATM    5  C   LIG     1      25.673  20.438  17.793  1.00  0.00     0.032 A 
HETATM    6  C   LIG     1      25.261  19.668  16.702  1.00  0.00     0.024 A 
HETATM    7  C   LIG     1      23.952  19.184  16.643  1.00  0.00     0.038 A 
HETATM    8  S   LIG     1      27.382  20.975  17.935  1.00  0.00    -0.086 SA
HETATM    9  C   LIG     1      26.929  22.642  18.428  1.00  0.00     0.032 A 
HETATM   10  C   LIG     1      25.940  22.825  19.415  1.00  0.00     0.052 A 
HETATM   11  C   LIG     1      25.618  24.125  19.832  1.00  0.00     0.031 A 
HETATM   12  C   LIG     1      26.290  25.225  19.289  1.00  0.00     0.002 A 
HETATM   13  C   LIG     1      27.266  25.036  18.306  1.00  0.00     0.002 A 
HETATM   14  C   LIG     1      27.581  23.747  17.869  1.00  0.00     0.021 A 
ENDROOT
BRANCH   1  15
HETATM   15  C   LIG     1      25.108  21.306  21.256  1.00  0.00     0.135 C 
BRANCH  15  16
HETATM   16  C   LIG     1      24.297  22.320  22.109  1.00  0.00     0.028 C 
HETATM   17  C   LIG     1      22.829  22.373  21.651  1.00  0.00     0.013 C 
BRANCH  16  18
HETATM   18  C   LIG     1      24.365  21.957  23.612  1.00  0.00     0.277 C 
BRANCH  18  19
HETATM   19  N   LIG     1      24.958  23.059  24.406  1.00  0.00     0.080 N 
HETATM   20  C   LIG     1      24.772  22.810  25.845  1.00  0.00     0.309 C 
HETATM   21  C   LIG     1      26.397  23.203  24.118  1.00  0.00     0.309 C 
ENDBRANCH  18  19
ENDBRANCH  16  18
ENDBRANCH  15  16
ENDBRANCH   1  15
BRANCH   4  22
HETATM   22  O   LIG     1      21.711  19.021  17.655  1.00  0.00    -0.356 OA
HETATM   23  C   LIG     1      21.001  18.661  16.474  1.00  0.00     0.210 C 
ENDBRANCH   4  22
TORSDOF 5
ENDMDL
MODEL 8
REMARK VINA RESULT:      -4.9     14.905     16.634
REMARK  5 active torsions:
REMARK  status: ('A' for Active; 'I' for Inactive)
REMARK    1  A    between atoms: C_2  and  C_3 
REMARK    2  A    between atoms: C_2  and  C_7 
REMARK    3  A    between atoms: C_3  and  N_4 
REMARK    4  A    between atoms: C_7  and  N_8 
REMARK    5  A    between atoms: C_11  and  O_12 
ROOT
HETATM    1  N   LIG     1      27.158  24.307  20.239  1.00  0.00    -0.344 N 
HETATM    2  C   LIG     1      26.288  23.277  19.731  1.00  0.00     0.054 A 
HETATM    3  C   LIG     1      24.973  23.156  20.201  1.00  0.00     0.067 A 
HETATM    4  C   LIG     1      24.078  22.264  19.596  1.00  0.00     0.070 A 
HETATM    5  C   LIG     1      26.708  22.496  18.640  1.00  0.00     0.032 A 
HETATM    6  C   LIG     1      25.816  21.620  18.017  1.00  0.00     0.024 A 
HETATM    7  C   LIG     1      24.508  21.497  18.495  1.00  0.00     0.038 A 
HETATM    8  S   LIG     1      28.421  22.585  18.105  1.00  0.00    -0.086 SA
HETATM    9  C   LIG     1      28.456  24.380  18.153  1.00  0.00     0.032 A 
HETATM   10  C   LIG     1      27.923  25.051  19.271  1.00  0.00     0.052 A 
HETATM   11  C   LIG     1      27.991  26.451  19.329  1.00  0.00     0.031 A 
HETATM   12  C   LIG     1      28.601  27.169  18.296  1.00  0.00     0.002 A 
HETATM   13  C   LIG     1      29.122  26.497  17.186  1.00  0.00     0.002 A 
HETATM   14  C   LIG     1      29.042  25.104  17.109  1.00  0.00     0.021 A 
ENDROOT
BRANCH   1  15
HETATM   15  C   LIG     1      27.553  24.300  21.657  1.00  0.00     0.135 C 
BRANCH  15  16
HETATM   16  C   LIG     1      28.144  22.928  22.085  1.00  0.00     0.028 C 
HETATM   17  C   LIG     1      29.659  23.036  22.332  1.00  0.00     0.013 C 
BRANCH  16  18
HETATM   18  C   LIG     1      27.440  22.396  23.357  1.00  0.00     0.277 C 
BRANCH  18  19
HETATM   19  N   LIG     1      26.424  23.354  23.851  1.00  0.00     0.080 N 
HETATM   20  C   LIG     1      25.107  22.703  23.937  1.00  0.00     0.309 C 
HETATM   21  C   LIG     1      26.795  23.883  25.177  1.00  0.00     0.309 C 
ENDBRANCH  18  19
ENDBRANCH  16  18
ENDBRANCH  15  16
ENDBRANCH   1  15
BRANCH   4  22
HETATM   22  O   LIG     1      22.775  22.179  20.108  1.00  0.00    -0.356 OA
HETATM   23  C   LIG     1      22.360  22.744  21.348  1.00  0.00     0.210 C 
ENDBRANCH   4  22
TORSDOF 5
ENDMDL
