MODEL 1
REMARK VINA RESULT:      -5.4      0.000      0.000
REMARK  3 active torsions:
REMARK  status: ('A' for Active; 'I' for Inactive)
REMARK    1  A    between atoms: C_2  and  C_4 
REMARK    2  A    between atoms: C_4  and  C_6 
REMARK    3  A    between atoms: C_4  and  O_5 
ROOT
HETATM    1  C   LIG     1      16.934  37.162  24.586  1.00  0.00     0.124 C 
ENDROOT
BRANCH   1   2
HETATM    2  C   LIG     1      17.881  36.176  25.344  1.00  0.00     0.006 C 
HETATM    3  C   LIG     1      18.526  36.797  26.591  1.00  0.00     0.012 C 
HETATM    4  C   LIG     1      17.253  34.811  25.673  1.00  0.00     0.012 C 
ENDBRANCH   1   2
BRANCH   1   5
HETATM    5  C   LIG     1      17.277  37.463  23.095  1.00  0.00     0.006 C 
HETATM    6  C   LIG     1      16.772  38.831  22.610  1.00  0.00     0.012 C 
HETATM    7  C   LIG     1      16.713  36.354  22.191  1.00  0.00     0.012 C 
ENDBRANCH   1   5
BRANCH   1   8
HETATM    8  O   LIG     1      16.803  38.368  25.300  1.00  0.00    -0.395 OA
HETATM    9  H   LIG     1      17.376  39.038  24.842  1.00  0.00     0.210 HD
ENDBRANCH   1   8
TORSDOF 3
ENDMDL
MODEL 2
REMARK VINA RESULT:      -5.2      0.709      1.439
REMARK  3 active torsions:
REMARK  status: ('A' for Active; 'I' for Inactive)
REMARK    1  A    between atoms: C_2  and  C_4 
REMARK    2  A    between atoms: C_4  and  C_6 
REMARK    3  A    between atoms: C_4  and  O_5 
ROOT
HETATM    1  C   LIG     1      16.638  36.868  24.433  1.00  0.00     0.124 C 
ENDROOT
BRANCH   1   2
HETATM    2  C   LIG     1      17.779  36.102  25.176  1.00  0.00     0.006 C 
HETATM    3  C   LIG     1      18.614  37.005  26.094  1.00  0.00     0.012 C 
HETATM    4  C   LIG     1      17.321  34.836  25.922  1.00  0.00     0.012 C 
ENDBRANCH   1   2
BRANCH   1   5
HETATM    5  C   LIG     1      16.647  36.808  22.875  1.00  0.00     0.006 C 
HETATM    6  C   LIG     1      17.062  35.439  22.312  1.00  0.00     0.012 C 
HETATM    7  C   LIG     1      17.570  37.901  22.311  1.00  0.00     0.012 C 
ENDBRANCH   1   5
BRANCH   1   8
HETATM    8  O   LIG     1      16.584  38.208  24.859  1.00  0.00    -0.395 OA
HETATM    9  H   LIG     1      16.819  38.771  24.075  1.00  0.00     0.210 HD
ENDBRANCH   1   8
TORSDOF 3
ENDMDL
MODEL 3
REMARK VINA RESULT:      -5.1      1.118      1.683
REMARK  3 active torsions:
REMARK  status: ('A' for Active; 'I' for Inactive)
REMARK    1  A    between atoms: C_2  and  C_4 
REMARK    2  A    between atoms: C_4  and  C_6 
REMARK    3  A    between atoms: C_4  and  O_5 
ROOT
HETATM    1  C   LIG     1      16.503  37.071  23.638  1.00  0.00     0.124 C 
ENDROOT
BRANCH   1   2
HETATM    2  C   LIG     1      17.156  36.657  24.996  1.00  0.00     0.006 C 
HETATM    3  C   LIG     1      17.429  35.150  25.101  1.00  0.00     0.012 C 
HETATM    4  C   LIG     1      18.407  37.468  25.378  1.00  0.00     0.012 C 
ENDBRANCH   1   2
BRANCH   1   5
HETATM    5  C   LIG     1      17.468  37.512  22.496  1.00  0.00     0.006 C 
HETATM    6  C   LIG     1      17.289  38.977  22.067  1.00  0.00     0.012 C 
HETATM    7  C   LIG     1      17.296  36.591  21.276  1.00  0.00     0.012 C 
ENDBRANCH   1   5
BRANCH   1   8
HETATM    8  O   LIG     1      15.522  38.060  23.843  1.00  0.00    -0.395 OA
HETATM    9  H   LIG     1      15.856  38.653  24.567  1.00  0.00     0.210 HD
ENDBRANCH   1   8
TORSDOF 3
ENDMDL
MODEL 4
REMARK VINA RESULT:      -5.0      1.490      3.610
REMARK  3 active torsions:
REMARK  status: ('A' for Active; 'I' for Inactive)
REMARK    1  A    between atoms: C_2  and  C_4 
REMARK    2  A    between atoms: C_4  and  C_6 
REMARK    3  A    between atoms: C_4  and  O_5 
ROOT
HETATM    1  C   LIG     1      16.441  37.356  23.068  1.00  0.00     0.124 C 
ENDROOT
BRANCH   1   2
HETATM    2  C   LIG     1      16.397  36.160  22.064  1.00  0.00     0.006 C 
HETATM    3  C   LIG     1      14.999  35.910  21.482  1.00  0.00     0.012 C 
HETATM    4  C   LIG     1      17.452  36.224  20.945  1.00  0.00     0.012 C 
ENDBRANCH   1   2
BRANCH   1   5
HETATM    5  C   LIG     1      16.936  37.046  24.514  1.00  0.00     0.006 C 
HETATM    6  C   LIG     1      18.139  37.897  24.951  1.00  0.00     0.012 C 
HETATM    7  C   LIG     1      17.284  35.553  24.642  1.00  0.00     0.012 C 
ENDBRANCH   1   5
BRANCH   1   8
HETATM    8  O   LIG     1      15.192  38.004  23.119  1.00  0.00    -0.395 OA
HETATM    9  H   LIG     1      14.789  37.787  24.001  1.00  0.00     0.210 HD
ENDBRANCH   1   8
TORSDOF 3
ENDMDL
MODEL 5
REMARK VINA RESULT:      -5.0      2.042      3.044
REMARK  3 active torsions:
REMARK  status: ('A' for Active; 'I' for Inactive)
REMARK    1  A    between atoms: C_2  and  C_4 
REMARK    2  A    between atoms: C_4  and  C_6 
REMARK    3  A    between atoms: C_4  and  O_5 
ROOT
HETATM    1  C   LIG     1      16.165  37.455  23.192  1.00  0.00     0.124 C 
ENDROOT
BRANCH   1   2
HETATM    2  C   LIG     1      17.343  38.468  23.359  1.00  0.00     0.006 C 
HETATM    3  C   LIG     1      18.297  38.102  24.505  1.00  0.00     0.012 C 
HETATM    4  C   LIG     1      18.126  38.758  22.067  1.00  0.00     0.012 C 
ENDBRANCH   1   2
BRANCH   1   5
HETATM    5  C   LIG     1      16.328  36.358  22.097  1.00  0.00     0.006 C 
HETATM    6  C   LIG     1      15.005  35.952  21.427  1.00  0.00     0.012 C 
HETATM    7  C   LIG     1      17.007  35.114  22.695  1.00  0.00     0.012 C 
ENDBRANCH   1   5
BRANCH   1   8
HETATM    8  O   LIG     1      14.948  38.139  23.006  1.00  0.00    -0.395 OA
HETATM    9  H   LIG     1      14.223  37.519  23.282  1.00  0.00     0.210 HD
ENDBRANCH   1   8
TORSDOF 3
ENDMDL
MODEL 6
REMARK VINA RESULT:      -4.8      2.700      3.840
REMARK  3 active torsions:
REMARK  status: ('A' for Active; 'I' for Inactive)
REMARK    1  A    between atoms: C_2  and  C_4 
REMARK    2  A    between atoms: C_4  and  C_6 
REMARK    3  A    between atoms: C_4  and  O_5 
ROOT
HETATM    1  C   LIG     1      18.320  38.992  21.737  1.00  0.00     0.124 C 
ENDROOT
BRANCH   1   2
HETATM    2  C   LIG     1      17.500  38.069  22.695  1.00  0.00     0.006 C 
HETATM    3  C   LIG     1      17.982  38.126  24.150  1.00  0.00     0.012 C 
HETATM    4  C   LIG     1      15.975  38.259  22.615  1.00  0.00     0.012 C 
ENDBRANCH   1   2
BRANCH   1   5
HETATM    5  C   LIG     1      18.600  38.450  20.303  1.00  0.00     0.006 C 
HETATM    6  C   LIG     1      18.477  36.923  20.184  1.00  0.00     0.012 C 
HETATM    7  C   LIG     1      19.996  38.894  19.834  1.00  0.00     0.012 C 
ENDBRANCH   1   5
BRANCH   1   8
HETATM    8  O   LIG     1      19.529  39.383  22.344  1.00  0.00    -0.395 OA
HETATM    9  H   LIG     1      19.295  39.783  23.223  1.00  0.00     0.210 HD
ENDBRANCH   1   8
TORSDOF 3
ENDMDL
MODEL 7
REMARK VINA RESULT:      -4.8      3.388      4.409
REMARK  3 active torsions:
REMARK  status: ('A' for Active; 'I' for Inactive)
REMARK    1  A    between atoms: C_2  and  C_4 
REMARK    2  A    between atoms: C_4  and  C_6 
REMARK    3  A    between atoms: C_4  and  O_5 
ROOT
HETATM    1  C   LIG     1      18.030  36.822  20.810  1.00  0.00     0.124 C 
ENDROOT
BRANCH   1   2
HETATM    2  C   LIG     1      16.757  36.097  21.353  1.00  0.00     0.006 C 
HETATM    3  C   LIG     1      15.997  35.319  20.270  1.00  0.00     0.012 C 
HETATM    4  C   LIG     1      17.001  35.216  22.591  1.00  0.00     0.012 C 
ENDBRANCH   1   2
BRANCH   1   5
HETATM    5  C   LIG     1      18.076  38.373  20.961  1.00  0.00     0.006 C 
HETATM    6  C   LIG     1      19.380  39.006  20.448  1.00  0.00     0.012 C 
HETATM    7  C   LIG     1      17.855  38.766  22.431  1.00  0.00     0.012 C 
ENDBRANCH   1   5
BRANCH   1   8
HETATM    8  O   LIG     1      18.269  36.465  19.470  1.00  0.00    -0.395 OA
HETATM    9  H   LIG     1      17.396  36.188  19.084  1.00  0.00     0.210 HD
ENDBRANCH   1   8
TORSDOF 3
ENDMDL
MODEL 8
REMARK VINA RESULT:      -4.8      2.091      3.368
REMARK  3 active torsions:
REMARK  status: ('A' for Active; 'I' for Inactive)
REMARK    1  A    between atoms: C_2  and  C_4 
REMARK    2  A    between atoms: C_4  and  C_6 
REMARK    3  A    between atoms: C_4  and  O_5 
ROOT
HETATM    1  C   LIG     1      16.304  37.646  22.309  1.00  0.00     0.124 C 
ENDROOT
BRANCH   1   2
HETATM    2  C   LIG     1      16.223  36.191  21.745  1.00  0.00     0.006 C 
HETATM    3  C   LIG     1      16.900  35.153  22.650  1.00  0.00     0.012 C 
HETATM    4  C   LIG     1      14.807  35.735  21.351  1.00  0.00     0.012 C 
ENDBRANCH   1   2
BRANCH   1   5
HETATM    5  C   LIG     1      17.633  38.056  23.014  1.00  0.00     0.006 C 
HETATM    6  C   LIG     1      17.461  38.409  24.500  1.00  0.00     0.012 C 
HETATM    7  C   LIG     1      18.278  39.240  22.273  1.00  0.00     0.012 C 
ENDBRANCH   1   5
BRANCH   1   8
HETATM    8  O   LIG     1      15.212  37.908  23.158  1.00  0.00    -0.395 OA
HETATM    9  H   LIG     1      15.566  38.413  23.937  1.00  0.00     0.210 HD
ENDBRANCH   1   8
TORSDOF 3
ENDMDL
MODEL 9
REMARK VINA RESULT:      -4.7      1.442      3.645
REMARK  3 active torsions:
REMARK  status: ('A' for Active; 'I' for Inactive)
REMARK    1  A    between atoms: C_2  and  C_4 
REMARK    2  A    between atoms: C_4  and  C_6 
REMARK    3  A    between atoms: C_4  and  O_5 
ROOT
HETATM    1  C   LIG     1      16.753  38.249  23.534  1.00  0.00     0.124 C 
ENDROOT
BRANCH   1   2
HETATM    2  C   LIG     1      17.222  38.341  22.046  1.00  0.00     0.006 C 
HETATM    3  C   LIG     1      18.485  39.194  21.862  1.00  0.00     0.012 C 
HETATM    4  C   LIG     1      17.370  36.984  21.336  1.00  0.00     0.012 C 
ENDBRANCH   1   2
BRANCH   1   5
HETATM    5  C   LIG     1      17.572  37.315  24.475  1.00  0.00     0.006 C 
HETATM    6  C   LIG     1      17.100  35.853  24.458  1.00  0.00     0.012 C 
HETATM    7  C   LIG     1      17.533  37.854  25.916  1.00  0.00     0.012 C 
ENDBRANCH   1   5
BRANCH   1   8
HETATM    8  O   LIG     1      15.387  37.917  23.601  1.00  0.00    -0.395 OA
HETATM    9  H   LIG     1      15.135  37.546  22.714  1.00  0.00     0.210 HD
ENDBRANCH   1   8
TORSDOF 3
ENDMDL
MODEL 10
REMARK VINA RESULT:      -4.7      1.652      3.760
REMARK  3 active torsions:
REMARK  status: ('A' for Active; 'I' for Inactive)
REMARK    1  A    between atoms: C_2  and  C_4 
REMARK    2  A    between atoms: C_4  and  C_6 
REMARK    3  A    between atoms: C_4  and  O_5 
ROOT
HETATM    1  C   LIG     1      16.843  36.441  23.612  1.00  0.00     0.124 C 
ENDROOT
BRANCH   1   2
HETATM    2  C   LIG     1      17.401  37.572  22.689  1.00  0.00     0.006 C 
HETATM    3  C   LIG     1      17.680  37.100  21.256  1.00  0.00     0.012 C 
HETATM    4  C   LIG     1      16.570  38.866  22.688  1.00  0.00     0.012 C 
ENDBRANCH   1   2
BRANCH   1   5
HETATM    5  C   LIG     1      17.292  36.461  25.104  1.00  0.00     0.006 C 
HETATM    6  C   LIG     1      18.526  37.339  25.366  1.00  0.00     0.012 C 
HETATM    7  C   LIG     1      17.564  35.028  25.592  1.00  0.00     0.012 C 
ENDBRANCH   1   5
BRANCH   1   8
HETATM    8  O   LIG     1      17.101  35.175  23.052  1.00  0.00    -0.395 OA
HETATM    9  H   LIG     1      17.837  35.293  22.396  1.00  0.00     0.210 HD
ENDBRANCH   1   8
TORSDOF 3
ENDMDL
MODEL 11
REMARK VINA RESULT:      -4.6      3.042      4.693
REMARK  3 active torsions:
REMARK  status: ('A' for Active; 'I' for Inactive)
REMARK    1  A    between atoms: C_2  and  C_4 
REMARK    2  A    between atoms: C_4  and  C_6 
REMARK    3  A    between atoms: C_4  and  O_5 
ROOT
HETATM    1  C   LIG     1      18.606  38.505  21.372  1.00  0.00     0.124 C 
ENDROOT
BRANCH   1   2
HETATM    2  C   LIG     1      18.988  38.233  19.882  1.00  0.00     0.006 C 
HETATM    3  C   LIG     1      20.259  38.970  19.439  1.00  0.00     0.012 C 
HETATM    4  C   LIG     1      19.057  36.743  19.500  1.00  0.00     0.012 C 
ENDBRANCH   1   2
BRANCH   1   5
HETATM    5  C   LIG     1      17.160  38.123  21.811  1.00  0.00     0.006 C 
HETATM    6  C   LIG     1      16.514  39.141  22.764  1.00  0.00     0.012 C 
HETATM    7  C   LIG     1      17.159  36.730  22.464  1.00  0.00     0.012 C 
ENDBRANCH   1   5
BRANCH   1   8
HETATM    8  O   LIG     1      18.870  39.845  21.712  1.00  0.00    -0.395 OA
HETATM    9  H   LIG     1      19.278  40.272  20.913  1.00  0.00     0.210 HD
ENDBRANCH   1   8
TORSDOF 3
ENDMDL
MODEL 12
REMARK VINA RESULT:      -4.6      1.657      2.103
REMARK  3 active torsions:
REMARK  status: ('A' for Active; 'I' for Inactive)
REMARK    1  A    between atoms: C_2  and  C_4 
REMARK    2  A    between atoms: C_4  and  C_6 
REMARK    3  A    between atoms: C_4  and  O_5 
ROOT
HETATM    1  C   LIG     1      17.502  36.326  23.757  1.00  0.00     0.124 C 
ENDROOT
BRANCH   1   2
HETATM    2  C   LIG     1      17.491  36.260  25.318  1.00  0.00     0.006 C 
HETATM    3  C   LIG     1      17.488  34.824  25.862  1.00  0.00     0.012 C 
HETATM    4  C   LIG     1      18.581  37.103  26.003  1.00  0.00     0.012 C 
ENDBRANCH   1   2
BRANCH   1   5
HETATM    5  C   LIG     1      16.993  37.647  23.104  1.00  0.00     0.006 C 
HETATM    6  C   LIG     1      15.471  37.690  22.900  1.00  0.00     0.012 C 
HETATM    7  C   LIG     1      17.702  37.876  21.757  1.00  0.00     0.012 C 
ENDBRANCH   1   5
BRANCH   1   8
HETATM    8  O   LIG     1      16.813  35.227  23.211  1.00  0.00    -0.395 OA
HETATM    9  H   LIG     1      16.875  35.308  22.223  1.00  0.00     0.210 HD
ENDBRANCH   1   8
TORSDOF 3
ENDMDL
MODEL 13
REMARK VINA RESULT:      -4.6      3.266      4.420
REMARK  3 active torsions:
REMARK  status: ('A' for Active; 'I' for Inactive)
REMARK    1  A    between atoms: C_2  and  C_4 
REMARK    2  A    between atoms: C_4  and  C_6 
REMARK    3  A    between atoms: C_4  and  O_5 
ROOT
HETATM    1  C   LIG     1      17.452  37.017  20.757  1.00  0.00     0.124 C 
ENDROOT
BRANCH   1   2
HETATM    2  C   LIG     1      17.972  38.186  21.654  1.00  0.00     0.006 C 
HETATM    3  C   LIG     1      18.778  39.234  20.874  1.00  0.00     0.012 C 
HETATM    4  C   LIG     1      16.892  38.859  22.519  1.00  0.00     0.012 C 
ENDBRANCH   1   2
BRANCH   1   5
HETATM    5  C   LIG     1      16.457  36.013  21.414  1.00  0.00     0.006 C 
HETATM    6  C   LIG     1      17.095  35.130  22.497  1.00  0.00     0.012 C 
HETATM    7  C   LIG     1      15.816  35.125  20.334  1.00  0.00     0.012 C 
ENDBRANCH   1   5
BRANCH   1   8
HETATM    8  O   LIG     1      18.531  36.315  20.186  1.00  0.00    -0.395 OA
HETATM    9  H   LIG     1      18.907  35.733  20.898  1.00  0.00     0.210 HD
ENDBRANCH   1   8
TORSDOF 3
ENDMDL
MODEL 14
REMARK VINA RESULT:      -4.5      3.050      4.853
REMARK  3 active torsions:
REMARK  status: ('A' for Active; 'I' for Inactive)
REMARK    1  A    between atoms: C_2  and  C_4 
REMARK    2  A    between atoms: C_4  and  C_6 
REMARK    3  A    between atoms: C_4  and  O_5 
ROOT
HETATM    1  C   LIG     1      17.319  36.988  20.983  1.00  0.00     0.124 C 
ENDROOT
BRANCH   1   2
HETATM    2  C   LIG     1      18.626  37.749  20.588  1.00  0.00     0.006 C 
HETATM    3  C   LIG     1      19.146  37.372  19.194  1.00  0.00     0.012 C 
HETATM    4  C   LIG     1      18.550  39.277  20.751  1.00  0.00     0.012 C 
ENDBRANCH   1   2
BRANCH   1   5
HETATM    5  C   LIG     1      17.066  36.764  22.505  1.00  0.00     0.006 C 
HETATM    6  C   LIG     1      16.883  35.287  22.890  1.00  0.00     0.012 C 
HETATM    7  C   LIG     1      15.840  37.573  22.960  1.00  0.00     0.012 C 
ENDBRANCH   1   5
BRANCH   1   8
HETATM    8  O   LIG     1      17.237  35.760  20.300  1.00  0.00    -0.395 OA
HETATM    9  H   LIG     1      16.477  35.258  20.697  1.00  0.00     0.210 HD
ENDBRANCH   1   8
TORSDOF 3
ENDMDL
MODEL 15
REMARK VINA RESULT:      -4.5      4.569      6.050
REMARK  3 active torsions:
REMARK  status: ('A' for Active; 'I' for Inactive)
REMARK    1  A    between atoms: C_2  and  C_4 
REMARK    2  A    between atoms: C_4  and  C_6 
REMARK    3  A    between atoms: C_4  and  O_5 
ROOT
HETATM    1  C   LIG     1      15.347  33.613  20.941  1.00  0.00     0.124 C 
ENDROOT
BRANCH   1   2
HETATM    2  C   LIG     1      15.660  35.117  20.650  1.00  0.00     0.006 C 
HETATM    3  C   LIG     1      14.691  36.081  21.347  1.00  0.00     0.012 C 
HETATM    4  C   LIG     1      17.120  35.528  20.906  1.00  0.00     0.012 C 
ENDBRANCH   1   2
BRANCH   1   5
HETATM    5  C   LIG     1      15.561  32.609  19.768  1.00  0.00     0.006 C 
HETATM    6  C   LIG     1      15.117  33.151  18.401  1.00  0.00     0.012 C 
HETATM    7  C   LIG     1      14.828  31.290  20.064  1.00  0.00     0.012 C 
ENDBRANCH   1   5
BRANCH   1   8
HETATM    8  O   LIG     1      14.046  33.471  21.460  1.00  0.00    -0.395 OA
HETATM    9  H   LIG     1      13.441  33.322  20.687  1.00  0.00     0.210 HD
ENDBRANCH   1   8
TORSDOF 3
ENDMDL
MODEL 16
REMARK VINA RESULT:      -4.4      2.727      4.588
REMARK  3 active torsions:
REMARK  status: ('A' for Active; 'I' for Inactive)
REMARK    1  A    between atoms: C_2  and  C_4 
REMARK    2  A    between atoms: C_4  and  C_6 
REMARK    3  A    between atoms: C_4  and  O_5 
ROOT
HETATM    1  C   LIG     1      17.409  37.459  21.289  1.00  0.00     0.124 C 
ENDROOT
BRANCH   1   2
HETATM    2  C   LIG     1      18.757  37.906  20.636  1.00  0.00     0.006 C 
HETATM    3  C   LIG     1      19.186  37.011  19.465  1.00  0.00     0.012 C 
HETATM    4  C   LIG     1      18.815  39.392  20.240  1.00  0.00     0.012 C 
ENDBRANCH   1   2
BRANCH   1   5
HETATM    5  C   LIG     1      16.907  38.290  22.509  1.00  0.00     0.006 C 
HETATM    6  C   LIG     1      17.851  38.242  23.720  1.00  0.00     0.012 C 
HETATM    7  C   LIG     1      15.504  37.817  22.927  1.00  0.00     0.012 C 
ENDBRANCH   1   5
BRANCH   1   8
HETATM    8  O   LIG     1      17.453  36.093  21.628  1.00  0.00    -0.395 OA
HETATM    9  H   LIG     1      17.905  35.624  20.878  1.00  0.00     0.210 HD
ENDBRANCH   1   8
TORSDOF 3
ENDMDL
MODEL 17
REMARK VINA RESULT:      -4.4      3.657      4.581
REMARK  3 active torsions:
REMARK  status: ('A' for Active; 'I' for Inactive)
REMARK    1  A    between atoms: C_2  and  C_4 
REMARK    2  A    between atoms: C_4  and  C_6 
REMARK    3  A    between atoms: C_4  and  O_5 
ROOT
HETATM    1  C   LIG     1      17.259  35.681  20.991  1.00  0.00     0.124 C 
ENDROOT
BRANCH   1   2
HETATM    2  C   LIG     1      17.871  36.996  20.407  1.00  0.00     0.006 C 
HETATM    3  C   LIG     1      17.998  38.117  21.447  1.00  0.00     0.012 C 
HETATM    4  C   LIG     1      19.194  36.803  19.645  1.00  0.00     0.012 C 
ENDBRANCH   1   2
BRANCH   1   5
HETATM    5  C   LIG     1      15.835  35.285  20.495  1.00  0.00     0.006 C 
HETATM    6  C   LIG     1      14.700  35.840  21.370  1.00  0.00     0.012 C 
HETATM    7  C   LIG     1      15.717  33.754  20.404  1.00  0.00     0.012 C 
ENDBRANCH   1   5
BRANCH   1   8
HETATM    8  O   LIG     1      17.285  35.707  22.398  1.00  0.00    -0.395 OA
HETATM    9  H   LIG     1      16.388  35.415  22.710  1.00  0.00     0.210 HD
ENDBRANCH   1   8
TORSDOF 3
ENDMDL
MODEL 18
REMARK VINA RESULT:      -4.4      3.328      4.736
REMARK  3 active torsions:
REMARK  status: ('A' for Active; 'I' for Inactive)
REMARK    1  A    between atoms: C_2  and  C_4 
REMARK    2  A    between atoms: C_4  and  C_6 
REMARK    3  A    between atoms: C_4  and  O_5 
ROOT
HETATM    1  C   LIG     1      15.319  34.912  21.357  1.00  0.00     0.124 C 
ENDROOT
BRANCH   1   2
HETATM    2  C   LIG     1      16.420  35.784  22.043  1.00  0.00     0.006 C 
HETATM    3  C   LIG     1      17.067  35.098  23.253  1.00  0.00     0.012 C 
HETATM    4  C   LIG     1      17.492  36.331  21.084  1.00  0.00     0.012 C 
ENDBRANCH   1   2
BRANCH   1   5
HETATM    5  C   LIG     1      15.758  34.061  20.127  1.00  0.00     0.006 C 
HETATM    6  C   LIG     1      15.415  34.706  18.775  1.00  0.00     0.012 C 
HETATM    7  C   LIG     1      15.130  32.659  20.205  1.00  0.00     0.012 C 
ENDBRANCH   1   5
BRANCH   1   8
HETATM    8  O   LIG     1      14.203  35.701  21.019  1.00  0.00    -0.395 OA
HETATM    9  H   LIG     1      13.948  35.457  20.090  1.00  0.00     0.210 HD
ENDBRANCH   1   8
TORSDOF 3
ENDMDL
MODEL 19
REMARK VINA RESULT:      -4.3      8.642     10.587
REMARK  3 active torsions:
REMARK  status: ('A' for Active; 'I' for Inactive)
REMARK    1  A    between atoms: C_2  and  C_4 
REMARK    2  A    between atoms: C_4  and  C_6 
REMARK    3  A    between atoms: C_4  and  O_5 
ROOT
HETATM    1  C   LIG     1      15.314  31.912  15.919  1.00  0.00     0.124 C 
ENDROOT
BRANCH   1   2
HETATM    2  C   LIG     1      14.567  30.642  15.396  1.00  0.00     0.006 C 
HETATM    3  C   LIG     1      13.055  30.679  15.659  1.00  0.00     0.012 C 
HETATM    4  C   LIG     1      14.859  30.287  13.927  1.00  0.00     0.012 C 
ENDBRANCH   1   2
BRANCH   1   5
HETATM    5  C   LIG     1      14.588  32.758  17.008  1.00  0.00     0.006 C 
HETATM    6  C   LIG     1      14.956  34.250  16.979  1.00  0.00     0.012 C 
HETATM    7  C   LIG     1      14.878  32.181  18.404  1.00  0.00     0.012 C 
ENDBRANCH   1   5
BRANCH   1   8
HETATM    8  O   LIG     1      15.693  32.739  14.845  1.00  0.00    -0.395 OA
HETATM    9  H   LIG     1      16.672  32.624  14.724  1.00  0.00     0.210 HD
ENDBRANCH   1   8
TORSDOF 3
ENDMDL
MODEL 20
REMARK VINA RESULT:      -4.2      1.981      3.028
REMARK  3 active torsions:
REMARK  status: ('A' for Active; 'I' for Inactive)
REMARK    1  A    between atoms: C_2  and  C_4 
REMARK    2  A    between atoms: C_4  and  C_6 
REMARK    3  A    between atoms: C_4  and  O_5 
ROOT
HETATM    1  C   LIG     1      17.200  36.164  23.029  1.00  0.00     0.124 C 
ENDROOT
BRANCH   1   2
HETATM    2  C   LIG     1      16.735  37.555  23.571  1.00  0.00     0.006 C 
HETATM    3  C   LIG     1      17.053  37.761  25.058  1.00  0.00     0.012 C 
HETATM    4  C   LIG     1      17.211  38.758  22.737  1.00  0.00     0.012 C 
ENDBRANCH   1   2
BRANCH   1   5
HETATM    5  C   LIG     1      16.455  35.610  21.777  1.00  0.00     0.006 C 
HETATM    6  C   LIG     1      17.148  35.946  20.447  1.00  0.00     0.012 C 
HETATM    7  C   LIG     1      15.007  36.131  21.752  1.00  0.00     0.012 C 
ENDBRANCH   1   5
BRANCH   1   8
HETATM    8  O   LIG     1      17.184  35.204  24.058  1.00  0.00    -0.395 OA
HETATM    9  H   LIG     1      18.123  35.094  24.366  1.00  0.00     0.210 HD
ENDBRANCH   1   8
TORSDOF 3
ENDMDL
