REMARK  3 active torsions:
REMARK  status: ('A' for Active; 'I' for Inactive)
REMARK    1  A    between atoms: C_2  and  C_4 
REMARK    2  A    between atoms: C_4  and  C_6 
REMARK    3  A    between atoms: C_4  and  O_5 
ROOT
HETATM    1  C   LIG     1       0.227   0.614  -0.629  1.00  0.00     0.124 C 
ENDROOT
BRANCH   1   2
HETATM    2  C   LIG     1      -1.317   0.380  -0.568  1.00  0.00     0.006 C 
HETATM    3  C   LIG     1      -1.729  -1.043  -0.969  1.00  0.00     0.012 C 
HETATM    4  C   LIG     1      -1.974   0.786   0.763  1.00  0.00     0.012 C 
ENDBRANCH   1   2
BRANCH   1   5
HETATM    5  C   LIG     1       1.133  -0.490  -0.004  1.00  0.00     0.006 C 
HETATM    6  C   LIG     1       0.954  -0.650   1.514  1.00  0.00     0.012 C 
HETATM    7  C   LIG     1       2.610  -0.202  -0.323  1.00  0.00     0.012 C 
ENDBRANCH   1   5
BRANCH   1   8
HETATM    8  O   LIG     1       0.558   1.869  -0.084  1.00  0.00    -0.395 OA
HETATM    9  H   LIG     1       0.224   2.557  -0.718  1.00  0.00     0.210 HD
ENDBRANCH   1   8
TORSDOF 3
