REMARK  4 active torsions:
REMARK  status: ('A' for Active; 'I' for Inactive)
REMARK    1  A    between atoms: O_1  and  C_2 
REMARK    2  A    between atoms: C_2  and  C_16 
REMARK    3  A    between atoms: C_2  and  C_10 
REMARK    4  A    between atoms: C_2  and  C_3 
ROOT
HETATM    1  C   LIG     1       0.101   0.405   0.748  1.00  0.00     0.144 C 
ENDROOT
BRANCH   1   2
HETATM    2  O   LIG     1       0.470   0.658   2.087  1.00  0.00    -0.375 OA
HETATM    3  H   LIG     1       1.006   1.495   2.116  1.00  0.00     0.211 HD
ENDBRANCH   1   2
BRANCH   1   4
HETATM    4  C   LIG     1       1.322  -0.027  -0.083  1.00  0.00    -0.014 A 
HETATM    5  C   LIG     1       1.151  -0.431  -1.425  1.00  0.00     0.012 A 
HETATM    6  C   LIG     1       2.242  -0.842  -2.195  1.00  0.00     0.024 A 
HETATM    7  C   LIG     1       3.523  -0.862  -1.640  1.00  0.00     0.034 A 
HETATM    8  C   LIG     1       3.712  -0.472  -0.313  1.00  0.00     0.024 A 
HETATM    9 CL   LIG     1       4.891  -1.380  -2.608  1.00  0.00    -0.084 Cl
HETATM   10  C   LIG     1       2.625  -0.059   0.462  1.00  0.00     0.012 A 
ENDBRANCH   1   4
BRANCH   1  11
HETATM   11  C   LIG     1      -0.549   1.703   0.221  1.00  0.00     0.021 A 
HETATM   12  C   LIG     1       0.026   2.513  -0.779  1.00  0.00     0.130 A 
HETATM   13  N   LIG     1      -0.577   3.670  -1.156  1.00  0.00    -0.253 NA
HETATM   14  C   LIG     1      -1.728   4.083  -0.570  1.00  0.00     0.232 A 
HETATM   15  N   LIG     1      -2.285   3.349   0.424  1.00  0.00    -0.253 NA
HETATM   16  C   LIG     1      -1.718   2.187   0.836  1.00  0.00     0.130 A 
ENDBRANCH   1  11
BRANCH   1  17
HETATM   17  C   LIG     1      -0.888  -0.780   0.748  1.00  0.00     0.007 A 
HETATM   18  C   LIG     1      -1.998  -0.798  -0.133  1.00  0.00     0.012 A 
HETATM   19  C   LIG     1      -2.885  -1.875  -0.157  1.00  0.00     0.001 A 
HETATM   20  C   LIG     1      -2.673  -2.974   0.670  1.00  0.00     0.002 A 
HETATM   21  C   LIG     1      -1.561  -3.010   1.509  1.00  0.00     0.024 A 
HETATM   22  C   LIG     1      -0.660  -1.938   1.545  1.00  0.00     0.044 A 
HETATM   23 CL   LIG     1       0.762  -2.136   2.567  1.00  0.00    -0.084 Cl
ENDBRANCH   1  17
TORSDOF 4
