REMARK  3 active torsions:
REMARK  status: ('A' for Active; 'I' for Inactive)
REMARK    1  A    between atoms: C_2  and  C_4 
REMARK    2  A    between atoms: C_2  and  O_3 
REMARK    3  A    between atoms: C_4  and  C_5 
ROOT
HETATM    1  C   LIG     1      -2.030   0.747   0.305  1.00  0.00     0.039 C 
HETATM    2  C   LIG     1      -1.228  -0.512   0.645  1.00  0.00     0.114 C 
ENDROOT
BRANCH   2   3
HETATM    3  C   LIG     1       0.119  -0.558  -0.103  1.00  0.00     0.031 C 
BRANCH   3   4
HETATM    4  C   LIG     1       1.111   0.506   0.392  1.00  0.00    -0.002 C 
HETATM    5  C   LIG     1       2.475   0.338  -0.273  1.00  0.00     0.005 C 
ENDBRANCH   3   4
ENDBRANCH   2   3
BRANCH   2   6
HETATM    6  O   LIG     1      -1.995  -1.635   0.295  1.00  0.00    -0.396 OA
HETATM    7  H   LIG     1      -1.627  -2.405   0.802  1.00  0.00     0.210 HD
ENDBRANCH   2   6
TORSDOF 3
