MODEL 1
REMARK VINA RESULT:      -7.8      0.000      0.000
REMARK  1 active torsions:
REMARK  status: ('A' for Active; 'I' for Inactive)
REMARK    1  A    between atoms: C_4  and  O_5 
ROOT
HETATM    1  C   LIG     1      15.985  35.287  20.673  1.00  0.00     0.070 C 
HETATM    2  C   LIG     1      16.423  35.932  21.951  1.00  0.00     0.034 A 
HETATM    3  C   LIG     1      16.411  37.324  22.099  1.00  0.00     0.064 A 
HETATM    4  C   LIG     1      16.824  37.907  23.301  1.00  0.00     0.080 A 
HETATM    5  C   LIG     1      17.254  37.076  24.366  1.00  0.00     0.026 A 
HETATM    6  C   LIG     1      17.686  37.580  25.611  1.00  0.00     0.016 A 
HETATM    7  C   LIG     1      18.099  36.707  26.622  1.00  0.00     0.001 A 
HETATM    8  C   LIG     1      18.087  35.328  26.412  1.00  0.00     0.002 A 
HETATM    9  C   LIG     1      17.663  34.810  25.188  1.00  0.00     0.032 A 
HETATM   10  C   LIG     1      17.248  35.670  24.166  1.00  0.00     0.070 A 
HETATM   11  N   LIG     1      16.838  35.150  22.980  1.00  0.00    -0.253 NA
ENDROOT
BRANCH   4  12
HETATM   12  O   LIG     1      16.789  39.301  23.385  1.00  0.00    -0.360 OA
HETATM   13  H   LIG     1      16.212  39.820  24.033  1.00  0.00     0.217 HD
ENDBRANCH   4  12
TORSDOF 1
ENDMDL
MODEL 2
REMARK VINA RESULT:      -7.6      2.822      4.121
REMARK  1 active torsions:
REMARK  status: ('A' for Active; 'I' for Inactive)
REMARK    1  A    between atoms: C_4  and  O_5 
ROOT
HETATM    1  C   LIG     1      15.510  34.136  20.860  1.00  0.00     0.070 C 
HETATM    2  C   LIG     1      16.260  35.416  21.062  1.00  0.00     0.034 A 
HETATM    3  C   LIG     1      15.923  36.296  22.096  1.00  0.00     0.064 A 
HETATM    4  C   LIG     1      16.635  37.487  22.267  1.00  0.00     0.080 A 
HETATM    5  C   LIG     1      17.701  37.793  21.385  1.00  0.00     0.026 A 
HETATM    6  C   LIG     1      18.472  38.971  21.486  1.00  0.00     0.016 A 
HETATM    7  C   LIG     1      19.512  39.214  20.583  1.00  0.00     0.001 A 
HETATM    8  C   LIG     1      19.799  38.296  19.572  1.00  0.00     0.002 A 
HETATM    9  C   LIG     1      19.049  37.126  19.456  1.00  0.00     0.032 A 
HETATM   10  C   LIG     1      18.005  36.868  20.351  1.00  0.00     0.070 A 
HETATM   11  N   LIG     1      17.284  35.724  20.224  1.00  0.00    -0.253 NA
ENDROOT
BRANCH   4  12
HETATM   12  O   LIG     1      16.249  38.322  23.319  1.00  0.00    -0.360 OA
HETATM   13  H   LIG     1      16.694  39.201  23.543  1.00  0.00     0.217 HD
ENDBRANCH   4  12
TORSDOF 1
ENDMDL
MODEL 3
REMARK VINA RESULT:      -7.5      1.921      2.740
REMARK  1 active torsions:
REMARK  status: ('A' for Active; 'I' for Inactive)
REMARK    1  A    between atoms: C_4  and  O_5 
ROOT
HETATM    1  C   LIG     1      17.827  39.442  21.747  1.00  0.00     0.070 C 
HETATM    2  C   LIG     1      17.636  38.205  22.569  1.00  0.00     0.034 A 
HETATM    3  C   LIG     1      17.027  37.066  22.031  1.00  0.00     0.064 A 
HETATM    4  C   LIG     1      16.857  35.921  22.815  1.00  0.00     0.080 A 
HETATM    5  C   LIG     1      17.309  35.926  24.159  1.00  0.00     0.026 A 
HETATM    6  C   LIG     1      17.179  34.815  25.020  1.00  0.00     0.016 A 
HETATM    7  C   LIG     1      17.646  34.883  26.336  1.00  0.00     0.001 A 
HETATM    8  C   LIG     1      18.245  36.049  26.813  1.00  0.00     0.002 A 
HETATM    9  C   LIG     1      18.384  37.157  25.978  1.00  0.00     0.032 A 
HETATM   10  C   LIG     1      17.921  37.105  24.658  1.00  0.00     0.070 A 
HETATM   11  N   LIG     1      18.064  38.194  23.858  1.00  0.00    -0.253 NA
ENDROOT
BRANCH   4  12
HETATM   12  O   LIG     1      16.241  34.817  22.219  1.00  0.00    -0.360 OA
HETATM   13  H   LIG     1      15.501  34.878  21.534  1.00  0.00     0.217 HD
ENDBRANCH   4  12
TORSDOF 1
ENDMDL
MODEL 4
REMARK VINA RESULT:      -6.9      2.995      5.070
REMARK  1 active torsions:
REMARK  status: ('A' for Active; 'I' for Inactive)
REMARK    1  A    between atoms: C_4  and  O_5 
ROOT
HETATM    1  C   LIG     1      16.920  37.830  24.977  1.00  0.00     0.070 C 
HETATM    2  C   LIG     1      17.260  37.557  23.545  1.00  0.00     0.034 A 
HETATM    3  C   LIG     1      16.851  36.376  22.917  1.00  0.00     0.064 A 
HETATM    4  C   LIG     1      17.179  36.140  21.578  1.00  0.00     0.080 A 
HETATM    5  C   LIG     1      17.930  37.108  20.865  1.00  0.00     0.026 A 
HETATM    6  C   LIG     1      18.304  36.951  19.513  1.00  0.00     0.016 A 
HETATM    7  C   LIG     1      19.045  37.944  18.866  1.00  0.00     0.001 A 
HETATM    8  C   LIG     1      19.424  39.101  19.548  1.00  0.00     0.002 A 
HETATM    9  C   LIG     1      19.063  39.275  20.885  1.00  0.00     0.032 A 
HETATM   10  C   LIG     1      18.322  38.290  21.547  1.00  0.00     0.070 A 
HETATM   11  N   LIG     1      17.979  38.475  22.848  1.00  0.00    -0.253 NA
ENDROOT
BRANCH   4  12
HETATM   12  O   LIG     1      16.740  34.941  21.009  1.00  0.00    -0.360 OA
HETATM   13  H   LIG     1      16.185  34.878  20.168  1.00  0.00     0.217 HD
ENDBRANCH   4  12
TORSDOF 1
ENDMDL
MODEL 5
REMARK VINA RESULT:      -6.4      1.082      3.775
REMARK  1 active torsions:
REMARK  status: ('A' for Active; 'I' for Inactive)
REMARK    1  A    between atoms: C_4  and  O_5 
ROOT
HETATM    1  C   LIG     1      18.746  34.591  26.864  1.00  0.00     0.070 C 
HETATM    2  C   LIG     1      18.082  35.513  25.889  1.00  0.00     0.034 A 
HETATM    3  C   LIG     1      17.940  36.877  26.166  1.00  0.00     0.064 A 
HETATM    4  C   LIG     1      17.316  37.721  25.242  1.00  0.00     0.080 A 
HETATM    5  C   LIG     1      16.829  37.182  24.025  1.00  0.00     0.026 A 
HETATM    6  C   LIG     1      16.188  37.961  23.038  1.00  0.00     0.016 A 
HETATM    7  C   LIG     1      15.730  37.369  21.858  1.00  0.00     0.001 A 
HETATM    8  C   LIG     1      15.901  36.001  21.642  1.00  0.00     0.002 A 
HETATM    9  C   LIG     1      16.533  35.214  22.604  1.00  0.00     0.032 A 
HETATM   10  C   LIG     1      16.996  35.792  23.791  1.00  0.00     0.070 A 
HETATM   11  N   LIG     1      17.610  35.011  24.719  1.00  0.00    -0.253 NA
ENDROOT
BRANCH   4  12
HETATM   12  O   LIG     1      17.206  39.074  25.578  1.00  0.00    -0.360 OA
HETATM   13  H   LIG     1      16.623  39.738  25.089  1.00  0.00     0.217 HD
ENDBRANCH   4  12
TORSDOF 1
ENDMDL
MODEL 6
REMARK VINA RESULT:      -6.4      3.163      4.190
REMARK  1 active torsions:
REMARK  status: ('A' for Active; 'I' for Inactive)
REMARK    1  A    between atoms: C_4  and  O_5 
ROOT
HETATM    1  C   LIG     1      20.459  38.934  19.027  1.00  0.00     0.070 C 
HETATM    2  C   LIG     1      19.408  38.315  19.894  1.00  0.00     0.034 A 
HETATM    3  C   LIG     1      18.686  37.195  19.468  1.00  0.00     0.064 A 
HETATM    4  C   LIG     1      17.708  36.631  20.293  1.00  0.00     0.080 A 
HETATM    5  C   LIG     1      17.456  37.205  21.565  1.00  0.00     0.026 A 
HETATM    6  C   LIG     1      16.489  36.700  22.460  1.00  0.00     0.016 A 
HETATM    7  C   LIG     1      16.289  37.312  23.702  1.00  0.00     0.001 A 
HETATM    8  C   LIG     1      17.042  38.427  24.069  1.00  0.00     0.002 A 
HETATM    9  C   LIG     1      18.003  38.941  23.198  1.00  0.00     0.032 A 
HETATM   10  C   LIG     1      18.215  38.340  21.952  1.00  0.00     0.070 A 
HETATM   11  N   LIG     1      19.155  38.853  21.116  1.00  0.00    -0.253 NA
ENDROOT
BRANCH   4  12
HETATM   12  O   LIG     1      17.023  35.514  19.809  1.00  0.00    -0.360 OA
HETATM   13  H   LIG     1      16.964  35.259  18.833  1.00  0.00     0.217 HD
ENDBRANCH   4  12
TORSDOF 1
ENDMDL
MODEL 7
REMARK VINA RESULT:      -6.3      8.809     10.363
REMARK  1 active torsions:
REMARK  status: ('A' for Active; 'I' for Inactive)
REMARK    1  A    between atoms: C_4  and  O_5 
ROOT
HETATM    1  C   LIG     1      18.175  34.036  13.690  1.00  0.00     0.070 C 
HETATM    2  C   LIG     1      17.089  33.137  14.192  1.00  0.00     0.034 A 
HETATM    3  C   LIG     1      16.574  32.109  13.395  1.00  0.00     0.064 A 
HETATM    4  C   LIG     1      15.558  31.281  13.883  1.00  0.00     0.080 A 
HETATM    5  C   LIG     1      15.057  31.492  15.191  1.00  0.00     0.026 A 
HETATM    6  C   LIG     1      14.035  30.704  15.762  1.00  0.00     0.016 A 
HETATM    7  C   LIG     1      13.583  30.965  17.060  1.00  0.00     0.001 A 
HETATM    8  C   LIG     1      14.138  32.006  17.805  1.00  0.00     0.002 A 
HETATM    9  C   LIG     1      15.149  32.796  17.258  1.00  0.00     0.032 A 
HETATM   10  C   LIG     1      15.611  32.548  15.961  1.00  0.00     0.070 A 
HETATM   11  N   LIG     1      16.597  33.327  15.444  1.00  0.00    -0.253 NA
ENDROOT
BRANCH   4  12
HETATM   12  O   LIG     1      15.087  30.273  13.037  1.00  0.00    -0.360 OA
HETATM   13  H   LIG     1      14.283  30.364  12.432  1.00  0.00     0.217 HD
ENDBRANCH   4  12
TORSDOF 1
ENDMDL
MODEL 8
REMARK VINA RESULT:      -6.1      1.088      1.319
REMARK  1 active torsions:
REMARK  status: ('A' for Active; 'I' for Inactive)
REMARK    1  A    between atoms: C_4  and  O_5 
ROOT
HETATM    1  C   LIG     1      15.781  33.835  20.487  1.00  0.00     0.070 C 
HETATM    2  C   LIG     1      16.322  34.859  21.436  1.00  0.00     0.034 A 
HETATM    3  C   LIG     1      16.643  36.149  21.002  1.00  0.00     0.064 A 
HETATM    4  C   LIG     1      17.147  37.091  21.904  1.00  0.00     0.080 A 
HETATM    5  C   LIG     1      17.329  36.725  23.261  1.00  0.00     0.026 A 
HETATM    6  C   LIG     1      17.831  37.612  24.238  1.00  0.00     0.016 A 
HETATM    7  C   LIG     1      17.988  37.190  25.562  1.00  0.00     0.001 A 
HETATM    8  C   LIG     1      17.650  35.888  25.932  1.00  0.00     0.002 A 
HETATM    9  C   LIG     1      17.151  34.997  24.982  1.00  0.00     0.032 A 
HETATM   10  C   LIG     1      16.989  35.404  23.653  1.00  0.00     0.070 A 
HETATM   11  N   LIG     1      16.503  34.523  22.740  1.00  0.00    -0.253 NA
ENDROOT
BRANCH   4  12
HETATM   12  O   LIG     1      17.448  38.362  21.407  1.00  0.00    -0.360 OA
HETATM   13  H   LIG     1      18.296  38.870  21.614  1.00  0.00     0.217 HD
ENDBRANCH   4  12
TORSDOF 1
ENDMDL
MODEL 9
REMARK VINA RESULT:      -5.9      1.706      4.034
REMARK  1 active torsions:
REMARK  status: ('A' for Active; 'I' for Inactive)
REMARK    1  A    between atoms: C_4  and  O_5 
ROOT
HETATM    1  C   LIG     1      17.558  37.806  26.154  1.00  0.00     0.070 C 
HETATM    2  C   LIG     1      17.586  37.643  24.667  1.00  0.00     0.034 A 
HETATM    3  C   LIG     1      18.156  38.620  23.842  1.00  0.00     0.064 A 
HETATM    4  C   LIG     1      18.171  38.448  22.455  1.00  0.00     0.080 A 
HETATM    5  C   LIG     1      17.607  37.276  21.892  1.00  0.00     0.026 A 
HETATM    6  C   LIG     1      17.581  37.023  20.504  1.00  0.00     0.016 A 
HETATM    7  C   LIG     1      17.008  35.846  20.012  1.00  0.00     0.001 A 
HETATM    8  C   LIG     1      16.456  34.910  20.886  1.00  0.00     0.002 A 
HETATM    9  C   LIG     1      16.473  35.142  22.261  1.00  0.00     0.032 A 
HETATM   10  C   LIG     1      17.041  36.315  22.770  1.00  0.00     0.070 A 
HETATM   11  N   LIG     1      17.049  36.525  24.112  1.00  0.00    -0.253 NA
ENDROOT
BRANCH   4  12
HETATM   12  O   LIG     1      18.755  39.461  21.688  1.00  0.00    -0.360 OA
HETATM   13  H   LIG     1      18.250  40.245  21.300  1.00  0.00     0.217 HD
ENDBRANCH   4  12
TORSDOF 1
ENDMDL
MODEL 10
REMARK VINA RESULT:      -5.9      2.120      4.152
REMARK  1 active torsions:
REMARK  status: ('A' for Active; 'I' for Inactive)
REMARK    1  A    between atoms: C_4  and  O_5 
ROOT
HETATM    1  C   LIG     1      17.304  34.906  26.240  1.00  0.00     0.070 C 
HETATM    2  C   LIG     1      17.338  35.538  24.884  1.00  0.00     0.034 A 
HETATM    3  C   LIG     1      16.964  34.822  23.741  1.00  0.00     0.064 A 
HETATM    4  C   LIG     1      17.003  35.432  22.484  1.00  0.00     0.080 A 
HETATM    5  C   LIG     1      17.424  36.781  22.378  1.00  0.00     0.026 A 
HETATM    6  C   LIG     1      17.492  37.473  21.149  1.00  0.00     0.016 A 
HETATM    7  C   LIG     1      17.916  38.805  21.112  1.00  0.00     0.001 A 
HETATM    8  C   LIG     1      18.275  39.465  22.287  1.00  0.00     0.002 A 
HETATM    9  C   LIG     1      18.214  38.799  23.511  1.00  0.00     0.032 A 
HETATM   10  C   LIG     1      17.793  37.465  23.565  1.00  0.00     0.070 A 
HETATM   11  N   LIG     1      17.739  36.831  24.765  1.00  0.00    -0.253 NA
ENDROOT
BRANCH   4  12
HETATM   12  O   LIG     1      16.618  34.661  21.383  1.00  0.00    -0.360 OA
HETATM   13  H   LIG     1      16.949  34.807  20.440  1.00  0.00     0.217 HD
ENDBRANCH   4  12
TORSDOF 1
ENDMDL
MODEL 11
REMARK VINA RESULT:      -5.9      8.707     10.509
REMARK  1 active torsions:
REMARK  status: ('A' for Active; 'I' for Inactive)
REMARK    1  A    between atoms: C_4  and  O_5 
ROOT
HETATM    1  C   LIG     1      15.312  28.476  13.323  1.00  0.00     0.070 C 
HETATM    2  C   LIG     1      14.968  29.597  14.253  1.00  0.00     0.034 A 
HETATM    3  C   LIG     1      13.796  29.570  15.017  1.00  0.00     0.064 A 
HETATM    4  C   LIG     1      13.493  30.627  15.880  1.00  0.00     0.080 A 
HETATM    5  C   LIG     1      14.384  31.725  15.974  1.00  0.00     0.026 A 
HETATM    6  C   LIG     1      14.157  32.833  16.819  1.00  0.00     0.016 A 
HETATM    7  C   LIG     1      15.075  33.886  16.866  1.00  0.00     0.001 A 
HETATM    8  C   LIG     1      16.227  33.854  16.079  1.00  0.00     0.002 A 
HETATM    9  C   LIG     1      16.470  32.768  15.238  1.00  0.00     0.032 A 
HETATM   10  C   LIG     1      15.560  31.707  15.179  1.00  0.00     0.070 A 
HETATM   11  N   LIG     1      15.812  30.657  14.354  1.00  0.00    -0.253 NA
ENDROOT
BRANCH   4  12
HETATM   12  O   LIG     1      12.307  30.539  16.615  1.00  0.00    -0.360 OA
HETATM   13  H   LIG     1      12.235  30.129  17.535  1.00  0.00     0.217 HD
ENDBRANCH   4  12
TORSDOF 1
ENDMDL
MODEL 12
REMARK VINA RESULT:      -5.8      7.084     10.356
REMARK  1 active torsions:
REMARK  status: ('A' for Active; 'I' for Inactive)
REMARK    1  A    between atoms: C_4  and  O_5 
ROOT
HETATM    1  C   LIG     1      15.396  34.360  18.588  1.00  0.00     0.070 C 
HETATM    2  C   LIG     1      15.133  33.300  17.565  1.00  0.00     0.034 A 
HETATM    3  C   LIG     1      14.192  32.290  17.794  1.00  0.00     0.064 A 
HETATM    4  C   LIG     1      13.963  31.309  16.825  1.00  0.00     0.080 A 
HETATM    5  C   LIG     1      14.691  31.347  15.610  1.00  0.00     0.026 A 
HETATM    6  C   LIG     1      14.521  30.398  14.579  1.00  0.00     0.016 A 
HETATM    7  C   LIG     1      15.271  30.491  13.403  1.00  0.00     0.001 A 
HETATM    8  C   LIG     1      16.195  31.523  13.234  1.00  0.00     0.002 A 
HETATM    9  C   LIG     1      16.377  32.471  14.241  1.00  0.00     0.032 A 
HETATM   10  C   LIG     1      15.634  32.391  15.424  1.00  0.00     0.070 A 
HETATM   11  N   LIG     1      15.824  33.323  16.395  1.00  0.00    -0.253 NA
ENDROOT
BRANCH   4  12
HETATM   12  O   LIG     1      13.010  30.328  17.116  1.00  0.00    -0.360 OA
HETATM   13  H   LIG     1      12.852  29.940  18.035  1.00  0.00     0.217 HD
ENDBRANCH   4  12
TORSDOF 1
ENDMDL
MODEL 13
REMARK VINA RESULT:      -5.6      8.719     10.657
REMARK  1 active torsions:
REMARK  status: ('A' for Active; 'I' for Inactive)
REMARK    1  A    between atoms: C_4  and  O_5 
ROOT
HETATM    1  C   LIG     1      13.551  28.134  13.804  1.00  0.00     0.070 C 
HETATM    2  C   LIG     1      14.176  29.419  14.249  1.00  0.00     0.034 A 
HETATM    3  C   LIG     1      15.116  30.081  13.451  1.00  0.00     0.064 A 
HETATM    4  C   LIG     1      15.688  31.280  13.885  1.00  0.00     0.080 A 
HETATM    5  C   LIG     1      15.307  31.819  15.139  1.00  0.00     0.026 A 
HETATM    6  C   LIG     1      15.834  33.024  15.653  1.00  0.00     0.016 A 
HETATM    7  C   LIG     1      15.416  33.502  16.899  1.00  0.00     0.001 A 
HETATM    8  C   LIG     1      14.474  32.796  17.647  1.00  0.00     0.002 A 
HETATM    9  C   LIG     1      13.942  31.604  17.157  1.00  0.00     0.032 A 
HETATM   10  C   LIG     1      14.350  31.111  15.912  1.00  0.00     0.070 A 
HETATM   11  N   LIG     1      13.821  29.949  15.449  1.00  0.00    -0.253 NA
ENDROOT
BRANCH   4  12
HETATM   12  O   LIG     1      16.621  31.891  13.041  1.00  0.00    -0.360 OA
HETATM   13  H   LIG     1      17.361  32.501  13.356  1.00  0.00     0.217 HD
ENDBRANCH   4  12
TORSDOF 1
ENDMDL
MODEL 14
REMARK VINA RESULT:      -5.6      9.071     10.455
REMARK  1 active torsions:
REMARK  status: ('A' for Active; 'I' for Inactive)
REMARK    1  A    between atoms: C_4  and  O_5 
ROOT
HETATM    1  C   LIG     1      13.158  29.135  14.446  1.00  0.00     0.070 C 
HETATM    2  C   LIG     1      13.991  30.307  14.863  1.00  0.00     0.034 A 
HETATM    3  C   LIG     1      13.817  30.911  16.113  1.00  0.00     0.064 A 
HETATM    4  C   LIG     1      14.605  32.005  16.482  1.00  0.00     0.080 A 
HETATM    5  C   LIG     1      15.582  32.495  15.580  1.00  0.00     0.026 A 
HETATM    6  C   LIG     1      16.420  33.592  15.872  1.00  0.00     0.016 A 
HETATM    7  C   LIG     1      17.365  34.028  14.938  1.00  0.00     0.001 A 
HETATM    8  C   LIG     1      17.491  33.382  13.707  1.00  0.00     0.002 A 
HETATM    9  C   LIG     1      16.672  32.295  13.400  1.00  0.00     0.032 A 
HETATM   10  C   LIG     1      15.721  31.848  14.324  1.00  0.00     0.070 A 
HETATM   11  N   LIG     1      14.932  30.788  14.009  1.00  0.00    -0.253 NA
ENDROOT
BRANCH   4  12
HETATM   12  O   LIG     1      14.381  32.563  17.744  1.00  0.00    -0.360 OA
HETATM   13  H   LIG     1      13.673  33.255  17.944  1.00  0.00     0.217 HD
ENDBRANCH   4  12
TORSDOF 1
ENDMDL
MODEL 15
REMARK VINA RESULT:      -5.5      2.095      2.462
REMARK  1 active torsions:
REMARK  status: ('A' for Active; 'I' for Inactive)
REMARK    1  A    between atoms: C_4  and  O_5 
ROOT
HETATM    1  C   LIG     1      18.393  36.683  18.671  1.00  0.00     0.070 C 
HETATM    2  C   LIG     1      18.225  37.158  20.081  1.00  0.00     0.034 A 
HETATM    3  C   LIG     1      18.565  38.464  20.450  1.00  0.00     0.064 A 
HETATM    4  C   LIG     1      18.401  38.887  21.773  1.00  0.00     0.080 A 
HETATM    5  C   LIG     1      17.887  37.981  22.734  1.00  0.00     0.026 A 
HETATM    6  C   LIG     1      17.689  38.325  24.089  1.00  0.00     0.016 A 
HETATM    7  C   LIG     1      17.179  37.384  24.989  1.00  0.00     0.001 A 
HETATM    8  C   LIG     1      16.860  36.096  24.559  1.00  0.00     0.002 A 
HETATM    9  C   LIG     1      17.047  35.738  23.224  1.00  0.00     0.032 A 
HETATM   10  C   LIG     1      17.558  36.667  22.311  1.00  0.00     0.070 A 
HETATM   11  N   LIG     1      17.735  36.301  21.015  1.00  0.00    -0.253 NA
ENDROOT
BRANCH   4  12
HETATM   12  O   LIG     1      18.759  40.204  22.076  1.00  0.00    -0.360 OA
HETATM   13  H   LIG     1      18.101  40.961  22.194  1.00  0.00     0.217 HD
ENDBRANCH   4  12
TORSDOF 1
ENDMDL
MODEL 16
REMARK VINA RESULT:      -5.2      5.646      7.476
REMARK  1 active torsions:
REMARK  status: ('A' for Active; 'I' for Inactive)
REMARK    1  A    between atoms: C_4  and  O_5 
ROOT
HETATM    1  C   LIG     1      13.701  30.315  15.533  1.00  0.00     0.070 C 
HETATM    2  C   LIG     1      14.242  31.391  16.422  1.00  0.00     0.034 A 
HETATM    3  C   LIG     1      14.829  32.543  15.888  1.00  0.00     0.064 A 
HETATM    4  C   LIG     1      15.329  33.536  16.736  1.00  0.00     0.080 A 
HETATM    5  C   LIG     1      15.234  33.365  18.139  1.00  0.00     0.026 A 
HETATM    6  C   LIG     1      15.711  34.316  19.066  1.00  0.00     0.016 A 
HETATM    7  C   LIG     1      15.588  34.088  20.440  1.00  0.00     0.001 A 
HETATM    8  C   LIG     1      14.991  32.918  20.910  1.00  0.00     0.002 A 
HETATM    9  C   LIG     1      14.513  31.965  20.010  1.00  0.00     0.032 A 
HETATM   10  C   LIG     1      14.630  32.179  18.632  1.00  0.00     0.070 A 
HETATM   11  N   LIG     1      14.159  31.241  17.769  1.00  0.00    -0.253 NA
ENDROOT
BRANCH   4  12
HETATM   12  O   LIG     1      15.904  34.662  16.139  1.00  0.00    -0.360 OA
HETATM   13  H   LIG     1      15.892  34.851  15.147  1.00  0.00     0.217 HD
ENDBRANCH   4  12
TORSDOF 1
ENDMDL
MODEL 17
REMARK VINA RESULT:      -5.0      2.060      3.154
REMARK  1 active torsions:
REMARK  status: ('A' for Active; 'I' for Inactive)
REMARK    1  A    between atoms: C_4  and  O_5 
ROOT
HETATM    1  C   LIG     1      15.849  34.208  20.273  1.00  0.00     0.070 C 
HETATM    2  C   LIG     1      16.304  35.051  21.423  1.00  0.00     0.034 A 
HETATM    3  C   LIG     1      16.582  34.482  22.671  1.00  0.00     0.064 A 
HETATM    4  C   LIG     1      17.006  35.288  23.732  1.00  0.00     0.080 A 
HETATM    5  C   LIG     1      17.153  36.683  23.532  1.00  0.00     0.026 A 
HETATM    6  C   LIG     1      17.576  37.567  24.547  1.00  0.00     0.016 A 
HETATM    7  C   LIG     1      17.701  38.935  24.285  1.00  0.00     0.001 A 
HETATM    8  C   LIG     1      17.409  39.441  23.018  1.00  0.00     0.002 A 
HETATM    9  C   LIG     1      16.990  38.583  22.002  1.00  0.00     0.032 A 
HETATM   10  C   LIG     1      16.859  37.212  22.248  1.00  0.00     0.070 A 
HETATM   11  N   LIG     1      16.450  36.390  21.247  1.00  0.00    -0.253 NA
ENDROOT
BRANCH   4  12
HETATM   12  O   LIG     1      17.266  34.658  24.953  1.00  0.00    -0.360 OA
HETATM   13  H   LIG     1      17.092  35.073  25.858  1.00  0.00     0.217 HD
ENDBRANCH   4  12
TORSDOF 1
ENDMDL
MODEL 18
REMARK VINA RESULT:      -5.0      4.828      8.055
REMARK  1 active torsions:
REMARK  status: ('A' for Active; 'I' for Inactive)
REMARK    1  A    between atoms: C_4  and  O_5 
ROOT
HETATM    1  C   LIG     1      16.140  35.597  20.749  1.00  0.00     0.070 C 
HETATM    2  C   LIG     1      15.656  34.418  19.964  1.00  0.00     0.034 A 
HETATM    3  C   LIG     1      15.185  33.267  20.604  1.00  0.00     0.064 A 
HETATM    4  C   LIG     1      14.738  32.176  19.852  1.00  0.00     0.080 A 
HETATM    5  C   LIG     1      14.765  32.249  18.437  1.00  0.00     0.026 A 
HETATM    6  C   LIG     1      14.332  31.196  17.602  1.00  0.00     0.016 A 
HETATM    7  C   LIG     1      14.385  31.330  16.212  1.00  0.00     0.001 A 
HETATM    8  C   LIG     1      14.866  32.506  15.633  1.00  0.00     0.002 A 
HETATM    9  C   LIG     1      15.298  33.557  16.441  1.00  0.00     0.032 A 
HETATM   10  C   LIG     1      15.252  33.438  17.834  1.00  0.00     0.070 A 
HETATM   11  N   LIG     1      15.676  34.472  18.607  1.00  0.00    -0.253 NA
ENDROOT
BRANCH   4  12
HETATM   12  O   LIG     1      14.280  31.056  20.552  1.00  0.00    -0.360 OA
HETATM   13  H   LIG     1      13.748  31.097  21.410  1.00  0.00     0.217 HD
ENDBRANCH   4  12
TORSDOF 1
ENDMDL
