REMARK  1 active torsions:
REMARK  status: ('A' for Active; 'I' for Inactive)
REMARK    1  A    between atoms: C_4  and  O_5 
ROOT
HETATM    1  C   LIG     1       3.389  -0.655  -0.322  1.00  0.00     0.070 C 
HETATM    2  C   LIG     1       1.963  -0.219  -0.191  1.00  0.00     0.034 A 
HETATM    3  C   LIG     1       1.618   1.137  -0.193  1.00  0.00     0.064 A 
HETATM    4  C   LIG     1       0.280   1.523  -0.069  1.00  0.00     0.080 A 
HETATM    5  C   LIG     1      -0.722   0.529   0.058  1.00  0.00     0.026 A 
HETATM    6  C   LIG     1      -2.095   0.830   0.187  1.00  0.00     0.016 A 
HETATM    7  C   LIG     1      -3.035  -0.198   0.309  1.00  0.00     0.001 A 
HETATM    8  C   LIG     1      -2.627  -1.532   0.304  1.00  0.00     0.002 A 
HETATM    9  C   LIG     1      -1.275  -1.850   0.177  1.00  0.00     0.032 A 
HETATM   10  C   LIG     1      -0.322  -0.833   0.055  1.00  0.00     0.070 A 
HETATM   11  N   LIG     1       0.991  -1.160  -0.068  1.00  0.00    -0.253 NA
ENDROOT
BRANCH   4  12
HETATM   12  O   LIG     1       0.002   2.893  -0.078  1.00  0.00    -0.360 OA
HETATM   13  H   LIG     1      -0.924   3.288   0.004  1.00  0.00     0.217 HD
ENDBRANCH   4  12
TORSDOF 1
