REMARK  0 active torsions:
REMARK  status: ('A' for Active; 'I' for Inactive)
ROOT
HETATM    1 CL   LIG     1      -3.098   0.548  -0.025  1.00  0.00    -0.081 Cl
HETATM    2  C   LIG     1      -1.365   0.220  -0.011  1.00  0.00     0.079 A 
HETATM    3  C   LIG     1      -0.902  -1.107  -0.025  1.00  0.00     0.059 A 
HETATM    4 CL   LIG     1      -2.019  -2.465  -0.056  1.00  0.00    -0.082 Cl
HETATM    5  C   LIG     1       0.470  -1.368  -0.015  1.00  0.00     0.051 A 
HETATM    6  C   LIG     1       1.392  -0.318   0.010  1.00  0.00     0.059 A 
HETATM    7 CL   LIG     1       3.109  -0.703   0.023  1.00  0.00    -0.082 Cl
HETATM    8  C   LIG     1       0.941   1.013   0.024  1.00  0.00     0.079 A 
HETATM    9 CL   LIG     1       2.106   2.337   0.055  1.00  0.00    -0.081 Cl
HETATM   10  C   LIG     1      -0.441   1.283   0.014  1.00  0.00     0.080 A 
HETATM   11 CL   LIG     1      -1.015   2.952   0.031  1.00  0.00    -0.081 Cl
ENDROOT
TORSDOF 0
