MODEL 1
REMARK VINA RESULT:      -5.5      0.000      0.000
REMARK  0 active torsions:
REMARK  status: ('A' for Active; 'I' for Inactive)
ROOT
HETATM    1 CL   LIG     1      17.974  36.753  19.386  1.00  0.00    -0.081 Cl
HETATM    2  C   LIG     1      17.795  37.154  21.094  1.00  0.00     0.079 A 
HETATM    3  C   LIG     1      18.102  38.449  21.547  1.00  0.00     0.059 A 
HETATM    4 CL   LIG     1      18.666  39.695  20.441  1.00  0.00    -0.082 Cl
HETATM    5  C   LIG     1      17.959  38.769  22.899  1.00  0.00     0.051 A 
HETATM    6  C   LIG     1      17.514  37.808  23.812  1.00  0.00     0.059 A 
HETATM    7 CL   LIG     1      17.354  38.263  25.504  1.00  0.00    -0.082 Cl
HETATM    8  C   LIG     1      17.205  36.510  23.371  1.00  0.00     0.079 A 
HETATM    9 CL   LIG     1      16.643  35.300  24.525  1.00  0.00    -0.081 Cl
HETATM   10  C   LIG     1      17.346  36.182  22.009  1.00  0.00     0.080 A 
HETATM   11 CL   LIG     1      16.959  34.554  21.448  1.00  0.00    -0.081 Cl
ENDROOT
TORSDOF 0
ENDMDL
MODEL 2
REMARK VINA RESULT:      -5.5      0.029      3.606
REMARK  0 active torsions:
REMARK  status: ('A' for Active; 'I' for Inactive)
ROOT
HETATM    1 CL   LIG     1      16.655  35.272  24.521  1.00  0.00    -0.081 Cl
HETATM    2  C   LIG     1      17.215  36.492  23.377  1.00  0.00     0.079 A 
HETATM    3  C   LIG     1      17.511  37.791  23.825  1.00  0.00     0.059 A 
HETATM    4 CL   LIG     1      17.335  38.236  25.518  1.00  0.00    -0.082 Cl
HETATM    5  C   LIG     1      17.955  38.758  22.921  1.00  0.00     0.051 A 
HETATM    6  C   LIG     1      18.108  38.446  21.567  1.00  0.00     0.059 A 
HETATM    7 CL   LIG     1      18.669  39.702  20.470  1.00  0.00    -0.082 Cl
HETATM    8  C   LIG     1      17.815  37.151  21.107  1.00  0.00     0.079 A 
HETATM    9 CL   LIG     1      18.009  36.759  19.398  1.00  0.00    -0.081 Cl
HETATM   10  C   LIG     1      17.367  36.171  22.014  1.00  0.00     0.080 A 
HETATM   11 CL   LIG     1      16.997  34.542  21.444  1.00  0.00    -0.081 Cl
ENDROOT
TORSDOF 0
ENDMDL
MODEL 3
REMARK VINA RESULT:      -4.9      7.864      9.761
REMARK  0 active torsions:
REMARK  status: ('A' for Active; 'I' for Inactive)
ROOT
HETATM    1 CL   LIG     1      17.237  34.511  15.445  1.00  0.00    -0.081 Cl
HETATM    2  C   LIG     1      16.300  33.060  15.090  1.00  0.00     0.079 A 
HETATM    3  C   LIG     1      16.488  32.384  13.872  1.00  0.00     0.059 A 
HETATM    4 CL   LIG     1      17.648  32.955  12.679  1.00  0.00    -0.082 Cl
HETATM    5  C   LIG     1      15.747  31.234  13.589  1.00  0.00     0.051 A 
HETATM    6  C   LIG     1      14.815  30.747  14.509  1.00  0.00     0.059 A 
HETATM    7 CL   LIG     1      13.908  29.295  14.103  1.00  0.00    -0.082 Cl
HETATM    8  C   LIG     1      14.618  31.414  15.730  1.00  0.00     0.079 A 
HETATM    9 CL   LIG     1      13.441  30.797  16.891  1.00  0.00    -0.081 Cl
HETATM   10  C   LIG     1      15.362  32.574  16.021  1.00  0.00     0.080 A 
HETATM   11 CL   LIG     1      15.120  33.417  17.553  1.00  0.00    -0.081 Cl
ENDROOT
TORSDOF 0
ENDMDL
MODEL 4
REMARK VINA RESULT:      -4.9      1.824      3.474
REMARK  0 active torsions:
REMARK  status: ('A' for Active; 'I' for Inactive)
ROOT
HETATM    1 CL   LIG     1      19.425  39.262  21.032  1.00  0.00    -0.081 Cl
HETATM    2  C   LIG     1      18.207  37.992  21.164  1.00  0.00     0.079 A 
HETATM    3  C   LIG     1      18.334  36.817  20.404  1.00  0.00     0.059 A 
HETATM    4 CL   LIG     1      19.691  36.575  19.312  1.00  0.00    -0.082 Cl
HETATM    5  C   LIG     1      17.371  35.811  20.509  1.00  0.00     0.051 A 
HETATM    6  C   LIG     1      16.276  35.962  21.364  1.00  0.00     0.059 A 
HETATM    7 CL   LIG     1      15.091  34.664  21.456  1.00  0.00    -0.082 Cl
HETATM    8  C   LIG     1      16.138  37.133  22.129  1.00  0.00     0.079 A 
HETATM    9 CL   LIG     1      14.756  37.323  23.208  1.00  0.00    -0.081 Cl
HETATM   10  C   LIG     1      17.106  38.151  22.028  1.00  0.00     0.080 A 
HETATM   11 CL   LIG     1      16.940  39.625  22.986  1.00  0.00    -0.081 Cl
ENDROOT
TORSDOF 0
ENDMDL
MODEL 5
REMARK VINA RESULT:      -4.9      1.829      4.559
REMARK  0 active torsions:
REMARK  status: ('A' for Active; 'I' for Inactive)
ROOT
HETATM    1 CL   LIG     1      14.748  37.307  23.191  1.00  0.00    -0.081 Cl
HETATM    2  C   LIG     1      16.133  37.127  22.114  1.00  0.00     0.079 A 
HETATM    3  C   LIG     1      16.283  35.954  21.354  1.00  0.00     0.059 A 
HETATM    4 CL   LIG     1      15.112  34.646  21.450  1.00  0.00    -0.082 Cl
HETATM    5  C   LIG     1      17.379  35.811  20.499  1.00  0.00     0.051 A 
HETATM    6  C   LIG     1      18.333  36.827  20.393  1.00  0.00     0.059 A 
HETATM    7 CL   LIG     1      19.694  36.594  19.303  1.00  0.00    -0.082 Cl
HETATM    8  C   LIG     1      18.193  38.004  21.148  1.00  0.00     0.079 A 
HETATM    9 CL   LIG     1      19.398  39.285  21.012  1.00  0.00    -0.081 Cl
HETATM   10  C   LIG     1      17.091  38.155  22.011  1.00  0.00     0.080 A 
HETATM   11 CL   LIG     1      16.909  39.630  22.962  1.00  0.00    -0.081 Cl
ENDROOT
TORSDOF 0
ENDMDL
MODEL 6
REMARK VINA RESULT:      -4.8      7.870     10.129
REMARK  0 active torsions:
REMARK  status: ('A' for Active; 'I' for Inactive)
ROOT
HETATM    1 CL   LIG     1      13.349  30.647  16.831  1.00  0.00    -0.081 Cl
HETATM    2  C   LIG     1      14.547  31.324  15.729  1.00  0.00     0.079 A 
HETATM    3  C   LIG     1      14.776  30.717  14.482  1.00  0.00     0.059 A 
HETATM    4 CL   LIG     1      13.889  29.281  13.987  1.00  0.00    -0.082 Cl
HETATM    5  C   LIG     1      15.724  31.253  13.607  1.00  0.00     0.051 A 
HETATM    6  C   LIG     1      16.452  32.393  13.961  1.00  0.00     0.059 A 
HETATM    7 CL   LIG     1      17.634  33.027  12.823  1.00  0.00    -0.082 Cl
HETATM    8  C   LIG     1      16.231  33.009  15.205  1.00  0.00     0.079 A 
HETATM    9 CL   LIG     1      17.150  34.448  15.650  1.00  0.00    -0.081 Cl
HETATM   10  C   LIG     1      15.277  32.473  16.091  1.00  0.00     0.080 A 
HETATM   11 CL   LIG     1      14.995  33.242  17.655  1.00  0.00    -0.081 Cl
ENDROOT
TORSDOF 0
ENDMDL
MODEL 7
REMARK VINA RESULT:      -4.7      1.445      4.777
REMARK  0 active torsions:
REMARK  status: ('A' for Active; 'I' for Inactive)
ROOT
HETATM    1 CL   LIG     1      17.965  37.833  25.984  1.00  0.00    -0.081 Cl
HETATM    2  C   LIG     1      17.566  36.889  24.549  1.00  0.00     0.079 A 
HETATM    3  C   LIG     1      17.190  35.540  24.678  1.00  0.00     0.059 A 
HETATM    4 CL   LIG     1      17.108  34.761  26.252  1.00  0.00    -0.082 Cl
HETATM    5  C   LIG     1      16.873  34.792  23.542  1.00  0.00     0.051 A 
HETATM    6  C   LIG     1      16.926  35.373  22.272  1.00  0.00     0.059 A 
HETATM    7 CL   LIG     1      16.517  34.384  20.875  1.00  0.00    -0.082 Cl
HETATM    8  C   LIG     1      17.300  36.720  22.130  1.00  0.00     0.079 A 
HETATM    9 CL   LIG     1      17.366  37.451  20.527  1.00  0.00    -0.081 Cl
HETATM   10  C   LIG     1      17.621  37.480  23.271  1.00  0.00     0.080 A 
HETATM   11 CL   LIG     1      18.091  39.173  23.102  1.00  0.00    -0.081 Cl
ENDROOT
TORSDOF 0
ENDMDL
MODEL 8
REMARK VINA RESULT:      -4.6      1.458      3.350
REMARK  0 active torsions:
REMARK  status: ('A' for Active; 'I' for Inactive)
ROOT
HETATM    1 CL   LIG     1      17.569  37.868  20.727  1.00  0.00    -0.081 Cl
HETATM    2  C   LIG     1      17.427  36.961  22.233  1.00  0.00     0.079 A 
HETATM    3  C   LIG     1      16.937  35.644  22.216  1.00  0.00     0.059 A 
HETATM    4 CL   LIG     1      16.455  34.867  20.713  1.00  0.00    -0.082 Cl
HETATM    5  C   LIG     1      16.825  34.924  23.407  1.00  0.00     0.051 A 
HETATM    6  C   LIG     1      17.197  35.504  24.624  1.00  0.00     0.059 A 
HETATM    7 CL   LIG     1      17.034  34.553  26.096  1.00  0.00    -0.082 Cl
HETATM    8  C   LIG     1      17.688  36.820  24.654  1.00  0.00     0.079 A 
HETATM    9 CL   LIG     1      18.157  37.550  26.190  1.00  0.00    -0.081 Cl
HETATM   10  C   LIG     1      17.804  37.551  23.456  1.00  0.00     0.080 A 
HETATM   11 CL   LIG     1      18.421  39.204  23.485  1.00  0.00    -0.081 Cl
ENDROOT
TORSDOF 0
ENDMDL
MODEL 9
REMARK VINA RESULT:      -4.5      1.292      4.255
REMARK  0 active torsions:
REMARK  status: ('A' for Active; 'I' for Inactive)
ROOT
HETATM    1 CL   LIG     1      18.732  39.545  23.081  1.00  0.00    -0.081 Cl
HETATM    2  C   LIG     1      18.008  38.160  22.264  1.00  0.00     0.079 A 
HETATM    3  C   LIG     1      17.096  37.339  22.949  1.00  0.00     0.059 A 
HETATM    4 CL   LIG     1      16.653  37.660  24.620  1.00  0.00    -0.082 Cl
HETATM    5  C   LIG     1      16.522  36.242  22.303  1.00  0.00     0.051 A 
HETATM    6  C   LIG     1      16.847  35.950  20.975  1.00  0.00     0.059 A 
HETATM    7 CL   LIG     1      16.095  34.556  20.209  1.00  0.00    -0.082 Cl
HETATM    8  C   LIG     1      17.757  36.764  20.280  1.00  0.00     0.079 A 
HETATM    9 CL   LIG     1      18.166  36.395  18.604  1.00  0.00    -0.081 Cl
HETATM   10  C   LIG     1      18.340  37.871  20.925  1.00  0.00     0.080 A 
HETATM   11 CL   LIG     1      19.484  38.898  20.058  1.00  0.00    -0.081 Cl
ENDROOT
TORSDOF 0
ENDMDL
MODEL 10
REMARK VINA RESULT:      -4.1      8.514     10.405
REMARK  0 active torsions:
REMARK  status: ('A' for Active; 'I' for Inactive)
ROOT
HETATM    1 CL   LIG     1      14.999  33.828  16.659  1.00  0.00    -0.081 Cl
HETATM    2  C   LIG     1      15.113  32.406  15.623  1.00  0.00     0.079 A 
HETATM    3  C   LIG     1      16.224  32.239  14.779  1.00  0.00     0.059 A 
HETATM    4 CL   LIG     1      17.521  33.427  14.729  1.00  0.00    -0.082 Cl
HETATM    5  C   LIG     1      16.316  31.113  13.958  1.00  0.00     0.051 A 
HETATM    6  C   LIG     1      15.307  30.145  13.967  1.00  0.00     0.059 A 
HETATM    7 CL   LIG     1      15.472  28.746  12.912  1.00  0.00    -0.082 Cl
HETATM    8  C   LIG     1      14.191  30.301  14.806  1.00  0.00     0.079 A 
HETATM    9 CL   LIG     1      12.919  29.078  14.816  1.00  0.00    -0.081 Cl
HETATM   10  C   LIG     1      14.093  31.434  15.636  1.00  0.00     0.080 A 
HETATM   11 CL   LIG     1      12.694  31.637  16.693  1.00  0.00    -0.081 Cl
ENDROOT
TORSDOF 0
ENDMDL
MODEL 11
REMARK VINA RESULT:      -3.5     16.234     16.696
REMARK  0 active torsions:
REMARK  status: ('A' for Active; 'I' for Inactive)
ROOT
HETATM    1 CL   LIG     1      27.292  24.579  21.032  1.00  0.00    -0.081 Cl
HETATM    2  C   LIG     1      26.038  23.606  20.263  1.00  0.00     0.079 A 
HETATM    3  C   LIG     1      25.921  23.592  18.862  1.00  0.00     0.059 A 
HETATM    4 CL   LIG     1      27.006  24.531  17.845  1.00  0.00    -0.082 Cl
HETATM    5  C   LIG     1      24.930  22.822  18.252  1.00  0.00     0.051 A 
HETATM    6  C   LIG     1      24.046  22.061  19.023  1.00  0.00     0.059 A 
HETATM    7 CL   LIG     1      22.814  21.110  18.203  1.00  0.00    -0.082 Cl
HETATM    8  C   LIG     1      24.153  22.067  20.424  1.00  0.00     0.079 A 
HETATM    9 CL   LIG     1      23.038  21.106  21.396  1.00  0.00    -0.081 Cl
HETATM   10  C   LIG     1      25.151  22.842  21.046  1.00  0.00     0.080 A 
HETATM   11 CL   LIG     1      25.292  22.854  22.805  1.00  0.00    -0.081 Cl
ENDROOT
TORSDOF 0
ENDMDL
MODEL 12
REMARK VINA RESULT:      -3.5     16.241     16.874
REMARK  0 active torsions:
REMARK  status: ('A' for Active; 'I' for Inactive)
ROOT
HETATM    1 CL   LIG     1      23.047  21.076  21.423  1.00  0.00    -0.081 Cl
HETATM    2  C   LIG     1      24.153  22.040  20.444  1.00  0.00     0.079 A 
HETATM    3  C   LIG     1      24.040  22.031  19.043  1.00  0.00     0.059 A 
HETATM    4 CL   LIG     1      22.810  21.071  18.231  1.00  0.00    -0.082 Cl
HETATM    5  C   LIG     1      24.914  22.794  18.266  1.00  0.00     0.051 A 
HETATM    6  C   LIG     1      25.907  23.571  18.871  1.00  0.00     0.059 A 
HETATM    7 CL   LIG     1      26.983  24.513  17.846  1.00  0.00    -0.082 Cl
HETATM    8  C   LIG     1      26.030  23.588  20.271  1.00  0.00     0.079 A 
HETATM    9 CL   LIG     1      27.282  24.569  21.033  1.00  0.00    -0.081 Cl
HETATM   10  C   LIG     1      25.151  22.821  21.060  1.00  0.00     0.080 A 
HETATM   11 CL   LIG     1      25.299  22.838  22.818  1.00  0.00    -0.081 Cl
ENDROOT
TORSDOF 0
ENDMDL
MODEL 13
REMARK VINA RESULT:      -3.4     16.362     17.054
REMARK  0 active torsions:
REMARK  status: ('A' for Active; 'I' for Inactive)
ROOT
HETATM    1 CL   LIG     1      25.769  22.825  23.787  1.00  0.00    -0.081 Cl
HETATM    2  C   LIG     1      24.993  22.507  22.235  1.00  0.00     0.079 A 
HETATM    3  C   LIG     1      23.848  21.694  22.177  1.00  0.00     0.059 A 
HETATM    4 CL   LIG     1      23.160  20.977  23.628  1.00  0.00    -0.082 Cl
HETATM    5  C   LIG     1      23.232  21.443  20.948  1.00  0.00     0.051 A 
HETATM    6  C   LIG     1      23.747  21.993  19.771  1.00  0.00     0.059 A 
HETATM    7 CL   LIG     1      22.933  21.642  18.251  1.00  0.00    -0.082 Cl
HETATM    8  C   LIG     1      24.891  22.807  19.817  1.00  0.00     0.079 A 
HETATM    9 CL   LIG     1      25.539  23.500  18.330  1.00  0.00    -0.081 Cl
HETATM   10  C   LIG     1      25.517  23.064  21.052  1.00  0.00     0.080 A 
HETATM   11 CL   LIG     1      26.954  24.086  21.118  1.00  0.00    -0.081 Cl
ENDROOT
TORSDOF 0
ENDMDL
MODEL 14
REMARK VINA RESULT:      -3.3      1.153      3.135
REMARK  0 active torsions:
REMARK  status: ('A' for Active; 'I' for Inactive)
ROOT
HETATM    1 CL   LIG     1      15.818  33.924  22.099  1.00  0.00    -0.081 Cl
HETATM    2  C   LIG     1      16.616  35.498  22.074  1.00  0.00     0.079 A 
HETATM    3  C   LIG     1      16.808  36.168  20.854  1.00  0.00     0.059 A 
HETATM    4 CL   LIG     1      16.269  35.470  19.333  1.00  0.00    -0.082 Cl
HETATM    5  C   LIG     1      17.438  37.414  20.833  1.00  0.00     0.051 A 
HETATM    6  C   LIG     1      17.883  38.004  22.020  1.00  0.00     0.059 A 
HETATM    7 CL   LIG     1      18.672  39.575  21.936  1.00  0.00    -0.082 Cl
HETATM    8  C   LIG     1      17.696  37.344  23.246  1.00  0.00     0.079 A 
HETATM    9 CL   LIG     1      18.257  38.090  24.742  1.00  0.00    -0.081 Cl
HETATM   10  C   LIG     1      17.061  36.087  23.274  1.00  0.00     0.080 A 
HETATM   11 CL   LIG     1      16.822  35.252  24.810  1.00  0.00    -0.081 Cl
ENDROOT
TORSDOF 0
ENDMDL
MODEL 15
REMARK VINA RESULT:      -3.3      1.151      3.414
REMARK  0 active torsions:
REMARK  status: ('A' for Active; 'I' for Inactive)
ROOT
HETATM    1 CL   LIG     1      18.251  38.097  24.769  1.00  0.00    -0.081 Cl
HETATM    2  C   LIG     1      17.690  37.352  23.272  1.00  0.00     0.079 A 
HETATM    3  C   LIG     1      17.872  38.017  22.046  1.00  0.00     0.059 A 
HETATM    4 CL   LIG     1      18.653  39.590  21.967  1.00  0.00    -0.082 Cl
HETATM    5  C   LIG     1      17.429  37.428  20.860  1.00  0.00     0.051 A 
HETATM    6  C   LIG     1      16.803  36.179  20.879  1.00  0.00     0.059 A 
HETATM    7 CL   LIG     1      16.263  35.483  19.355  1.00  0.00    -0.082 Cl
HETATM    8  C   LIG     1      16.615  35.505  22.098  1.00  0.00     0.079 A 
HETATM    9 CL   LIG     1      15.825  33.928  22.119  1.00  0.00    -0.081 Cl
HETATM   10  C   LIG     1      17.059  36.093  23.297  1.00  0.00     0.080 A 
HETATM   11 CL   LIG     1      16.828  35.252  24.832  1.00  0.00    -0.081 Cl
ENDROOT
TORSDOF 0
ENDMDL
MODEL 16
REMARK VINA RESULT:      -3.3     15.671     17.088
REMARK  0 active torsions:
REMARK  status: ('A' for Active; 'I' for Inactive)
ROOT
HETATM    1 CL   LIG     1      28.012  21.851  19.931  1.00  0.00    -0.081 Cl
HETATM    2  C   LIG     1      26.308  22.132  20.287  1.00  0.00     0.079 A 
HETATM    3  C   LIG     1      25.930  22.668  21.531  1.00  0.00     0.059 A 
HETATM    4 CL   LIG     1      27.127  23.069  22.755  1.00  0.00    -0.082 Cl
HETATM    5  C   LIG     1      24.581  22.892  21.814  1.00  0.00     0.051 A 
HETATM    6  C   LIG     1      23.597  22.586  20.870  1.00  0.00     0.059 A 
HETATM    7 CL   LIG     1      21.913  22.887  21.279  1.00  0.00    -0.082 Cl
HETATM    8  C   LIG     1      23.963  22.050  19.623  1.00  0.00     0.079 A 
HETATM    9 CL   LIG     1      22.720  21.666  18.432  1.00  0.00    -0.081 Cl
HETATM   10  C   LIG     1      25.321  21.822  19.331  1.00  0.00     0.080 A 
HETATM   11 CL   LIG     1      25.788  21.150  17.767  1.00  0.00    -0.081 Cl
ENDROOT
TORSDOF 0
ENDMDL
MODEL 17
REMARK VINA RESULT:      -3.1     20.102     21.825
REMARK  0 active torsions:
REMARK  status: ('A' for Active; 'I' for Inactive)
ROOT
HETATM    1 CL   LIG     1      22.151  23.781  35.401  1.00  0.00    -0.081 Cl
HETATM    2  C   LIG     1      21.591  22.254  36.084  1.00  0.00     0.079 A 
HETATM    3  C   LIG     1      22.435  21.511  36.928  1.00  0.00     0.059 A 
HETATM    4 CL   LIG     1      24.054  22.071  37.325  1.00  0.00    -0.082 Cl
HETATM    5  C   LIG     1      21.992  20.303  37.470  1.00  0.00     0.051 A 
HETATM    6  C   LIG     1      20.712  19.821  37.179  1.00  0.00     0.059 A 
HETATM    7 CL   LIG     1      20.205  18.292  37.887  1.00  0.00    -0.082 Cl
HETATM    8  C   LIG     1      19.860  20.555  36.337  1.00  0.00     0.079 A 
HETATM    9 CL   LIG     1      18.245  19.947  35.971  1.00  0.00    -0.081 Cl
HETATM   10  C   LIG     1      20.300  21.775  35.787  1.00  0.00     0.080 A 
HETATM   11 CL   LIG     1      19.235  22.702  34.729  1.00  0.00    -0.081 Cl
ENDROOT
TORSDOF 0
ENDMDL
MODEL 18
REMARK VINA RESULT:      -3.1     16.018     17.722
REMARK  0 active torsions:
REMARK  status: ('A' for Active; 'I' for Inactive)
ROOT
HETATM    1 CL   LIG     1      24.469  22.517  23.556  1.00  0.00    -0.081 Cl
HETATM    2  C   LIG     1      24.795  21.988  21.906  1.00  0.00     0.079 A 
HETATM    3  C   LIG     1      26.041  21.422  21.584  1.00  0.00     0.059 A 
HETATM    4 CL   LIG     1      27.297  21.225  22.799  1.00  0.00    -0.082 Cl
HETATM    5  C   LIG     1      26.300  21.001  20.278  1.00  0.00     0.051 A 
HETATM    6  C   LIG     1      25.330  21.140  19.282  1.00  0.00     0.059 A 
HETATM    7 CL   LIG     1      25.709  20.595  17.652  1.00  0.00    -0.082 Cl
HETATM    8  C   LIG     1      24.080  21.704  19.591  1.00  0.00     0.079 A 
HETATM    9 CL   LIG     1      22.856  21.877  18.333  1.00  0.00    -0.081 Cl
HETATM   10  C   LIG     1      23.812  22.130  20.907  1.00  0.00     0.080 A 
HETATM   11 CL   LIG     1      22.246  22.839  21.303  1.00  0.00    -0.081 Cl
ENDROOT
TORSDOF 0
ENDMDL
MODEL 19
REMARK VINA RESULT:      -3.1     16.030     16.568
REMARK  0 active torsions:
REMARK  status: ('A' for Active; 'I' for Inactive)
ROOT
HETATM    1 CL   LIG     1      24.702  21.864  21.157  1.00  0.00    -0.081 Cl
HETATM    2  C   LIG     1      25.707  23.079  20.367  1.00  0.00     0.079 A 
HETATM    3  C   LIG     1      25.543  23.341  18.996  1.00  0.00     0.059 A 
HETATM    4 CL   LIG     1      24.347  22.479  18.036  1.00  0.00    -0.082 Cl
HETATM    5  C   LIG     1      26.338  24.304  18.369  1.00  0.00     0.051 A 
HETATM    6  C   LIG     1      27.300  25.012  19.095  1.00  0.00     0.059 A 
HETATM    7 CL   LIG     1      28.275  26.212  18.255  1.00  0.00    -0.082 Cl
HETATM    8  C   LIG     1      27.473  24.758  20.466  1.00  0.00     0.079 A 
HETATM    9 CL   LIG     1      28.687  25.653  21.380  1.00  0.00    -0.081 Cl
HETATM   10  C   LIG     1      26.675  23.789  21.104  1.00  0.00     0.080 A 
HETATM   11 CL   LIG     1      26.886  23.465  22.826  1.00  0.00    -0.081 Cl
ENDROOT
TORSDOF 0
ENDMDL
MODEL 20
REMARK VINA RESULT:      -3.0     17.375     18.722
REMARK  0 active torsions:
REMARK  status: ('A' for Active; 'I' for Inactive)
ROOT
HETATM    1 CL   LIG     1      26.376  25.140  34.818  1.00  0.00    -0.081 Cl
HETATM    2  C   LIG     1      26.892  26.826  34.860  1.00  0.00     0.079 A 
HETATM    3  C   LIG     1      26.903  27.586  33.678  1.00  0.00     0.059 A 
HETATM    4 CL   LIG     1      26.411  26.891  32.139  1.00  0.00    -0.082 Cl
HETATM    5  C   LIG     1      27.311  28.922  33.710  1.00  0.00     0.051 A 
HETATM    6  C   LIG     1      27.710  29.513  34.911  1.00  0.00     0.059 A 
HETATM    7 CL   LIG     1      28.215  31.199  34.895  1.00  0.00    -0.082 Cl
HETATM    8  C   LIG     1      27.703  28.763  36.100  1.00  0.00     0.079 A 
HETATM    9 CL   LIG     1      28.207  29.511  37.616  1.00  0.00    -0.081 Cl
HETATM   10  C   LIG     1      27.294  27.416  36.075  1.00  0.00     0.080 A 
HETATM   11 CL   LIG     1      27.282  26.468  37.563  1.00  0.00    -0.081 Cl
ENDROOT
TORSDOF 0
ENDMDL
