REMARK  0 active torsions:
REMARK  status: ('A' for Active; 'I' for Inactive)
ROOT
HETATM    1 BR   LIG     1       0.713   3.123  -0.050  1.00  0.00    -0.048 Br
HETATM    2  C   LIG     1       0.285   1.248  -0.020  1.00  0.00     0.045 A 
HETATM    3  C   LIG     1      -1.060   0.826  -0.012  1.00  0.00     0.029 A 
HETATM    4 BR   LIG     1      -2.512   2.077  -0.029  1.00  0.00    -0.050 Br
HETATM    5  C   LIG     1      -1.363  -0.540   0.010  1.00  0.00     0.020 A 
HETATM    6  C   LIG     1      -0.340  -1.489   0.024  1.00  0.00     0.003 A 
HETATM    7  C   LIG     1       0.994  -1.078   0.016  1.00  0.00     0.020 A 
HETATM    8  C   LIG     1       1.313   0.284  -0.006  1.00  0.00     0.029 A 
HETATM    9 BR   LIG     1       3.165   0.782  -0.017  1.00  0.00    -0.050 Br
ENDROOT
TORSDOF 0
