MODEL 1
REMARK VINA RESULT:      -5.5      0.000      0.000
REMARK  0 active torsions:
REMARK  status: ('A' for Active; 'I' for Inactive)
ROOT
HETATM    1 BR   LIG     1      17.469  38.214  25.552  1.00  0.00    -0.048 Br
HETATM    2  C   LIG     1      17.231  36.999  24.080  1.00  0.00     0.045 A 
HETATM    3  C   LIG     1      17.044  37.494  22.773  1.00  0.00     0.029 A 
HETATM    4 BR   LIG     1      17.016  39.373  22.398  1.00  0.00    -0.050 Br
HETATM    5  C   LIG     1      16.871  36.603  21.707  1.00  0.00     0.020 A 
HETATM    6  C   LIG     1      16.882  35.225  21.931  1.00  0.00     0.003 A 
HETATM    7  C   LIG     1      17.067  34.729  23.222  1.00  0.00     0.020 A 
HETATM    8  C   LIG     1      17.241  35.607  24.298  1.00  0.00     0.029 A 
HETATM    9 BR   LIG     1      17.491  34.860  26.047  1.00  0.00    -0.050 Br
ENDROOT
TORSDOF 0
ENDMDL
MODEL 2
REMARK VINA RESULT:      -5.5      0.021      3.186
REMARK  0 active torsions:
REMARK  status: ('A' for Active; 'I' for Inactive)
ROOT
HETATM    1 BR   LIG     1      17.485  38.206  25.545  1.00  0.00    -0.048 Br
HETATM    2  C   LIG     1      17.238  36.986  24.080  1.00  0.00     0.045 A 
HETATM    3  C   LIG     1      17.253  35.594  24.303  1.00  0.00     0.029 A 
HETATM    4 BR   LIG     1      17.517  34.854  26.052  1.00  0.00    -0.050 Br
HETATM    5  C   LIG     1      17.072  34.713  23.232  1.00  0.00     0.020 A 
HETATM    6  C   LIG     1      16.876  35.204  21.940  1.00  0.00     0.003 A 
HETATM    7  C   LIG     1      16.860  36.581  21.712  1.00  0.00     0.020 A 
HETATM    8  C   LIG     1      17.040  37.475  22.773  1.00  0.00     0.029 A 
HETATM    9 BR   LIG     1      17.006  39.354  22.391  1.00  0.00    -0.050 Br
ENDROOT
TORSDOF 0
ENDMDL
MODEL 3
REMARK VINA RESULT:      -5.2      1.742      3.422
REMARK  0 active torsions:
REMARK  status: ('A' for Active; 'I' for Inactive)
ROOT
HETATM    1 BR   LIG     1      18.641  39.252  21.877  1.00  0.00    -0.048 Br
HETATM    2  C   LIG     1      17.797  37.525  21.949  1.00  0.00     0.045 A 
HETATM    3  C   LIG     1      17.190  37.080  23.140  1.00  0.00     0.029 A 
HETATM    4 BR   LIG     1      17.173  38.153  24.729  1.00  0.00    -0.050 Br
HETATM    5  C   LIG     1      16.578  35.822  23.184  1.00  0.00     0.020 A 
HETATM    6  C   LIG     1      16.566  35.004  22.054  1.00  0.00     0.003 A 
HETATM    7  C   LIG     1      17.166  35.439  20.871  1.00  0.00     0.020 A 
HETATM    8  C   LIG     1      17.781  36.694  20.811  1.00  0.00     0.029 A 
HETATM    9 BR   LIG     1      18.585  37.232  19.155  1.00  0.00    -0.050 Br
ENDROOT
TORSDOF 0
ENDMDL
MODEL 4
REMARK VINA RESULT:      -5.2      1.741      2.654
REMARK  0 active torsions:
REMARK  status: ('A' for Active; 'I' for Inactive)
ROOT
HETATM    1 BR   LIG     1      18.642  39.245  21.885  1.00  0.00    -0.048 Br
HETATM    2  C   LIG     1      17.792  37.520  21.951  1.00  0.00     0.045 A 
HETATM    3  C   LIG     1      17.774  36.693  20.809  1.00  0.00     0.029 A 
HETATM    4 BR   LIG     1      18.582  37.233  19.157  1.00  0.00    -0.050 Br
HETATM    5  C   LIG     1      17.154  35.440  20.865  1.00  0.00     0.020 A 
HETATM    6  C   LIG     1      16.552  35.003  22.046  1.00  0.00     0.003 A 
HETATM    7  C   LIG     1      16.566  35.817  23.179  1.00  0.00     0.020 A 
HETATM    8  C   LIG     1      17.182  37.073  23.140  1.00  0.00     0.029 A 
HETATM    9 BR   LIG     1      17.167  38.142  24.732  1.00  0.00    -0.050 Br
ENDROOT
TORSDOF 0
ENDMDL
MODEL 5
REMARK VINA RESULT:      -4.7      2.896      4.560
REMARK  0 active torsions:
REMARK  status: ('A' for Active; 'I' for Inactive)
ROOT
HETATM    1 BR   LIG     1      18.054  36.399  19.322  1.00  0.00    -0.048 Br
HETATM    2  C   LIG     1      17.705  37.220  21.026  1.00  0.00     0.045 A 
HETATM    3  C   LIG     1      16.840  36.600  21.951  1.00  0.00     0.029 A 
HETATM    4 BR   LIG     1      15.978  34.932  21.566  1.00  0.00    -0.050 Br
HETATM    5  C   LIG     1      16.592  37.204  23.188  1.00  0.00     0.020 A 
HETATM    6  C   LIG     1      17.196  38.419  23.514  1.00  0.00     0.003 A 
HETATM    7  C   LIG     1      18.053  39.038  22.603  1.00  0.00     0.020 A 
HETATM    8  C   LIG     1      18.312  38.447  21.362  1.00  0.00     0.029 A 
HETATM    9 BR   LIG     1      19.500  39.349  20.157  1.00  0.00    -0.050 Br
ENDROOT
TORSDOF 0
ENDMDL
MODEL 6
REMARK VINA RESULT:      -4.7      2.905      3.718
REMARK  0 active torsions:
REMARK  status: ('A' for Active; 'I' for Inactive)
ROOT
HETATM    1 BR   LIG     1      18.068  36.396  19.306  1.00  0.00    -0.048 Br
HETATM    2  C   LIG     1      17.709  37.214  21.010  1.00  0.00     0.045 A 
HETATM    3  C   LIG     1      18.309  38.444  21.348  1.00  0.00     0.029 A 
HETATM    4 BR   LIG     1      19.496  39.353  20.148  1.00  0.00    -0.050 Br
HETATM    5  C   LIG     1      18.043  39.033  22.589  1.00  0.00     0.020 A 
HETATM    6  C   LIG     1      17.186  38.409  23.496  1.00  0.00     0.003 A 
HETATM    7  C   LIG     1      16.589  37.191  23.168  1.00  0.00     0.020 A 
HETATM    8  C   LIG     1      16.844  36.590  21.931  1.00  0.00     0.029 A 
HETATM    9 BR   LIG     1      15.991  34.917  21.541  1.00  0.00    -0.050 Br
ENDROOT
TORSDOF 0
ENDMDL
MODEL 7
REMARK VINA RESULT:      -4.6      1.915      3.033
REMARK  0 active torsions:
REMARK  status: ('A' for Active; 'I' for Inactive)
ROOT
HETATM    1 BR   LIG     1      16.983  34.951  24.681  1.00  0.00    -0.048 Br
HETATM    2  C   LIG     1      17.179  36.489  23.543  1.00  0.00     0.045 A 
HETATM    3  C   LIG     1      17.024  36.366  22.148  1.00  0.00     0.029 A 
HETATM    4 BR   LIG     1      16.618  34.685  21.321  1.00  0.00    -0.050 Br
HETATM    5  C   LIG     1      17.169  37.490  21.327  1.00  0.00     0.020 A 
HETATM    6  C   LIG     1      17.466  38.735  21.883  1.00  0.00     0.003 A 
HETATM    7  C   LIG     1      17.620  38.865  23.264  1.00  0.00     0.020 A 
HETATM    8  C   LIG     1      17.479  37.750  24.098  1.00  0.00     0.029 A 
HETATM    9 BR   LIG     1      17.702  37.996  25.987  1.00  0.00    -0.050 Br
ENDROOT
TORSDOF 0
ENDMDL
MODEL 8
REMARK VINA RESULT:      -4.6      1.917      3.162
REMARK  0 active torsions:
REMARK  status: ('A' for Active; 'I' for Inactive)
ROOT
HETATM    1 BR   LIG     1      16.980  34.951  24.676  1.00  0.00    -0.048 Br
HETATM    2  C   LIG     1      17.179  36.492  23.542  1.00  0.00     0.045 A 
HETATM    3  C   LIG     1      17.480  37.751  24.099  1.00  0.00     0.029 A 
HETATM    4 BR   LIG     1      17.704  37.993  25.987  1.00  0.00    -0.050 Br
HETATM    5  C   LIG     1      17.623  38.867  23.267  1.00  0.00     0.020 A 
HETATM    6  C   LIG     1      17.469  38.741  21.886  1.00  0.00     0.003 A 
HETATM    7  C   LIG     1      17.170  37.497  21.327  1.00  0.00     0.020 A 
HETATM    8  C   LIG     1      17.025  36.372  22.146  1.00  0.00     0.029 A 
HETATM    9 BR   LIG     1      16.616  34.692  21.316  1.00  0.00    -0.050 Br
ENDROOT
TORSDOF 0
ENDMDL
MODEL 9
REMARK VINA RESULT:      -4.5      1.509      3.025
REMARK  0 active torsions:
REMARK  status: ('A' for Active; 'I' for Inactive)
ROOT
HETATM    1 BR   LIG     1      16.931  38.896  22.379  1.00  0.00    -0.048 Br
HETATM    2  C   LIG     1      17.079  37.225  23.320  1.00  0.00     0.045 A 
HETATM    3  C   LIG     1      17.260  37.210  24.718  1.00  0.00     0.029 A 
HETATM    4 BR   LIG     1      17.368  38.828  25.740  1.00  0.00    -0.050 Br
HETATM    5  C   LIG     1      17.366  35.990  25.395  1.00  0.00     0.020 A 
HETATM    6  C   LIG     1      17.295  34.786  24.694  1.00  0.00     0.003 A 
HETATM    7  C   LIG     1      17.116  34.793  23.310  1.00  0.00     0.020 A 
HETATM    8  C   LIG     1      17.007  36.005  22.618  1.00  0.00     0.029 A 
HETATM    9 BR   LIG     1      16.761  35.946  20.717  1.00  0.00    -0.050 Br
ENDROOT
TORSDOF 0
ENDMDL
MODEL 10
REMARK VINA RESULT:      -4.5      2.817      4.425
REMARK  0 active torsions:
REMARK  status: ('A' for Active; 'I' for Inactive)
ROOT
HETATM    1 BR   LIG     1      16.920  35.425  21.663  1.00  0.00    -0.048 Br
HETATM    2  C   LIG     1      17.662  37.200  21.643  1.00  0.00     0.045 A 
HETATM    3  C   LIG     1      17.574  38.020  22.786  1.00  0.00     0.029 A 
HETATM    4 BR   LIG     1      16.723  37.423  24.396  1.00  0.00    -0.050 Br
HETATM    5  C   LIG     1      18.116  39.310  22.763  1.00  0.00     0.020 A 
HETATM    6  C   LIG     1      18.744  39.791  21.613  1.00  0.00     0.003 A 
HETATM    7  C   LIG     1      18.835  38.983  20.478  1.00  0.00     0.020 A 
HETATM    8  C   LIG     1      18.298  37.692  20.485  1.00  0.00     0.029 A 
HETATM    9 BR   LIG     1      18.458  36.634  18.894  1.00  0.00    -0.050 Br
ENDROOT
TORSDOF 0
ENDMDL
MODEL 11
REMARK VINA RESULT:      -4.4      2.811      3.847
REMARK  0 active torsions:
REMARK  status: ('A' for Active; 'I' for Inactive)
ROOT
HETATM    1 BR   LIG     1      16.881  35.422  21.672  1.00  0.00    -0.048 Br
HETATM    2  C   LIG     1      17.646  37.187  21.649  1.00  0.00     0.045 A 
HETATM    3  C   LIG     1      18.283  37.671  20.488  1.00  0.00     0.029 A 
HETATM    4 BR   LIG     1      18.421  36.613  18.896  1.00  0.00    -0.050 Br
HETATM    5  C   LIG     1      18.837  38.956  20.480  1.00  0.00     0.020 A 
HETATM    6  C   LIG     1      18.762  39.763  21.615  1.00  0.00     0.003 A 
HETATM    7  C   LIG     1      18.133  39.291  22.768  1.00  0.00     0.020 A 
HETATM    8  C   LIG     1      17.574  38.008  22.792  1.00  0.00     0.029 A 
HETATM    9 BR   LIG     1      16.722  37.420  24.407  1.00  0.00    -0.050 Br
ENDROOT
TORSDOF 0
ENDMDL
MODEL 12
REMARK VINA RESULT:      -4.4      8.981     10.055
REMARK  0 active torsions:
REMARK  status: ('A' for Active; 'I' for Inactive)
ROOT
HETATM    1 BR   LIG     1      15.320  33.676  16.846  1.00  0.00    -0.048 Br
HETATM    2  C   LIG     1      15.327  32.308  15.494  1.00  0.00     0.045 A 
HETATM    3  C   LIG     1      16.278  32.341  14.454  1.00  0.00     0.029 A 
HETATM    4 BR   LIG     1      17.594  33.730  14.332  1.00  0.00    -0.050 Br
HETATM    5  C   LIG     1      16.277  31.342  13.475  1.00  0.00     0.020 A 
HETATM    6  C   LIG     1      15.339  30.310  13.521  1.00  0.00     0.003 A 
HETATM    7  C   LIG     1      14.394  30.271  14.548  1.00  0.00     0.020 A 
HETATM    8  C   LIG     1      14.382  31.263  15.534  1.00  0.00     0.029 A 
HETATM    9 BR   LIG     1      13.059  31.150  16.918  1.00  0.00    -0.050 Br
ENDROOT
TORSDOF 0
ENDMDL
MODEL 13
REMARK VINA RESULT:      -4.3      9.084     10.458
REMARK  0 active torsions:
REMARK  status: ('A' for Active; 'I' for Inactive)
ROOT
HETATM    1 BR   LIG     1      15.684  33.762  16.528  1.00  0.00    -0.048 Br
HETATM    2  C   LIG     1      15.414  32.268  15.347  1.00  0.00     0.045 A 
HETATM    3  C   LIG     1      14.459  31.279  15.658  1.00  0.00     0.029 A 
HETATM    4 BR   LIG     1      13.395  31.367  17.250  1.00  0.00    -0.050 Br
HETATM    5  C   LIG     1      14.269  30.195  14.794  1.00  0.00     0.020 A 
HETATM    6  C   LIG     1      15.021  30.086  13.623  1.00  0.00     0.003 A 
HETATM    7  C   LIG     1      15.968  31.062  13.308  1.00  0.00     0.020 A 
HETATM    8  C   LIG     1      16.170  32.152  14.162  1.00  0.00     0.029 A 
HETATM    9 BR   LIG     1      17.486  33.458  13.672  1.00  0.00    -0.050 Br
ENDROOT
TORSDOF 0
ENDMDL
MODEL 14
REMARK VINA RESULT:      -4.2      9.533     10.571
REMARK  0 active torsions:
REMARK  status: ('A' for Active; 'I' for Inactive)
ROOT
HETATM    1 BR   LIG     1      13.071  30.820  16.868  1.00  0.00    -0.048 Br
HETATM    2  C   LIG     1      14.378  31.201  15.509  1.00  0.00     0.045 A 
HETATM    3  C   LIG     1      15.242  32.307  15.644  1.00  0.00     0.029 A 
HETATM    4 BR   LIG     1      15.161  33.474  17.162  1.00  0.00    -0.050 Br
HETATM    5  C   LIG     1      16.190  32.578  14.651  1.00  0.00     0.020 A 
HETATM    6  C   LIG     1      16.286  31.758  13.526  1.00  0.00     0.003 A 
HETATM    7  C   LIG     1      15.435  30.660  13.386  1.00  0.00     0.020 A 
HETATM    8  C   LIG     1      14.482  30.377  14.371  1.00  0.00     0.029 A 
HETATM    9 BR   LIG     1      13.343  28.854  14.119  1.00  0.00    -0.050 Br
ENDROOT
TORSDOF 0
ENDMDL
MODEL 15
REMARK VINA RESULT:      -4.2      9.426     10.605
REMARK  0 active torsions:
REMARK  status: ('A' for Active; 'I' for Inactive)
ROOT
HETATM    1 BR   LIG     1      13.250  30.992  16.953  1.00  0.00    -0.048 Br
HETATM    2  C   LIG     1      14.500  31.351  15.535  1.00  0.00     0.045 A 
HETATM    3  C   LIG     1      14.574  30.493  14.419  1.00  0.00     0.029 A 
HETATM    4 BR   LIG     1      13.453  28.947  14.256  1.00  0.00    -0.050 Br
HETATM    5  C   LIG     1      15.485  30.762  13.392  1.00  0.00     0.020 A 
HETATM    6  C   LIG     1      16.323  31.875  13.465  1.00  0.00     0.003 A 
HETATM    7  C   LIG     1      16.255  32.729  14.568  1.00  0.00     0.020 A 
HETATM    8  C   LIG     1      15.349  32.474  15.603  1.00  0.00     0.029 A 
HETATM    9 BR   LIG     1      15.304  33.686  17.089  1.00  0.00    -0.050 Br
ENDROOT
TORSDOF 0
ENDMDL
MODEL 16
REMARK VINA RESULT:      -4.0      2.788      3.549
REMARK  0 active torsions:
REMARK  status: ('A' for Active; 'I' for Inactive)
ROOT
HETATM    1 BR   LIG     1      16.384  36.942  23.148  1.00  0.00    -0.048 Br
HETATM    2  C   LIG     1      17.388  37.117  21.516  1.00  0.00     0.045 A 
HETATM    3  C   LIG     1      18.297  38.181  21.352  1.00  0.00     0.029 A 
HETATM    4 BR   LIG     1      18.577  39.492  22.722  1.00  0.00    -0.050 Br
HETATM    5  C   LIG     1      19.023  38.301  20.162  1.00  0.00     0.020 A 
HETATM    6  C   LIG     1      18.853  37.372  19.135  1.00  0.00     0.003 A 
HETATM    7  C   LIG     1      17.954  36.315  19.291  1.00  0.00     0.020 A 
HETATM    8  C   LIG     1      17.221  36.182  20.475  1.00  0.00     0.029 A 
HETATM    9 BR   LIG     1      16.004  34.707  20.627  1.00  0.00    -0.050 Br
ENDROOT
TORSDOF 0
ENDMDL
MODEL 17
REMARK VINA RESULT:      -3.4     20.510     21.129
REMARK  0 active torsions:
REMARK  status: ('A' for Active; 'I' for Inactive)
ROOT
HETATM    1 BR   LIG     1      14.376  17.955  11.495  1.00  0.00    -0.048 Br
HETATM    2  C   LIG     1      14.752  18.108  13.375  1.00  0.00     0.045 A 
HETATM    3  C   LIG     1      16.084  18.100  13.836  1.00  0.00     0.029 A 
HETATM    4 BR   LIG     1      17.569  17.937  12.636  1.00  0.00    -0.050 Br
HETATM    5  C   LIG     1      16.349  18.212  15.206  1.00  0.00     0.020 A 
HETATM    6  C   LIG     1      15.301  18.333  16.119  1.00  0.00     0.003 A 
HETATM    7  C   LIG     1      13.980  18.342  15.669  1.00  0.00     0.020 A 
HETATM    8  C   LIG     1      13.698  18.230  14.303  1.00  0.00     0.029 A 
HETATM    9 BR   LIG     1      11.862  18.250  13.750  1.00  0.00    -0.050 Br
ENDROOT
TORSDOF 0
ENDMDL
MODEL 18
REMARK VINA RESULT:      -3.1     15.550     16.648
REMARK  0 active torsions:
REMARK  status: ('A' for Active; 'I' for Inactive)
ROOT
HETATM    1 BR   LIG     1      26.038  21.663  18.265  1.00  0.00    -0.048 Br
HETATM    2  C   LIG     1      24.706  22.149  19.565  1.00  0.00     0.045 A 
HETATM    3  C   LIG     1      23.390  21.657  19.452  1.00  0.00     0.029 A 
HETATM    4 BR   LIG     1      22.864  20.497  18.020  1.00  0.00    -0.050 Br
HETATM    5  C   LIG     1      22.426  22.015  20.402  1.00  0.00     0.020 A 
HETATM    6  C   LIG     1      22.761  22.858  21.462  1.00  0.00     0.003 A 
HETATM    7  C   LIG     1      24.062  23.349  21.580  1.00  0.00     0.020 A 
HETATM    8  C   LIG     1      25.037  23.000  20.639  1.00  0.00     0.029 A 
HETATM    9 BR   LIG     1      26.806  23.707  20.859  1.00  0.00    -0.050 Br
ENDROOT
TORSDOF 0
ENDMDL
MODEL 19
REMARK VINA RESULT:      -3.1     16.451     16.515
REMARK  0 active torsions:
REMARK  status: ('A' for Active; 'I' for Inactive)
ROOT
HETATM    1 BR   LIG     1      25.857  22.792  22.224  1.00  0.00    -0.048 Br
HETATM    2  C   LIG     1      24.853  22.419  20.626  1.00  0.00     0.045 A 
HETATM    3  C   LIG     1      25.346  22.819  19.368  1.00  0.00     0.029 A 
HETATM    4 BR   LIG     1      27.016  23.741  19.182  1.00  0.00    -0.050 Br
HETATM    5  C   LIG     1      24.609  22.544  18.210  1.00  0.00     0.020 A 
HETATM    6  C   LIG     1      23.387  21.875  18.294  1.00  0.00     0.003 A 
HETATM    7  C   LIG     1      22.893  21.477  19.538  1.00  0.00     0.020 A 
HETATM    8  C   LIG     1      23.618  21.744  20.704  1.00  0.00     0.029 A 
HETATM    9 BR   LIG     1      22.885  21.169  22.380  1.00  0.00    -0.050 Br
ENDROOT
TORSDOF 0
ENDMDL
