REMARK  4 active torsions:
REMARK  status: ('A' for Active; 'I' for Inactive)
REMARK    1  A    between atoms: C_5  and  N_6 
REMARK    2  A    between atoms: N_6  and  C_7 
REMARK    3  A    between atoms: C_8  and  C_9 
REMARK    4  A    between atoms: C_9  and  O_10 
ROOT
HETATM    1  C   LIG     1      -1.863   0.733  -0.197  1.00  0.00     0.049 A 
HETATM    2  C   LIG     1      -2.318  -0.128   0.836  1.00  0.00     0.064 A 
HETATM    3  C   LIG     1      -3.486   0.208   1.542  1.00  0.00     0.020 A 
HETATM    4  C   LIG     1      -4.220   1.346   1.202  1.00  0.00     0.001 A 
HETATM    5  C   LIG     1      -3.798   2.163   0.153  1.00  0.00     0.002 A 
HETATM    6  C   LIG     1      -2.628   1.857  -0.544  1.00  0.00     0.030 A 
ENDROOT
BRANCH   1   7
HETATM    7  N   LIG     1      -0.620   0.511  -0.887  1.00  0.00    -0.355 N 
HETATM    8  H   LIG     1      -0.602   0.717  -1.912  1.00  0.00     0.166 HD
BRANCH   7   9
HETATM    9  C   LIG     1       0.637   0.281  -0.218  1.00  0.00     0.039 A 
HETATM   10  C   LIG     1       1.690  -0.413  -0.871  1.00  0.00    -0.029 A 
HETATM   11  C   LIG     1       2.944  -0.548  -0.217  1.00  0.00    -0.054 A 
HETATM   12  C   LIG     1       1.484  -0.946  -2.272  1.00  0.00     0.051 C 
HETATM   13  C   LIG     1       4.117  -1.226  -0.879  1.00  0.00     0.049 C 
HETATM   14  C   LIG     1       3.110  -0.034   1.079  1.00  0.00     0.007 A 
HETATM   15  C   LIG     1       2.065   0.625   1.720  1.00  0.00     0.003 A 
HETATM   16  C   LIG     1       0.843   0.791   1.076  1.00  0.00     0.030 A 
ENDBRANCH   7   9
ENDBRANCH   1   7
BRANCH   2  17
HETATM   17  C   LIG     1      -1.625  -1.391   1.172  1.00  0.00     0.178 C 
HETATM   18  O   LIG     1      -1.506  -1.738   2.377  1.00  0.00    -0.646 OA
BRANCH  17  19
HETATM   19  O   LIG     1      -1.135  -2.232   0.176  1.00  0.00    -0.773 OA
HETATM   20  H   LIG     1      -1.305  -2.047  -0.805  1.00  0.00     0.167 HD
ENDBRANCH  17  19
ENDBRANCH   2  17
TORSDOF 4
