REMARK  1 active torsions:
REMARK  status: ('A' for Active; 'I' for Inactive)
REMARK    1  A    between atoms: C_2  and  C_3 
ROOT
HETATM    1  C   LIG     1      -0.134  -0.456  -0.078  1.00  0.00    -0.053 A 
HETATM    2  C   LIG     1       0.594  -1.484   0.549  1.00  0.00     0.007 A 
HETATM    3  C   LIG     1       1.984  -1.411   0.653  1.00  0.00     0.001 A 
HETATM    4  C   LIG     1       2.667  -0.313   0.134  1.00  0.00     0.001 A 
HETATM    5  C   LIG     1       1.963   0.720  -0.486  1.00  0.00     0.007 A 
HETATM    6  C   LIG     1       0.561   0.670  -0.592  1.00  0.00    -0.056 A 
HETATM    7  C   LIG     1      -0.160   1.809  -1.264  1.00  0.00     0.049 C 
ENDROOT
BRANCH   1   8
HETATM    8  C   LIG     1      -1.637  -0.593  -0.168  1.00  0.00     0.034 C 
HETATM    9  C   LIG     1      -2.300  -0.168   1.138  1.00  0.00     0.010 C 
ENDBRANCH   1   8
TORSDOF 1
