MODEL 1
REMARK VINA RESULT:      -6.7      0.000      0.000
REMARK  1 active torsions:
REMARK  status: ('A' for Active; 'I' for Inactive)
REMARK    1  A    between atoms: C_2  and  C_3 
ROOT
HETATM    1  C   LIG     1      17.248  37.175  24.219  1.00  0.00    -0.053 A 
HETATM    2  C   LIG     1      17.724  37.608  25.470  1.00  0.00     0.007 A 
HETATM    3  C   LIG     1      18.092  36.685  26.450  1.00  0.00     0.001 A 
HETATM    4  C   LIG     1      17.992  35.318  26.196  1.00  0.00     0.001 A 
HETATM    5  C   LIG     1      17.529  34.869  24.959  1.00  0.00     0.007 A 
HETATM    6  C   LIG     1      17.162  35.783  23.955  1.00  0.00    -0.056 A 
HETATM    7  C   LIG     1      16.672  35.255  22.632  1.00  0.00     0.049 C 
ENDROOT
BRANCH   1   8
HETATM    8  C   LIG     1      16.857  38.221  23.199  1.00  0.00     0.034 C 
HETATM    9  C   LIG     1      18.085  38.752  22.467  1.00  0.00     0.010 C 
ENDBRANCH   1   8
TORSDOF 1
ENDMDL
MODEL 2
REMARK VINA RESULT:      -6.7      0.918      2.553
REMARK  1 active torsions:
REMARK  status: ('A' for Active; 'I' for Inactive)
REMARK    1  A    between atoms: C_2  and  C_3 
ROOT
HETATM    1  C   LIG     1      17.192  36.135  24.174  1.00  0.00    -0.053 A 
HETATM    2  C   LIG     1      17.299  34.896  24.832  1.00  0.00     0.007 A 
HETATM    3  C   LIG     1      17.861  34.814  26.108  1.00  0.00     0.001 A 
HETATM    4  C   LIG     1      18.322  35.965  26.744  1.00  0.00     0.001 A 
HETATM    5  C   LIG     1      18.219  37.204  26.110  1.00  0.00     0.007 A 
HETATM    6  C   LIG     1      17.647  37.309  24.829  1.00  0.00    -0.056 A 
HETATM    7  C   LIG     1      17.551  38.667  24.184  1.00  0.00     0.049 C 
ENDROOT
BRANCH   1   8
HETATM    8  C   LIG     1      16.582  36.162  22.791  1.00  0.00     0.034 C 
HETATM    9  C   LIG     1      17.105  35.007  21.944  1.00  0.00     0.010 C 
ENDBRANCH   1   8
TORSDOF 1
ENDMDL
MODEL 3
REMARK VINA RESULT:      -6.5      2.518      5.020
REMARK  1 active torsions:
REMARK  status: ('A' for Active; 'I' for Inactive)
REMARK    1  A    between atoms: C_2  and  C_3 
ROOT
HETATM    1  C   LIG     1      17.560  37.144  21.086  1.00  0.00    -0.053 A 
HETATM    2  C   LIG     1      18.385  36.688  20.041  1.00  0.00     0.007 A 
HETATM    3  C   LIG     1      19.387  37.505  19.516  1.00  0.00     0.001 A 
HETATM    4  C   LIG     1      19.582  38.788  20.026  1.00  0.00     0.001 A 
HETATM    5  C   LIG     1      18.779  39.257  21.066  1.00  0.00     0.007 A 
HETATM    6  C   LIG     1      17.770  38.445  21.616  1.00  0.00    -0.056 A 
HETATM    7  C   LIG     1      16.929  38.988  22.741  1.00  0.00     0.049 C 
ENDROOT
BRANCH   1   8
HETATM    8  C   LIG     1      16.486  36.218  21.609  1.00  0.00     0.034 C 
HETATM    9  C   LIG     1      17.066  35.225  22.611  1.00  0.00     0.010 C 
ENDBRANCH   1   8
TORSDOF 1
ENDMDL
MODEL 4
REMARK VINA RESULT:      -6.5      2.245      4.497
REMARK  1 active torsions:
REMARK  status: ('A' for Active; 'I' for Inactive)
REMARK    1  A    between atoms: C_2  and  C_3 
ROOT
HETATM    1  C   LIG     1      17.781  38.168  21.599  1.00  0.00    -0.053 A 
HETATM    2  C   LIG     1      18.583  39.262  21.226  1.00  0.00     0.007 A 
HETATM    3  C   LIG     1      19.473  39.161  20.156  1.00  0.00     0.001 A 
HETATM    4  C   LIG     1      19.577  37.968  19.443  1.00  0.00     0.001 A 
HETATM    5  C   LIG     1      18.786  36.873  19.793  1.00  0.00     0.007 A 
HETATM    6  C   LIG     1      17.876  36.958  20.862  1.00  0.00    -0.056 A 
HETATM    7  C   LIG     1      17.038  35.753  21.204  1.00  0.00     0.049 C 
ENDROOT
BRANCH   1   8
HETATM    8  C   LIG     1      16.841  38.333  22.771  1.00  0.00     0.034 C 
HETATM    9  C   LIG     1      17.585  38.166  24.092  1.00  0.00     0.010 C 
ENDBRANCH   1   8
TORSDOF 1
ENDMDL
MODEL 5
REMARK VINA RESULT:      -6.4      0.952      3.890
REMARK  1 active torsions:
REMARK  status: ('A' for Active; 'I' for Inactive)
REMARK    1  A    between atoms: C_2  and  C_3 
ROOT
HETATM    1  C   LIG     1      17.153  35.733  24.423  1.00  0.00    -0.053 A 
HETATM    2  C   LIG     1      17.070  34.979  23.238  1.00  0.00     0.007 A 
HETATM    3  C   LIG     1      17.039  35.610  21.993  1.00  0.00     0.001 A 
HETATM    4  C   LIG     1      17.091  37.000  21.913  1.00  0.00     0.001 A 
HETATM    5  C   LIG     1      17.180  37.765  23.076  1.00  0.00     0.007 A 
HETATM    6  C   LIG     1      17.222  37.148  24.340  1.00  0.00    -0.056 A 
HETATM    7  C   LIG     1      17.324  38.012  25.569  1.00  0.00     0.049 C 
ENDROOT
BRANCH   1   8
HETATM    8  C   LIG     1      17.175  34.995  25.743  1.00  0.00     0.034 C 
HETATM    9  C   LIG     1      18.604  34.832  26.250  1.00  0.00     0.010 C 
ENDBRANCH   1   8
TORSDOF 1
ENDMDL
MODEL 6
REMARK VINA RESULT:      -6.1      2.972      4.393
REMARK  1 active torsions:
REMARK  status: ('A' for Active; 'I' for Inactive)
REMARK    1  A    between atoms: C_2  and  C_3 
ROOT
HETATM    1  C   LIG     1      17.344  36.928  21.333  1.00  0.00    -0.053 A 
HETATM    2  C   LIG     1      16.768  37.657  22.390  1.00  0.00     0.007 A 
HETATM    3  C   LIG     1      17.229  38.935  22.707  1.00  0.00     0.001 A 
HETATM    4  C   LIG     1      18.269  39.505  21.976  1.00  0.00     0.001 A 
HETATM    5  C   LIG     1      18.849  38.802  20.920  1.00  0.00     0.007 A 
HETATM    6  C   LIG     1      18.393  37.516  20.578  1.00  0.00    -0.056 A 
HETATM    7  C   LIG     1      19.043  36.794  19.427  1.00  0.00     0.049 C 
ENDROOT
BRANCH   1   8
HETATM    8  C   LIG     1      16.809  35.545  21.040  1.00  0.00     0.034 C 
HETATM    9  C   LIG     1      15.285  35.530  21.091  1.00  0.00     0.010 C 
ENDBRANCH   1   8
TORSDOF 1
ENDMDL
MODEL 7
REMARK VINA RESULT:      -6.1      1.028      3.524
REMARK  1 active torsions:
REMARK  status: ('A' for Active; 'I' for Inactive)
REMARK    1  A    between atoms: C_2  and  C_3 
ROOT
HETATM    1  C   LIG     1      17.194  36.947  23.765  1.00  0.00    -0.053 A 
HETATM    2  C   LIG     1      17.008  35.553  23.739  1.00  0.00     0.007 A 
HETATM    3  C   LIG     1      16.947  34.864  22.526  1.00  0.00     0.001 A 
HETATM    4  C   LIG     1      17.069  35.556  21.323  1.00  0.00     0.001 A 
HETATM    5  C   LIG     1      17.260  36.939  21.327  1.00  0.00     0.007 A 
HETATM    6  C   LIG     1      17.334  37.649  22.539  1.00  0.00    -0.056 A 
HETATM    7  C   LIG     1      17.546  39.140  22.498  1.00  0.00     0.049 C 
ENDROOT
BRANCH   1   8
HETATM    8  C   LIG     1      17.245  37.640  25.108  1.00  0.00     0.034 C 
HETATM    9  C   LIG     1      18.231  36.945  26.040  1.00  0.00     0.010 C 
ENDBRANCH   1   8
TORSDOF 1
ENDMDL
MODEL 8
REMARK VINA RESULT:      -6.1      0.903      2.925
REMARK  1 active torsions:
REMARK  status: ('A' for Active; 'I' for Inactive)
REMARK    1  A    between atoms: C_2  and  C_3 
ROOT
HETATM    1  C   LIG     1      17.132  36.176  23.550  1.00  0.00    -0.053 A 
HETATM    2  C   LIG     1      17.045  37.430  22.919  1.00  0.00     0.007 A 
HETATM    3  C   LIG     1      17.209  38.608  23.650  1.00  0.00     0.001 A 
HETATM    4  C   LIG     1      17.462  38.551  25.019  1.00  0.00     0.001 A 
HETATM    5  C   LIG     1      17.559  37.317  25.662  1.00  0.00     0.007 A 
HETATM    6  C   LIG     1      17.406  36.118  24.941  1.00  0.00    -0.056 A 
HETATM    7  C   LIG     1      17.524  34.807  25.674  1.00  0.00     0.049 C 
ENDROOT
BRANCH   1   8
HETATM    8  C   LIG     1      16.938  34.935  22.708  1.00  0.00     0.034 C 
HETATM    9  C   LIG     1      16.732  35.300  21.242  1.00  0.00     0.010 C 
ENDBRANCH   1   8
TORSDOF 1
ENDMDL
MODEL 9
REMARK VINA RESULT:      -6.1      1.129      2.765
REMARK  1 active torsions:
REMARK  status: ('A' for Active; 'I' for Inactive)
REMARK    1  A    between atoms: C_2  and  C_3 
ROOT
HETATM    1  C   LIG     1      17.193  37.686  22.901  1.00  0.00    -0.053 A 
HETATM    2  C   LIG     1      17.049  36.731  21.878  1.00  0.00     0.007 A 
HETATM    3  C   LIG     1      16.981  35.370  22.178  1.00  0.00     0.001 A 
HETATM    4  C   LIG     1      17.054  34.942  23.502  1.00  0.00     0.001 A 
HETATM    5  C   LIG     1      17.189  35.873  24.532  1.00  0.00     0.007 A 
HETATM    6  C   LIG     1      17.251  37.251  24.251  1.00  0.00    -0.056 A 
HETATM    7  C   LIG     1      17.392  38.222  25.393  1.00  0.00     0.049 C 
ENDROOT
BRANCH   1   8
HETATM    8  C   LIG     1      17.269  39.146  22.515  1.00  0.00     0.034 C 
HETATM    9  C   LIG     1      18.565  39.443  21.768  1.00  0.00     0.010 C 
ENDBRANCH   1   8
TORSDOF 1
ENDMDL
MODEL 10
REMARK VINA RESULT:      -5.9      2.799      3.741
REMARK  1 active torsions:
REMARK  status: ('A' for Active; 'I' for Inactive)
REMARK    1  A    between atoms: C_2  and  C_3 
ROOT
HETATM    1  C   LIG     1      17.951  37.366  20.898  1.00  0.00    -0.053 A 
HETATM    2  C   LIG     1      18.133  38.657  21.427  1.00  0.00     0.007 A 
HETATM    3  C   LIG     1      17.332  39.117  22.474  1.00  0.00     0.001 A 
HETATM    4  C   LIG     1      16.341  38.297  23.008  1.00  0.00     0.001 A 
HETATM    5  C   LIG     1      16.148  37.011  22.501  1.00  0.00     0.007 A 
HETATM    6  C   LIG     1      16.951  36.525  21.453  1.00  0.00    -0.056 A 
HETATM    7  C   LIG     1      16.714  35.129  20.940  1.00  0.00     0.049 C 
ENDROOT
BRANCH   1   8
HETATM    8  C   LIG     1      18.843  36.925  19.759  1.00  0.00     0.034 C 
HETATM    9  C   LIG     1      19.879  37.996  19.436  1.00  0.00     0.010 C 
ENDBRANCH   1   8
TORSDOF 1
ENDMDL
MODEL 11
REMARK VINA RESULT:      -5.8      9.468     11.422
REMARK  1 active torsions:
REMARK  status: ('A' for Active; 'I' for Inactive)
REMARK    1  A    between atoms: C_2  and  C_3 
ROOT
HETATM    1  C   LIG     1      14.711  30.765  14.825  1.00  0.00    -0.053 A 
HETATM    2  C   LIG     1      13.447  30.343  15.276  1.00  0.00     0.007 A 
HETATM    3  C   LIG     1      12.845  30.948  16.380  1.00  0.00     0.001 A 
HETATM    4  C   LIG     1      13.495  31.982  17.051  1.00  0.00     0.001 A 
HETATM    5  C   LIG     1      14.747  32.420  16.616  1.00  0.00     0.007 A 
HETATM    6  C   LIG     1      15.365  31.830  15.499  1.00  0.00    -0.056 A 
HETATM    7  C   LIG     1      16.714  32.337  15.060  1.00  0.00     0.049 C 
ENDROOT
BRANCH   1   8
HETATM    8  C   LIG     1      15.316  30.068  13.628  1.00  0.00     0.034 C 
HETATM    9  C   LIG     1      15.302  28.555  13.817  1.00  0.00     0.010 C 
ENDBRANCH   1   8
TORSDOF 1
ENDMDL
MODEL 12
REMARK VINA RESULT:      -5.7      2.215      4.068
REMARK  1 active torsions:
REMARK  status: ('A' for Active; 'I' for Inactive)
REMARK    1  A    between atoms: C_2  and  C_3 
ROOT
HETATM    1  C   LIG     1      17.967  36.980  20.796  1.00  0.00    -0.053 A 
HETATM    2  C   LIG     1      17.367  35.816  21.311  1.00  0.00     0.007 A 
HETATM    3  C   LIG     1      16.810  35.808  22.590  1.00  0.00     0.001 A 
HETATM    4  C   LIG     1      16.842  36.961  23.373  1.00  0.00     0.001 A 
HETATM    5  C   LIG     1      17.427  38.127  22.878  1.00  0.00     0.007 A 
HETATM    6  C   LIG     1      17.985  38.158  21.587  1.00  0.00    -0.056 A 
HETATM    7  C   LIG     1      18.601  39.439  21.090  1.00  0.00     0.049 C 
ENDROOT
BRANCH   1   8
HETATM    8  C   LIG     1      18.561  36.926  19.406  1.00  0.00     0.034 C 
HETATM    9  C   LIG     1      20.063  36.666  19.468  1.00  0.00     0.010 C 
ENDBRANCH   1   8
TORSDOF 1
ENDMDL
MODEL 13
REMARK VINA RESULT:      -5.6      8.164     10.722
REMARK  1 active torsions:
REMARK  status: ('A' for Active; 'I' for Inactive)
REMARK    1  A    between atoms: C_2  and  C_3 
ROOT
HETATM    1  C   LIG     1      14.740  31.953  16.283  1.00  0.00    -0.053 A 
HETATM    2  C   LIG     1      13.585  31.152  16.350  1.00  0.00     0.007 A 
HETATM    3  C   LIG     1      13.326  30.192  15.371  1.00  0.00     0.001 A 
HETATM    4  C   LIG     1      14.215  30.016  14.312  1.00  0.00     0.001 A 
HETATM    5  C   LIG     1      15.369  30.796  14.231  1.00  0.00     0.007 A 
HETATM    6  C   LIG     1      15.653  31.762  15.213  1.00  0.00    -0.056 A 
HETATM    7  C   LIG     1      16.913  32.578  15.090  1.00  0.00     0.049 C 
ENDROOT
BRANCH   1   8
HETATM    8  C   LIG     1      14.963  32.981  17.368  1.00  0.00     0.034 C 
HETATM    9  C   LIG     1      15.039  32.317  18.739  1.00  0.00     0.010 C 
ENDBRANCH   1   8
TORSDOF 1
ENDMDL
MODEL 14
REMARK VINA RESULT:      -5.5      9.512     11.287
REMARK  1 active torsions:
REMARK  status: ('A' for Active; 'I' for Inactive)
REMARK    1  A    between atoms: C_2  and  C_3 
ROOT
HETATM    1  C   LIG     1      15.297  31.718  15.278  1.00  0.00    -0.053 A 
HETATM    2  C   LIG     1      15.686  31.010  14.126  1.00  0.00     0.007 A 
HETATM    3  C   LIG     1      14.936  29.925  13.670  1.00  0.00     0.001 A 
HETATM    4  C   LIG     1      13.788  29.532  14.355  1.00  0.00     0.001 A 
HETATM    5  C   LIG     1      13.382  30.225  15.496  1.00  0.00     0.007 A 
HETATM    6  C   LIG     1      14.119  31.327  15.966  1.00  0.00    -0.056 A 
HETATM    7  C   LIG     1      13.642  32.050  17.199  1.00  0.00     0.049 C 
ENDROOT
BRANCH   1   8
HETATM    8  C   LIG     1      16.153  32.880  15.730  1.00  0.00     0.034 C 
HETATM    9  C   LIG     1      17.407  32.997  14.870  1.00  0.00     0.010 C 
ENDBRANCH   1   8
TORSDOF 1
ENDMDL
MODEL 15
REMARK VINA RESULT:      -5.4      9.478     10.752
REMARK  1 active torsions:
REMARK  status: ('A' for Active; 'I' for Inactive)
REMARK    1  A    between atoms: C_2  and  C_3 
ROOT
HETATM    1  C   LIG     1      15.426  31.724  15.466  1.00  0.00    -0.053 A 
HETATM    2  C   LIG     1      14.832  32.372  16.564  1.00  0.00     0.007 A 
HETATM    3  C   LIG     1      13.559  32.005  17.004  1.00  0.00     0.001 A 
HETATM    4  C   LIG     1      12.862  30.988  16.356  1.00  0.00     0.001 A 
HETATM    5  C   LIG     1      13.436  30.328  15.269  1.00  0.00     0.007 A 
HETATM    6  C   LIG     1      14.722  30.676  14.817  1.00  0.00    -0.056 A 
HETATM    7  C   LIG     1      15.308  29.935  13.643  1.00  0.00     0.049 C 
ENDROOT
BRANCH   1   8
HETATM    8  C   LIG     1      16.804  32.169  15.030  1.00  0.00     0.034 C 
HETATM    9  C   LIG     1      16.939  33.685  15.120  1.00  0.00     0.010 C 
ENDBRANCH   1   8
TORSDOF 1
ENDMDL
MODEL 16
REMARK VINA RESULT:      -5.3      9.448     11.417
REMARK  1 active torsions:
REMARK  status: ('A' for Active; 'I' for Inactive)
REMARK    1  A    between atoms: C_2  and  C_3 
ROOT
HETATM    1  C   LIG     1      14.704  30.707  14.849  1.00  0.00    -0.053 A 
HETATM    2  C   LIG     1      15.877  31.287  14.332  1.00  0.00     0.007 A 
HETATM    3  C   LIG     1      16.431  32.422  14.926  1.00  0.00     0.001 A 
HETATM    4  C   LIG     1      15.825  32.993  16.043  1.00  0.00     0.001 A 
HETATM    5  C   LIG     1      14.664  32.429  16.575  1.00  0.00     0.007 A 
HETATM    6  C   LIG     1      14.095  31.280  15.996  1.00  0.00    -0.056 A 
HETATM    7  C   LIG     1      12.846  30.700  16.605  1.00  0.00     0.049 C 
ENDROOT
BRANCH   1   8
HETATM    8  C   LIG     1      14.144  29.483  14.159  1.00  0.00     0.034 C 
HETATM    9  C   LIG     1      15.259  28.507  13.798  1.00  0.00     0.010 C 
ENDBRANCH   1   8
TORSDOF 1
ENDMDL
MODEL 17
REMARK VINA RESULT:      -5.3      8.792     11.272
REMARK  1 active torsions:
REMARK  status: ('A' for Active; 'I' for Inactive)
REMARK    1  A    between atoms: C_2  and  C_3 
ROOT
HETATM    1  C   LIG     1      14.604  31.354  15.709  1.00  0.00    -0.053 A 
HETATM    2  C   LIG     1      15.553  32.393  15.723  1.00  0.00     0.007 A 
HETATM    3  C   LIG     1      16.381  32.616  14.621  1.00  0.00     0.001 A 
HETATM    4  C   LIG     1      16.274  31.808  13.492  1.00  0.00     0.001 A 
HETATM    5  C   LIG     1      15.335  30.776  13.456  1.00  0.00     0.007 A 
HETATM    6  C   LIG     1      14.485  30.541  14.552  1.00  0.00    -0.056 A 
HETATM    7  C   LIG     1      13.482  29.420  14.469  1.00  0.00     0.049 C 
ENDROOT
BRANCH   1   8
HETATM    8  C   LIG     1      13.740  31.155  16.934  1.00  0.00     0.034 C 
HETATM    9  C   LIG     1      14.376  31.805  18.158  1.00  0.00     0.010 C 
ENDBRANCH   1   8
TORSDOF 1
ENDMDL
MODEL 18
REMARK VINA RESULT:      -4.9      9.473     11.575
REMARK  1 active torsions:
REMARK  status: ('A' for Active; 'I' for Inactive)
REMARK    1  A    between atoms: C_2  and  C_3 
ROOT
HETATM    1  C   LIG     1      14.727  30.755  14.756  1.00  0.00    -0.053 A 
HETATM    2  C   LIG     1      15.489  31.731  15.425  1.00  0.00     0.007 A 
HETATM    3  C   LIG     1      14.982  32.380  16.552  1.00  0.00     0.001 A 
HETATM    4  C   LIG     1      13.711  32.065  17.028  1.00  0.00     0.001 A 
HETATM    5  C   LIG     1      12.942  31.096  16.382  1.00  0.00     0.007 A 
HETATM    6  C   LIG     1      13.439  30.423  15.251  1.00  0.00    -0.056 A 
HETATM    7  C   LIG     1      12.578  29.380  14.588  1.00  0.00     0.049 C 
ENDROOT
BRANCH   1   8
HETATM    8  C   LIG     1      15.325  30.090  13.537  1.00  0.00     0.034 C 
HETATM    9  C   LIG     1      15.590  28.611  13.800  1.00  0.00     0.010 C 
ENDBRANCH   1   8
TORSDOF 1
ENDMDL
MODEL 19
REMARK VINA RESULT:      -4.8      8.755     11.329
REMARK  1 active torsions:
REMARK  status: ('A' for Active; 'I' for Inactive)
REMARK    1  A    between atoms: C_2  and  C_3 
ROOT
HETATM    1  C   LIG     1      14.855  31.261  15.201  1.00  0.00    -0.053 A 
HETATM    2  C   LIG     1      15.418  31.115  13.920  1.00  0.00     0.007 A 
HETATM    3  C   LIG     1      16.433  31.969  13.486  1.00  0.00     0.001 A 
HETATM    4  C   LIG     1      16.902  32.980  14.324  1.00  0.00     0.001 A 
HETATM    5  C   LIG     1      16.361  33.137  15.600  1.00  0.00     0.007 A 
HETATM    6  C   LIG     1      15.344  32.280  16.060  1.00  0.00    -0.056 A 
HETATM    7  C   LIG     1      14.793  32.482  17.447  1.00  0.00     0.049 C 
ENDROOT
BRANCH   1   8
HETATM    8  C   LIG     1      13.753  30.312  15.613  1.00  0.00     0.034 C 
HETATM    9  C   LIG     1      13.295  29.465  14.430  1.00  0.00     0.010 C 
ENDBRANCH   1   8
TORSDOF 1
ENDMDL
