MODEL 1
REMARK VINA RESULT:      -7.9      0.000      0.000
REMARK  1 active torsions:
REMARK  status: ('A' for Active; 'I' for Inactive)
REMARK    1  A    between atoms: N_1  and  C_2 
ROOT
HETATM    1  C   LIG     1      17.160  35.806  25.236  1.00  0.00     0.026 A 
HETATM    2  C   LIG     1      17.288  35.502  23.873  1.00  0.00     0.041 A 
HETATM    3  C   LIG     1      17.657  36.499  22.957  1.00  0.00    -0.023 A 
HETATM    4  C   LIG     1      17.786  36.199  21.592  1.00  0.00     0.024 A 
HETATM    5  C   LIG     1      18.154  37.198  20.679  1.00  0.00    -0.025 A 
HETATM    6  C   LIG     1      18.284  36.903  19.313  1.00  0.00     0.012 A 
HETATM    7  C   LIG     1      18.653  37.904  18.410  1.00  0.00     0.001 A 
HETATM    8  C   LIG     1      18.893  39.204  18.862  1.00  0.00     0.001 A 
HETATM    9  C   LIG     1      18.767  39.512  20.218  1.00  0.00     0.012 A 
HETATM   10  C   LIG     1      18.398  38.516  21.137  1.00  0.00    -0.025 A 
HETATM   11  C   LIG     1      18.270  38.816  22.501  1.00  0.00     0.024 A 
HETATM   12  C   LIG     1      17.901  37.816  23.413  1.00  0.00    -0.025 A 
HETATM   13  C   LIG     1      17.771  38.112  24.779  1.00  0.00     0.014 A 
HETATM   14  C   LIG     1      17.403  37.112  25.683  1.00  0.00     0.030 A 
ENDROOT
BRANCH   1  15
HETATM   15  N   LIG     1      16.784  34.787  26.167  1.00  0.00    -0.399 N 
HETATM   16  H   LIG     1      15.782  34.631  26.415  1.00  0.00     0.156 HD
HETATM   17  H   LIG     1      17.507  34.180  26.616  1.00  0.00     0.156 HD
ENDBRANCH   1  15
TORSDOF 1
ENDMDL
MODEL 2
REMARK VINA RESULT:      -7.7      2.684      5.770
REMARK  1 active torsions:
REMARK  status: ('A' for Active; 'I' for Inactive)
REMARK    1  A    between atoms: N_1  and  C_2 
ROOT
HETATM    1  C   LIG     1      19.067  38.881  18.601  1.00  0.00     0.026 A 
HETATM    2  C   LIG     1      18.953  39.342  19.920  1.00  0.00     0.041 A 
HETATM    3  C   LIG     1      18.501  38.483  20.934  1.00  0.00    -0.023 A 
HETATM    4  C   LIG     1      18.385  38.940  22.256  1.00  0.00     0.024 A 
HETATM    5  C   LIG     1      17.932  38.079  23.266  1.00  0.00    -0.025 A 
HETATM    6  C   LIG     1      17.815  38.533  24.590  1.00  0.00     0.012 A 
HETATM    7  C   LIG     1      17.364  37.667  25.591  1.00  0.00     0.001 A 
HETATM    8  C   LIG     1      17.027  36.347  25.280  1.00  0.00     0.001 A 
HETATM    9  C   LIG     1      17.139  35.883  23.967  1.00  0.00     0.012 A 
HETATM   10  C   LIG     1      17.591  36.741  22.951  1.00  0.00    -0.025 A 
HETATM   11  C   LIG     1      17.707  36.284  21.630  1.00  0.00     0.024 A 
HETATM   12  C   LIG     1      18.160  37.146  20.621  1.00  0.00    -0.025 A 
HETATM   13  C   LIG     1      18.277  36.692  19.297  1.00  0.00     0.014 A 
HETATM   14  C   LIG     1      18.727  37.556  18.296  1.00  0.00     0.030 A 
ENDROOT
BRANCH   1  15
HETATM   15  N   LIG     1      19.528  39.759  17.571  1.00  0.00    -0.399 N 
HETATM   16  H   LIG     1      18.921  40.529  17.212  1.00  0.00     0.156 HD
HETATM   17  H   LIG     1      20.481  39.646  17.159  1.00  0.00     0.156 HD
ENDBRANCH   1  15
TORSDOF 1
ENDMDL
MODEL 3
REMARK VINA RESULT:      -7.4      0.672      2.146
REMARK  1 active torsions:
REMARK  status: ('A' for Active; 'I' for Inactive)
REMARK    1  A    between atoms: N_1  and  C_2 
ROOT
HETATM    1  C   LIG     1      17.437  36.533  25.381  1.00  0.00     0.026 A 
HETATM    2  C   LIG     1      17.879  37.619  24.612  1.00  0.00     0.041 A 
HETATM    3  C   LIG     1      17.978  37.505  23.217  1.00  0.00    -0.023 A 
HETATM    4  C   LIG     1      18.421  38.590  22.443  1.00  0.00     0.024 A 
HETATM    5  C   LIG     1      18.519  38.472  21.049  1.00  0.00    -0.025 A 
HETATM    6  C   LIG     1      18.961  39.554  20.271  1.00  0.00     0.012 A 
HETATM    7  C   LIG     1      19.054  39.428  18.882  1.00  0.00     0.001 A 
HETATM    8  C   LIG     1      18.709  38.226  18.260  1.00  0.00     0.001 A 
HETATM    9  C   LIG     1      18.267  37.141  19.022  1.00  0.00     0.012 A 
HETATM   10  C   LIG     1      18.168  37.253  20.419  1.00  0.00    -0.025 A 
HETATM   11  C   LIG     1      17.726  36.169  21.191  1.00  0.00     0.024 A 
HETATM   12  C   LIG     1      17.628  36.288  22.586  1.00  0.00    -0.025 A 
HETATM   13  C   LIG     1      17.186  35.206  23.363  1.00  0.00     0.014 A 
HETATM   14  C   LIG     1      17.092  35.330  24.751  1.00  0.00     0.030 A 
ENDROOT
BRANCH   1  15
HETATM   15  N   LIG     1      17.338  36.654  26.803  1.00  0.00    -0.399 N 
HETATM   16  H   LIG     1      16.556  36.200  27.325  1.00  0.00     0.156 HD
HETATM   17  H   LIG     1      18.046  37.198  27.344  1.00  0.00     0.156 HD
ENDBRANCH   1  15
TORSDOF 1
ENDMDL
MODEL 4
REMARK VINA RESULT:      -7.0      2.447      5.327
REMARK  1 active torsions:
REMARK  status: ('A' for Active; 'I' for Inactive)
REMARK    1  A    between atoms: N_1  and  C_2 
ROOT
HETATM    1  C   LIG     1      18.438  38.284  19.598  1.00  0.00     0.026 A 
HETATM    2  C   LIG     1      18.054  37.139  20.309  1.00  0.00     0.041 A 
HETATM    3  C   LIG     1      17.994  37.161  21.711  1.00  0.00    -0.023 A 
HETATM    4  C   LIG     1      17.611  36.016  22.426  1.00  0.00     0.024 A 
HETATM    5  C   LIG     1      17.553  36.042  23.826  1.00  0.00    -0.025 A 
HETATM    6  C   LIG     1      17.170  34.899  24.546  1.00  0.00     0.012 A 
HETATM    7  C   LIG     1      17.114  34.934  25.943  1.00  0.00     0.001 A 
HETATM    8  C   LIG     1      17.440  36.106  26.630  1.00  0.00     0.001 A 
HETATM    9  C   LIG     1      17.822  37.251  25.926  1.00  0.00     0.012 A 
HETATM   10  C   LIG     1      17.883  37.230  24.523  1.00  0.00    -0.025 A 
HETATM   11  C   LIG     1      18.266  38.375  23.809  1.00  0.00     0.024 A 
HETATM   12  C   LIG     1      18.323  38.348  22.408  1.00  0.00    -0.025 A 
HETATM   13  C   LIG     1      18.706  39.491  21.689  1.00  0.00     0.014 A 
HETATM   14  C   LIG     1      18.763  39.457  20.293  1.00  0.00     0.030 A 
ENDROOT
BRANCH   1  15
HETATM   15  N   LIG     1      18.497  38.257  18.169  1.00  0.00    -0.399 N 
HETATM   16  H   LIG     1      19.381  38.492  17.665  1.00  0.00     0.156 HD
HETATM   17  H   LIG     1      17.656  38.003  17.604  1.00  0.00     0.156 HD
ENDBRANCH   1  15
TORSDOF 1
ENDMDL
MODEL 5
REMARK VINA RESULT:      -6.8      2.719      5.247
REMARK  1 active torsions:
REMARK  status: ('A' for Active; 'I' for Inactive)
REMARK    1  A    between atoms: N_1  and  C_2 
ROOT
HETATM    1  C   LIG     1      15.889  34.411  20.195  1.00  0.00     0.026 A 
HETATM    2  C   LIG     1      16.144  34.038  21.523  1.00  0.00     0.041 A 
HETATM    3  C   LIG     1      16.662  34.970  22.435  1.00  0.00    -0.023 A 
HETATM    4  C   LIG     1      16.919  34.600  23.764  1.00  0.00     0.024 A 
HETATM    5  C   LIG     1      17.437  35.534  24.672  1.00  0.00    -0.025 A 
HETATM    6  C   LIG     1      17.695  35.168  26.003  1.00  0.00     0.012 A 
HETATM    7  C   LIG     1      18.211  36.106  26.902  1.00  0.00     0.001 A 
HETATM    8  C   LIG     1      18.473  37.413  26.481  1.00  0.00     0.001 A 
HETATM    9  C   LIG     1      18.220  37.790  25.160  1.00  0.00     0.012 A 
HETATM   10  C   LIG     1      17.702  36.859  24.246  1.00  0.00    -0.025 A 
HETATM   11  C   LIG     1      17.445  37.229  22.918  1.00  0.00     0.024 A 
HETATM   12  C   LIG     1      16.927  36.294  22.010  1.00  0.00    -0.025 A 
HETATM   13  C   LIG     1      16.669  36.660  20.680  1.00  0.00     0.014 A 
HETATM   14  C   LIG     1      16.154  35.724  19.780  1.00  0.00     0.030 A 
ENDROOT
BRANCH   1  15
HETATM   15  N   LIG     1      15.361  33.458  19.269  1.00  0.00    -0.399 N 
HETATM   16  H   LIG     1      15.858  33.247  18.376  1.00  0.00     0.156 HD
HETATM   17  H   LIG     1      14.467  32.957  19.470  1.00  0.00     0.156 HD
ENDBRANCH   1  15
TORSDOF 1
ENDMDL
MODEL 6
REMARK VINA RESULT:      -6.8      9.294     11.235
REMARK  1 active torsions:
REMARK  status: ('A' for Active; 'I' for Inactive)
REMARK    1  A    between atoms: N_1  and  C_2 
ROOT
HETATM    1  C   LIG     1      15.132  33.397  16.653  1.00  0.00     0.026 A 
HETATM    2  C   LIG     1      15.767  32.477  15.807  1.00  0.00     0.041 A 
HETATM    3  C   LIG     1      15.079  31.345  15.345  1.00  0.00    -0.023 A 
HETATM    4  C   LIG     1      15.712  30.422  14.498  1.00  0.00     0.024 A 
HETATM    5  C   LIG     1      15.020  29.292  14.040  1.00  0.00    -0.025 A 
HETATM    6  C   LIG     1      15.649  28.365  13.193  1.00  0.00     0.012 A 
HETATM    7  C   LIG     1      14.952  27.241  12.739  1.00  0.00     0.001 A 
HETATM    8  C   LIG     1      13.626  27.033  13.128  1.00  0.00     0.001 A 
HETATM    9  C   LIG     1      12.988  27.946  13.971  1.00  0.00     0.012 A 
HETATM   10  C   LIG     1      13.676  29.080  14.433  1.00  0.00    -0.025 A 
HETATM   11  C   LIG     1      13.043  30.002  15.280  1.00  0.00     0.024 A 
HETATM   12  C   LIG     1      13.736  31.133  15.738  1.00  0.00    -0.025 A 
HETATM   13  C   LIG     1      13.106  32.058  16.585  1.00  0.00     0.014 A 
HETATM   14  C   LIG     1      13.802  33.182  17.039  1.00  0.00     0.030 A 
ENDROOT
BRANCH   1  15
HETATM   15  N   LIG     1      15.837  34.550  17.120  1.00  0.00    -0.399 N 
HETATM   16  H   LIG     1      15.340  35.454  17.276  1.00  0.00     0.156 HD
HETATM   17  H   LIG     1      16.863  34.507  17.314  1.00  0.00     0.156 HD
ENDBRANCH   1  15
TORSDOF 1
ENDMDL
MODEL 7
REMARK VINA RESULT:      -6.6      3.077      4.890
REMARK  1 active torsions:
REMARK  status: ('A' for Active; 'I' for Inactive)
REMARK    1  A    between atoms: N_1  and  C_2 
ROOT
HETATM    1  C   LIG     1      14.993  32.861  19.962  1.00  0.00     0.026 A 
HETATM    2  C   LIG     1      15.283  33.377  21.233  1.00  0.00     0.041 A 
HETATM    3  C   LIG     1      15.933  34.614  21.365  1.00  0.00    -0.023 A 
HETATM    4  C   LIG     1      16.226  35.133  22.636  1.00  0.00     0.024 A 
HETATM    5  C   LIG     1      16.876  36.369  22.762  1.00  0.00    -0.025 A 
HETATM    6  C   LIG     1      17.171  36.892  24.032  1.00  0.00     0.012 A 
HETATM    7  C   LIG     1      17.818  38.126  24.150  1.00  0.00     0.001 A 
HETATM    8  C   LIG     1      18.175  38.844  23.006  1.00  0.00     0.001 A 
HETATM    9  C   LIG     1      17.888  38.335  21.737  1.00  0.00     0.012 A 
HETATM   10  C   LIG     1      17.238  37.097  21.603  1.00  0.00    -0.025 A 
HETATM   11  C   LIG     1      16.945  36.579  20.333  1.00  0.00     0.024 A 
HETATM   12  C   LIG     1      16.295  35.342  20.207  1.00  0.00    -0.025 A 
HETATM   13  C   LIG     1      16.000  34.820  18.938  1.00  0.00     0.014 A 
HETATM   14  C   LIG     1      15.353  33.587  18.819  1.00  0.00     0.030 A 
ENDROOT
BRANCH   1  15
HETATM   15  N   LIG     1      14.330  31.600  19.833  1.00  0.00    -0.399 N 
HETATM   16  H   LIG     1      14.533  30.818  20.494  1.00  0.00     0.156 HD
HETATM   17  H   LIG     1      13.631  31.439  19.073  1.00  0.00     0.156 HD
ENDBRANCH   1  15
TORSDOF 1
ENDMDL
MODEL 8
REMARK VINA RESULT:      -6.5      2.921      4.013
REMARK  1 active torsions:
REMARK  status: ('A' for Active; 'I' for Inactive)
REMARK    1  A    between atoms: N_1  and  C_2 
ROOT
HETATM    1  C   LIG     1      15.113  33.433  19.993  1.00  0.00     0.026 A 
HETATM    2  C   LIG     1      16.067  34.282  19.416  1.00  0.00     0.041 A 
HETATM    3  C   LIG     1      16.567  35.379  20.135  1.00  0.00    -0.023 A 
HETATM    4  C   LIG     1      17.522  36.232  19.560  1.00  0.00     0.024 A 
HETATM    5  C   LIG     1      18.019  37.326  20.282  1.00  0.00    -0.025 A 
HETATM    6  C   LIG     1      18.975  38.183  19.711  1.00  0.00     0.012 A 
HETATM    7  C   LIG     1      19.465  39.272  20.438  1.00  0.00     0.001 A 
HETATM    8  C   LIG     1      19.007  39.514  21.736  1.00  0.00     0.001 A 
HETATM    9  C   LIG     1      18.057  38.671  22.316  1.00  0.00     0.012 A 
HETATM   10  C   LIG     1      17.555  37.573  21.598  1.00  0.00    -0.025 A 
HETATM   11  C   LIG     1      16.601  36.720  22.172  1.00  0.00     0.024 A 
HETATM   12  C   LIG     1      16.105  35.625  21.450  1.00  0.00    -0.025 A 
HETATM   13  C   LIG     1      15.149  34.770  22.021  1.00  0.00     0.014 A 
HETATM   14  C   LIG     1      14.658  33.682  21.295  1.00  0.00     0.030 A 
ENDROOT
BRANCH   1  15
HETATM   15  N   LIG     1      14.606  32.316  19.257  1.00  0.00    -0.399 N 
HETATM   16  H   LIG     1      13.873  31.695  19.664  1.00  0.00     0.156 HD
HETATM   17  H   LIG     1      14.962  32.102  18.299  1.00  0.00     0.156 HD
ENDBRANCH   1  15
TORSDOF 1
ENDMDL
MODEL 9
REMARK VINA RESULT:      -6.5      2.926      5.387
REMARK  1 active torsions:
REMARK  status: ('A' for Active; 'I' for Inactive)
REMARK    1  A    between atoms: N_1  and  C_2 
ROOT
HETATM    1  C   LIG     1      15.710  34.654  19.066  1.00  0.00     0.026 A 
HETATM    2  C   LIG     1      16.245  35.821  19.630  1.00  0.00     0.041 A 
HETATM    3  C   LIG     1      16.537  35.876  21.002  1.00  0.00    -0.023 A 
HETATM    4  C   LIG     1      17.072  37.042  21.570  1.00  0.00     0.024 A 
HETATM    5  C   LIG     1      17.362  37.093  22.941  1.00  0.00    -0.025 A 
HETATM    6  C   LIG     1      17.897  38.258  23.514  1.00  0.00     0.012 A 
HETATM    7  C   LIG     1      18.185  38.300  24.882  1.00  0.00     0.001 A 
HETATM    8  C   LIG     1      17.941  37.183  25.685  1.00  0.00     0.001 A 
HETATM    9  C   LIG     1      17.409  36.018  25.128  1.00  0.00     0.012 A 
HETATM   10  C   LIG     1      17.115  35.961  23.756  1.00  0.00    -0.025 A 
HETATM   11  C   LIG     1      16.581  34.795  23.188  1.00  0.00     0.024 A 
HETATM   12  C   LIG     1      16.291  34.746  21.817  1.00  0.00    -0.025 A 
HETATM   13  C   LIG     1      15.756  33.581  21.245  1.00  0.00     0.014 A 
HETATM   14  C   LIG     1      15.468  33.538  19.878  1.00  0.00     0.030 A 
ENDROOT
BRANCH   1  15
HETATM   15  N   LIG     1      15.414  34.603  17.668  1.00  0.00    -0.399 N 
HETATM   16  H   LIG     1      15.473  35.461  17.076  1.00  0.00     0.156 HD
HETATM   17  H   LIG     1      15.132  33.705  17.214  1.00  0.00     0.156 HD
ENDBRANCH   1  15
TORSDOF 1
ENDMDL
MODEL 10
REMARK VINA RESULT:      -6.3      9.024     11.080
REMARK  1 active torsions:
REMARK  status: ('A' for Active; 'I' for Inactive)
REMARK    1  A    between atoms: N_1  and  C_2 
ROOT
HETATM    1  C   LIG     1      15.058  33.611  16.734  1.00  0.00     0.026 A 
HETATM    2  C   LIG     1      14.110  32.600  16.526  1.00  0.00     0.041 A 
HETATM    3  C   LIG     1      14.403  31.515  15.685  1.00  0.00    -0.023 A 
HETATM    4  C   LIG     1      13.457  30.501  15.473  1.00  0.00     0.024 A 
HETATM    5  C   LIG     1      13.754  29.420  14.631  1.00  0.00    -0.025 A 
HETATM    6  C   LIG     1      12.810  28.402  14.417  1.00  0.00     0.012 A 
HETATM    7  C   LIG     1      13.115  27.327  13.577  1.00  0.00     0.001 A 
HETATM    8  C   LIG     1      14.359  27.260  12.945  1.00  0.00     0.001 A 
HETATM    9  C   LIG     1      15.308  28.265  13.149  1.00  0.00     0.012 A 
HETATM   10  C   LIG     1      15.016  29.351  13.991  1.00  0.00    -0.025 A 
HETATM   11  C   LIG     1      15.962  30.365  14.202  1.00  0.00     0.024 A 
HETATM   12  C   LIG     1      15.664  31.446  15.045  1.00  0.00    -0.025 A 
HETATM   13  C   LIG     1      16.607  32.462  15.258  1.00  0.00     0.014 A 
HETATM   14  C   LIG     1      16.304  33.537  16.098  1.00  0.00     0.030 A 
ENDROOT
BRANCH   1  15
HETATM   15  N   LIG     1      14.755  34.714  17.593  1.00  0.00    -0.399 N 
HETATM   16  H   LIG     1      14.788  35.695  17.237  1.00  0.00     0.156 HD
HETATM   17  H   LIG     1      14.495  34.557  18.593  1.00  0.00     0.156 HD
ENDBRANCH   1  15
TORSDOF 1
ENDMDL
MODEL 11
REMARK VINA RESULT:      -6.2      3.296      5.135
REMARK  1 active torsions:
REMARK  status: ('A' for Active; 'I' for Inactive)
REMARK    1  A    between atoms: N_1  and  C_2 
ROOT
HETATM    1  C   LIG     1      15.354  33.631  18.891  1.00  0.00     0.026 A 
HETATM    2  C   LIG     1      16.009  34.864  19.019  1.00  0.00     0.041 A 
HETATM    3  C   LIG     1      16.307  35.380  20.290  1.00  0.00    -0.023 A 
HETATM    4  C   LIG     1      16.962  36.614  20.423  1.00  0.00     0.024 A 
HETATM    5  C   LIG     1      17.256  37.125  21.695  1.00  0.00    -0.025 A 
HETATM    6  C   LIG     1      17.912  38.360  21.833  1.00  0.00     0.012 A 
HETATM    7  C   LIG     1      18.203  38.862  23.105  1.00  0.00     0.001 A 
HETATM    8  C   LIG     1      17.843  38.140  24.245  1.00  0.00     0.001 A 
HETATM    9  C   LIG     1      17.191  36.911  24.123  1.00  0.00     0.012 A 
HETATM   10  C   LIG     1      16.892  36.393  22.851  1.00  0.00    -0.025 A 
HETATM   11  C   LIG     1      16.237  35.160  22.719  1.00  0.00     0.024 A 
HETATM   12  C   LIG     1      15.943  34.649  21.446  1.00  0.00    -0.025 A 
HETATM   13  C   LIG     1      15.288  33.415  21.309  1.00  0.00     0.014 A 
HETATM   14  C   LIG     1      14.996  32.912  20.039  1.00  0.00     0.030 A 
ENDROOT
BRANCH   1  15
HETATM   15  N   LIG     1      15.054  33.110  17.593  1.00  0.00    -0.399 N 
HETATM   16  H   LIG     1      14.083  32.815  17.347  1.00  0.00     0.156 HD
HETATM   17  H   LIG     1      15.801  33.013  16.870  1.00  0.00     0.156 HD
ENDBRANCH   1  15
TORSDOF 1
ENDMDL
MODEL 12
REMARK VINA RESULT:      -6.0      3.248      5.174
REMARK  1 active torsions:
REMARK  status: ('A' for Active; 'I' for Inactive)
REMARK    1  A    between atoms: N_1  and  C_2 
ROOT
HETATM    1  C   LIG     1      19.729  38.850  19.613  1.00  0.00     0.026 A 
HETATM    2  C   LIG     1      19.092  37.709  19.105  1.00  0.00     0.041 A 
HETATM    3  C   LIG     1      18.118  37.044  19.866  1.00  0.00    -0.023 A 
HETATM    4  C   LIG     1      17.478  35.901  19.361  1.00  0.00     0.024 A 
HETATM    5  C   LIG     1      16.506  35.239  20.125  1.00  0.00    -0.025 A 
HETATM    6  C   LIG     1      15.863  34.095  19.624  1.00  0.00     0.012 A 
HETATM    7  C   LIG     1      14.894  33.441  20.391  1.00  0.00     0.001 A 
HETATM    8  C   LIG     1      14.561  33.922  21.660  1.00  0.00     0.001 A 
HETATM    9  C   LIG     1      15.192  35.059  22.170  1.00  0.00     0.012 A 
HETATM   10  C   LIG     1      16.167  35.726  21.411  1.00  0.00    -0.025 A 
HETATM   11  C   LIG     1      16.806  36.868  21.915  1.00  0.00     0.024 A 
HETATM   12  C   LIG     1      17.778  37.530  21.151  1.00  0.00    -0.025 A 
HETATM   13  C   LIG     1      18.420  38.673  21.652  1.00  0.00     0.014 A 
HETATM   14  C   LIG     1      19.389  39.327  20.886  1.00  0.00     0.030 A 
ENDROOT
BRANCH   1  15
HETATM   15  N   LIG     1      20.720  39.525  18.834  1.00  0.00    -0.399 N 
HETATM   16  H   LIG     1      21.586  39.903  19.281  1.00  0.00     0.156 HD
HETATM   17  H   LIG     1      20.596  39.653  17.805  1.00  0.00     0.156 HD
ENDBRANCH   1  15
TORSDOF 1
ENDMDL
MODEL 13
REMARK VINA RESULT:      -5.9      4.484      6.399
REMARK  1 active torsions:
REMARK  status: ('A' for Active; 'I' for Inactive)
REMARK    1  A    between atoms: N_1  and  C_2 
ROOT
HETATM    1  C   LIG     1      14.323  31.973  17.744  1.00  0.00     0.026 A 
HETATM    2  C   LIG     1      14.643  32.115  19.102  1.00  0.00     0.041 A 
HETATM    3  C   LIG     1      15.256  33.289  19.567  1.00  0.00    -0.023 A 
HETATM    4  C   LIG     1      15.579  33.434  20.925  1.00  0.00     0.024 A 
HETATM    5  C   LIG     1      16.191  34.608  21.386  1.00  0.00    -0.025 A 
HETATM    6  C   LIG     1      16.516  34.758  22.744  1.00  0.00     0.012 A 
HETATM    7  C   LIG     1      17.126  35.933  23.195  1.00  0.00     0.001 A 
HETATM    8  C   LIG     1      17.417  36.963  22.297  1.00  0.00     0.001 A 
HETATM    9  C   LIG     1      17.100  36.827  20.943  1.00  0.00     0.012 A 
HETATM   10  C   LIG     1      16.486  35.653  20.476  1.00  0.00    -0.025 A 
HETATM   11  C   LIG     1      16.164  35.508  19.119  1.00  0.00     0.024 A 
HETATM   12  C   LIG     1      15.551  34.333  18.659  1.00  0.00    -0.025 A 
HETATM   13  C   LIG     1      15.227  34.184  17.301  1.00  0.00     0.014 A 
HETATM   14  C   LIG     1      14.618  33.011  16.849  1.00  0.00     0.030 A 
ENDROOT
BRANCH   1  15
HETATM   15  N   LIG     1      13.698  30.776  17.275  1.00  0.00    -0.399 N 
HETATM   16  H   LIG     1      12.998  30.805  16.501  1.00  0.00     0.156 HD
HETATM   17  H   LIG     1      13.931  29.850  17.699  1.00  0.00     0.156 HD
ENDBRANCH   1  15
TORSDOF 1
ENDMDL
MODEL 14
REMARK VINA RESULT:      -5.8      3.599      4.974
REMARK  1 active torsions:
REMARK  status: ('A' for Active; 'I' for Inactive)
REMARK    1  A    between atoms: N_1  and  C_2 
ROOT
HETATM    1  C   LIG     1      17.487  37.372  22.582  1.00  0.00     0.026 A 
HETATM    2  C   LIG     1      17.149  37.145  21.240  1.00  0.00     0.041 A 
HETATM    3  C   LIG     1      16.604  35.914  20.844  1.00  0.00    -0.023 A 
HETATM    4  C   LIG     1      16.266  35.683  19.502  1.00  0.00     0.024 A 
HETATM    5  C   LIG     1      15.722  34.451  19.111  1.00  0.00    -0.025 A 
HETATM    6  C   LIG     1      15.382  34.216  17.768  1.00  0.00     0.012 A 
HETATM    7  C   LIG     1      14.839  32.985  17.387  1.00  0.00     0.001 A 
HETATM    8  C   LIG     1      14.632  31.983  18.338  1.00  0.00     0.001 A 
HETATM    9  C   LIG     1      14.966  32.204  19.677  1.00  0.00     0.012 A 
HETATM   10  C   LIG     1      15.512  33.435  20.075  1.00  0.00    -0.025 A 
HETATM   11  C   LIG     1      15.850  33.665  21.416  1.00  0.00     0.024 A 
HETATM   12  C   LIG     1      16.394  34.898  21.807  1.00  0.00    -0.025 A 
HETATM   13  C   LIG     1      16.734  35.133  23.148  1.00  0.00     0.014 A 
HETATM   14  C   LIG     1      17.277  36.362  23.531  1.00  0.00     0.030 A 
ENDROOT
BRANCH   1  15
HETATM   15  N   LIG     1      18.042  38.628  22.980  1.00  0.00    -0.399 N 
HETATM   16  H   LIG     1      18.806  39.075  22.428  1.00  0.00     0.156 HD
HETATM   17  H   LIG     1      17.692  39.120  23.833  1.00  0.00     0.156 HD
ENDBRANCH   1  15
TORSDOF 1
ENDMDL
MODEL 15
REMARK VINA RESULT:      -5.5      8.061      9.321
REMARK  1 active torsions:
REMARK  status: ('A' for Active; 'I' for Inactive)
REMARK    1  A    between atoms: N_1  and  C_2 
ROOT
HETATM    1  C   LIG     1      13.471  30.948  16.424  1.00  0.00     0.026 A 
HETATM    2  C   LIG     1      14.186  30.840  15.224  1.00  0.00     0.041 A 
HETATM    3  C   LIG     1      15.247  31.716  14.949  1.00  0.00    -0.023 A 
HETATM    4  C   LIG     1      15.966  31.611  13.748  1.00  0.00     0.024 A 
HETATM    5  C   LIG     1      17.025  32.489  13.477  1.00  0.00    -0.025 A 
HETATM    6  C   LIG     1      17.746  32.387  12.276  1.00  0.00     0.012 A 
HETATM    7  C   LIG     1      18.802  33.265  12.015  1.00  0.00     0.001 A 
HETATM    8  C   LIG     1      19.144  34.250  12.946  1.00  0.00     0.001 A 
HETATM    9  C   LIG     1      18.435  34.362  14.144  1.00  0.00     0.012 A 
HETATM   10  C   LIG     1      17.372  33.486  14.420  1.00  0.00    -0.025 A 
HETATM   11  C   LIG     1      16.655  33.592  15.621  1.00  0.00     0.024 A 
HETATM   12  C   LIG     1      15.595  32.713  15.891  1.00  0.00    -0.025 A 
HETATM   13  C   LIG     1      14.875  32.815  17.091  1.00  0.00     0.014 A 
HETATM   14  C   LIG     1      13.819  31.938  17.354  1.00  0.00     0.030 A 
ENDROOT
BRANCH   1  15
HETATM   15  N   LIG     1      12.390  30.053  16.701  1.00  0.00    -0.399 N 
HETATM   16  H   LIG     1      11.491  30.121  16.175  1.00  0.00     0.156 HD
HETATM   17  H   LIG     1      12.482  29.315  17.434  1.00  0.00     0.156 HD
ENDBRANCH   1  15
TORSDOF 1
ENDMDL
MODEL 16
REMARK VINA RESULT:      -5.3     16.806     18.052
REMARK  1 active torsions:
REMARK  status: ('A' for Active; 'I' for Inactive)
REMARK    1  A    between atoms: N_1  and  C_2 
ROOT
HETATM    1  C   LIG     1      27.348  27.703  32.092  1.00  0.00     0.026 A 
HETATM    2  C   LIG     1      26.528  28.088  33.163  1.00  0.00     0.041 A 
HETATM    3  C   LIG     1      26.986  29.021  34.106  1.00  0.00    -0.023 A 
HETATM    4  C   LIG     1      26.168  29.408  35.179  1.00  0.00     0.024 A 
HETATM    5  C   LIG     1      26.629  30.340  36.120  1.00  0.00    -0.025 A 
HETATM    6  C   LIG     1      25.814  30.730  37.195  1.00  0.00     0.012 A 
HETATM    7  C   LIG     1      26.281  31.661  38.128  1.00  0.00     0.001 A 
HETATM    8  C   LIG     1      27.560  32.208  37.996  1.00  0.00     0.001 A 
HETATM    9  C   LIG     1      28.381  31.829  36.931  1.00  0.00     0.012 A 
HETATM   10  C   LIG     1      27.925  30.895  35.986  1.00  0.00    -0.025 A 
HETATM   11  C   LIG     1      28.742  30.508  34.913  1.00  0.00     0.024 A 
HETATM   12  C   LIG     1      28.281  29.576  33.973  1.00  0.00    -0.025 A 
HETATM   13  C   LIG     1      29.095  29.186  32.898  1.00  0.00     0.014 A 
HETATM   14  C   LIG     1      28.630  28.256  31.965  1.00  0.00     0.030 A 
ENDROOT
BRANCH   1  15
HETATM   15  N   LIG     1      26.878  26.752  31.133  1.00  0.00    -0.399 N 
HETATM   16  H   LIG     1      27.535  26.077  30.683  1.00  0.00     0.156 HD
HETATM   17  H   LIG     1      25.869  26.717  30.865  1.00  0.00     0.156 HD
ENDBRANCH   1  15
TORSDOF 1
ENDMDL
MODEL 17
REMARK VINA RESULT:      -5.2      6.608      8.240
REMARK  1 active torsions:
REMARK  status: ('A' for Active; 'I' for Inactive)
REMARK    1  A    between atoms: N_1  and  C_2 
ROOT
HETATM    1  C   LIG     1      15.331  33.727  20.227  1.00  0.00     0.026 A 
HETATM    2  C   LIG     1      15.748  33.928  18.904  1.00  0.00     0.041 A 
HETATM    3  C   LIG     1      15.428  32.990  17.910  1.00  0.00    -0.023 A 
HETATM    4  C   LIG     1      15.845  33.187  16.584  1.00  0.00     0.024 A 
HETATM    5  C   LIG     1      15.524  32.248  15.594  1.00  0.00    -0.025 A 
HETATM    6  C   LIG     1      15.939  32.440  14.266  1.00  0.00     0.012 A 
HETATM    7  C   LIG     1      15.613  31.499  13.285  1.00  0.00     0.001 A 
HETATM    8  C   LIG     1      14.874  30.362  13.620  1.00  0.00     0.001 A 
HETATM    9  C   LIG     1      14.455  30.157  14.937  1.00  0.00     0.012 A 
HETATM   10  C   LIG     1      14.774  31.095  15.933  1.00  0.00    -0.025 A 
HETATM   11  C   LIG     1      14.358  30.898  17.258  1.00  0.00     0.024 A 
HETATM   12  C   LIG     1      14.680  31.838  18.248  1.00  0.00    -0.025 A 
HETATM   13  C   LIG     1      14.265  31.645  19.575  1.00  0.00     0.014 A 
HETATM   14  C   LIG     1      14.589  32.585  20.556  1.00  0.00     0.030 A 
ENDROOT
BRANCH   1  15
HETATM   15  N   LIG     1      15.659  34.686  21.237  1.00  0.00    -0.399 N 
HETATM   16  H   LIG     1      14.938  35.014  21.917  1.00  0.00     0.156 HD
HETATM   17  H   LIG     1      16.625  35.075  21.311  1.00  0.00     0.156 HD
ENDBRANCH   1  15
TORSDOF 1
ENDMDL
MODEL 18
REMARK VINA RESULT:      -5.1     16.878     18.203
REMARK  1 active torsions:
REMARK  status: ('A' for Active; 'I' for Inactive)
REMARK    1  A    between atoms: N_1  and  C_2 
ROOT
HETATM    1  C   LIG     1      28.522  28.102  32.053  1.00  0.00     0.026 A 
HETATM    2  C   LIG     1      29.045  29.018  32.977  1.00  0.00     0.041 A 
HETATM    3  C   LIG     1      28.253  29.488  34.036  1.00  0.00    -0.023 A 
HETATM    4  C   LIG     1      28.773  30.405  34.962  1.00  0.00     0.024 A 
HETATM    5  C   LIG     1      27.978  30.872  36.018  1.00  0.00    -0.025 A 
HETATM    6  C   LIG     1      28.494  31.789  36.948  1.00  0.00     0.012 A 
HETATM    7  C   LIG     1      27.695  32.249  37.999  1.00  0.00     0.001 A 
HETATM    8  C   LIG     1      26.378  31.800  38.129  1.00  0.00     0.001 A 
HETATM    9  C   LIG     1      25.852  30.888  37.212  1.00  0.00     0.012 A 
HETATM   10  C   LIG     1      26.643  30.416  36.151  1.00  0.00    -0.025 A 
HETATM   11  C   LIG     1      26.123  29.500  35.225  1.00  0.00     0.024 A 
HETATM   12  C   LIG     1      26.919  29.033  34.169  1.00  0.00    -0.025 A 
HETATM   13  C   LIG     1      26.403  28.116  33.240  1.00  0.00     0.014 A 
HETATM   14  C   LIG     1      27.200  27.655  32.190  1.00  0.00     0.030 A 
ENDROOT
BRANCH   1  15
HETATM   15  N   LIG     1      29.333  27.626  30.976  1.00  0.00    -0.399 N 
HETATM   16  H   LIG     1      29.602  28.256  30.188  1.00  0.00     0.156 HD
HETATM   17  H   LIG     1      29.670  26.637  30.957  1.00  0.00     0.156 HD
ENDBRANCH   1  15
TORSDOF 1
ENDMDL
MODEL 19
REMARK VINA RESULT:      -5.0      6.442      8.011
REMARK  1 active torsions:
REMARK  status: ('A' for Active; 'I' for Inactive)
REMARK    1  A    between atoms: N_1  and  C_2 
ROOT
HETATM    1  C   LIG     1      14.922  33.643  20.236  1.00  0.00     0.026 A 
HETATM    2  C   LIG     1      14.563  32.518  19.480  1.00  0.00     0.041 A 
HETATM    3  C   LIG     1      14.883  32.449  18.115  1.00  0.00    -0.023 A 
HETATM    4  C   LIG     1      14.524  31.325  17.355  1.00  0.00     0.024 A 
HETATM    5  C   LIG     1      14.845  31.261  15.992  1.00  0.00    -0.025 A 
HETATM    6  C   LIG     1      14.489  30.138  15.227  1.00  0.00     0.012 A 
HETATM    7  C   LIG     1      14.813  30.082  13.868  1.00  0.00     0.001 A 
HETATM    8  C   LIG     1      15.493  31.142  13.264  1.00  0.00     0.001 A 
HETATM    9  C   LIG     1      15.853  32.265  14.012  1.00  0.00     0.012 A 
HETATM   10  C   LIG     1      15.534  32.336  15.378  1.00  0.00    -0.025 A 
HETATM   11  C   LIG     1      15.893  33.459  16.137  1.00  0.00     0.024 A 
HETATM   12  C   LIG     1      15.572  33.522  17.501  1.00  0.00    -0.025 A 
HETATM   13  C   LIG     1      15.928  34.645  18.265  1.00  0.00     0.014 A 
HETATM   14  C   LIG     1      15.604  34.703  19.623  1.00  0.00     0.030 A 
ENDROOT
BRANCH   1  15
HETATM   15  N   LIG     1      14.595  33.708  21.626  1.00  0.00    -0.399 N 
HETATM   16  H   LIG     1      13.915  34.415  21.984  1.00  0.00     0.156 HD
HETATM   17  H   LIG     1      15.033  33.050  22.310  1.00  0.00     0.156 HD
ENDBRANCH   1  15
TORSDOF 1
ENDMDL
MODEL 20
REMARK VINA RESULT:      -4.9     16.152     16.881
REMARK  1 active torsions:
REMARK  status: ('A' for Active; 'I' for Inactive)
REMARK    1  A    between atoms: N_1  and  C_2 
ROOT
HETATM    1  C   LIG     1      24.442  22.248  25.577  1.00  0.00     0.026 A 
HETATM    2  C   LIG     1      24.846  22.805  24.356  1.00  0.00     0.041 A 
HETATM    3  C   LIG     1      24.405  22.252  23.144  1.00  0.00    -0.023 A 
HETATM    4  C   LIG     1      24.808  22.807  21.919  1.00  0.00     0.024 A 
HETATM    5  C   LIG     1      24.366  22.251  20.710  1.00  0.00    -0.025 A 
HETATM    6  C   LIG     1      24.766  22.803  19.483  1.00  0.00     0.012 A 
HETATM    7  C   LIG     1      24.320  22.243  18.282  1.00  0.00     0.001 A 
HETATM    8  C   LIG     1      23.474  21.131  18.297  1.00  0.00     0.001 A 
HETATM    9  C   LIG     1      23.069  20.572  19.511  1.00  0.00     0.012 A 
HETATM   10  C   LIG     1      23.509  21.124  20.725  1.00  0.00    -0.025 A 
HETATM   11  C   LIG     1      23.106  20.569  21.948  1.00  0.00     0.024 A 
HETATM   12  C   LIG     1      23.549  21.126  23.157  1.00  0.00    -0.025 A 
HETATM   13  C   LIG     1      23.148  20.574  24.384  1.00  0.00     0.014 A 
HETATM   14  C   LIG     1      23.594  21.132  25.585  1.00  0.00     0.030 A 
ENDROOT
BRANCH   1  15
HETATM   15  N   LIG     1      24.893  22.815  26.810  1.00  0.00    -0.399 N 
HETATM   16  H   LIG     1      25.164  23.822  26.869  1.00  0.00     0.156 HD
HETATM   17  H   LIG     1      24.960  22.232  27.674  1.00  0.00     0.156 HD
ENDBRANCH   1  15
TORSDOF 1
ENDMDL
