REMARK  1 active torsions:
REMARK  status: ('A' for Active; 'I' for Inactive)
REMARK    1  A    between atoms: N_1  and  C_2 
ROOT
HETATM    1  C   LIG     1      -3.149   0.858  -0.332  1.00  0.00     0.026 A 
HETATM    2  C   LIG     1      -1.883   1.445  -0.197  1.00  0.00     0.041 A 
HETATM    3  C   LIG     1      -0.736   0.642  -0.099  1.00  0.00    -0.023 A 
HETATM    4  C   LIG     1       0.533   1.226   0.037  1.00  0.00     0.024 A 
HETATM    5  C   LIG     1       1.676   0.420   0.135  1.00  0.00    -0.025 A 
HETATM    6  C   LIG     1       2.948   1.000   0.271  1.00  0.00     0.012 A 
HETATM    7  C   LIG     1       4.083   0.189   0.367  1.00  0.00     0.001 A 
HETATM    8  C   LIG     1       3.958  -1.202   0.329  1.00  0.00     0.001 A 
HETATM    9  C   LIG     1       2.699  -1.792   0.194  1.00  0.00     0.012 A 
HETATM   10  C   LIG     1       1.550  -0.990   0.096  1.00  0.00    -0.025 A 
HETATM   11  C   LIG     1       0.282  -1.574  -0.040  1.00  0.00     0.024 A 
HETATM   12  C   LIG     1      -0.861  -0.767  -0.138  1.00  0.00    -0.025 A 
HETATM   13  C   LIG     1      -2.132  -1.347  -0.274  1.00  0.00     0.014 A 
HETATM   14  C   LIG     1      -3.267  -0.538  -0.370  1.00  0.00     0.030 A 
ENDROOT
BRANCH   1  15
HETATM   15  N   LIG     1      -4.315   1.680  -0.432  1.00  0.00    -0.399 N 
HETATM   16  H   LIG     1      -4.240   2.721  -0.405  1.00  0.00     0.156 HD
HETATM   17  H   LIG     1      -5.263   1.253  -0.533  1.00  0.00     0.156 HD
ENDBRANCH   1  15
TORSDOF 1
