REMARK  0 active torsions:
REMARK  status: ('A' for Active; 'I' for Inactive)
ROOT
HETATM    1  C   LIG     1      -4.425   0.993  -0.001  1.00  0.00     0.048 C 
HETATM    2  C   LIG     1      -3.074   0.344   0.070  1.00  0.00    -0.061 A 
HETATM    3  C   LIG     1      -1.905   1.094  -0.136  1.00  0.00     0.019 A 
HETATM    4  C   LIG     1      -0.645   0.478  -0.068  1.00  0.00    -0.025 A 
HETATM    5  C   LIG     1       0.524   1.225  -0.274  1.00  0.00     0.024 A 
HETATM    6  C   LIG     1       1.781   0.605  -0.204  1.00  0.00    -0.025 A 
HETATM    7  C   LIG     1       2.955   1.348  -0.409  1.00  0.00     0.012 A 
HETATM    8  C   LIG     1       4.203   0.723  -0.339  1.00  0.00     0.001 A 
HETATM    9  C   LIG     1       4.290  -0.644  -0.064  1.00  0.00     0.001 A 
HETATM   10  C   LIG     1       3.130  -1.395   0.142  1.00  0.00     0.012 A 
HETATM   11  C   LIG     1       1.869  -0.780   0.074  1.00  0.00    -0.025 A 
HETATM   12  C   LIG     1       0.700  -1.527   0.280  1.00  0.00     0.024 A 
HETATM   13  C   LIG     1      -0.557  -0.907   0.210  1.00  0.00    -0.025 A 
HETATM   14  C   LIG     1      -1.729  -1.650   0.415  1.00  0.00     0.013 A 
HETATM   15  C   LIG     1      -2.978  -1.027   0.345  1.00  0.00     0.007 A 
ENDROOT
TORSDOF 0
