MODEL 1
REMARK VINA RESULT:      -8.1      0.000      0.000
REMARK  0 active torsions:
REMARK  status: ('A' for Active; 'I' for Inactive)
ROOT
HETATM    1  C   LIG     1      16.862  34.647  26.141  1.00  0.00     0.048 C 
HETATM    2  C   LIG     1      17.231  35.731  25.171  1.00  0.00    -0.061 A 
HETATM    3  C   LIG     1      17.361  35.454  23.800  1.00  0.00     0.019 A 
HETATM    4  C   LIG     1      17.706  36.474  22.900  1.00  0.00    -0.025 A 
HETATM    5  C   LIG     1      17.837  36.199  21.530  1.00  0.00     0.024 A 
HETATM    6  C   LIG     1      18.182  37.222  20.634  1.00  0.00    -0.025 A 
HETATM    7  C   LIG     1      18.314  36.953  19.262  1.00  0.00     0.012 A 
HETATM    8  C   LIG     1      18.659  37.977  18.375  1.00  0.00     0.001 A 
HETATM    9  C   LIG     1      18.874  39.274  18.849  1.00  0.00     0.001 A 
HETATM   10  C   LIG     1      18.746  39.555  20.212  1.00  0.00     0.012 A 
HETATM   11  C   LIG     1      18.400  38.536  21.114  1.00  0.00    -0.025 A 
HETATM   12  C   LIG     1      18.270  38.810  22.483  1.00  0.00     0.024 A 
HETATM   13  C   LIG     1      17.925  37.787  23.379  1.00  0.00    -0.025 A 
HETATM   14  C   LIG     1      17.793  38.057  24.750  1.00  0.00     0.013 A 
HETATM   15  C   LIG     1      17.448  37.034  25.638  1.00  0.00     0.007 A 
ENDROOT
TORSDOF 0
ENDMDL
MODEL 2
REMARK VINA RESULT:      -6.8      2.264      5.083
REMARK  0 active torsions:
REMARK  status: ('A' for Active; 'I' for Inactive)
ROOT
HETATM    1  C   LIG     1      15.262  32.429  19.232  1.00  0.00     0.048 C 
HETATM    2  C   LIG     1      15.709  33.664  19.958  1.00  0.00    -0.061 A 
HETATM    3  C   LIG     1      16.028  33.618  21.325  1.00  0.00     0.019 A 
HETATM    4  C   LIG     1      16.445  34.779  21.996  1.00  0.00    -0.025 A 
HETATM    5  C   LIG     1      16.763  34.735  23.362  1.00  0.00     0.024 A 
HETATM    6  C   LIG     1      17.181  35.898  24.028  1.00  0.00    -0.025 A 
HETATM    7  C   LIG     1      17.501  35.860  25.395  1.00  0.00     0.012 A 
HETATM    8  C   LIG     1      17.915  37.022  26.051  1.00  0.00     0.001 A 
HETATM    9  C   LIG     1      18.012  38.228  25.352  1.00  0.00     0.001 A 
HETATM   10  C   LIG     1      17.696  38.279  23.992  1.00  0.00     0.012 A 
HETATM   11  C   LIG     1      17.279  37.119  23.319  1.00  0.00    -0.025 A 
HETATM   12  C   LIG     1      16.960  37.162  21.954  1.00  0.00     0.024 A 
HETATM   13  C   LIG     1      16.543  36.000  21.288  1.00  0.00    -0.025 A 
HETATM   14  C   LIG     1      16.223  36.039  19.923  1.00  0.00     0.013 A 
HETATM   15  C   LIG     1      15.809  34.878  19.264  1.00  0.00     0.007 A 
ENDROOT
TORSDOF 0
ENDMDL
MODEL 3
REMARK VINA RESULT:      -6.7      3.010      4.271
REMARK  0 active torsions:
REMARK  status: ('A' for Active; 'I' for Inactive)
ROOT
HETATM    1  C   LIG     1      17.643  37.115  25.399  1.00  0.00     0.048 C 
HETATM    2  C   LIG     1      17.330  36.815  23.963  1.00  0.00    -0.061 A 
HETATM    3  C   LIG     1      16.793  35.573  23.589  1.00  0.00     0.019 A 
HETATM    4  C   LIG     1      16.504  35.301  22.242  1.00  0.00    -0.025 A 
HETATM    5  C   LIG     1      15.967  34.061  21.866  1.00  0.00     0.024 A 
HETATM    6  C   LIG     1      15.679  33.794  20.519  1.00  0.00    -0.025 A 
HETATM    7  C   LIG     1      15.142  32.554  20.137  1.00  0.00     0.012 A 
HETATM    8  C   LIG     1      14.859  32.296  18.793  1.00  0.00     0.001 A 
HETATM    9  C   LIG     1      15.108  33.269  17.822  1.00  0.00     0.001 A 
HETATM   10  C   LIG     1      15.642  34.507  18.189  1.00  0.00     0.012 A 
HETATM   11  C   LIG     1      15.932  34.780  19.536  1.00  0.00    -0.025 A 
HETATM   12  C   LIG     1      16.469  36.020  19.912  1.00  0.00     0.024 A 
HETATM   13  C   LIG     1      16.757  36.287  21.259  1.00  0.00    -0.025 A 
HETATM   14  C   LIG     1      17.293  37.526  21.640  1.00  0.00     0.013 A 
HETATM   15  C   LIG     1      17.578  37.786  22.983  1.00  0.00     0.007 A 
ENDROOT
TORSDOF 0
ENDMDL
MODEL 4
REMARK VINA RESULT:      -6.4     16.656     18.589
REMARK  0 active torsions:
REMARK  status: ('A' for Active; 'I' for Inactive)
ROOT
HETATM    1  C   LIG     1       2.560  39.651  27.416  1.00  0.00     0.048 C 
HETATM    2  C   LIG     1       2.785  39.763  28.895  1.00  0.00    -0.061 A 
HETATM    3  C   LIG     1       3.040  41.009  29.491  1.00  0.00     0.019 A 
HETATM    4  C   LIG     1       3.250  41.104  30.876  1.00  0.00    -0.025 A 
HETATM    5  C   LIG     1       3.505  42.347  31.473  1.00  0.00     0.024 A 
HETATM    6  C   LIG     1       3.713  42.437  32.858  1.00  0.00    -0.025 A 
HETATM    7  C   LIG     1       3.968  43.679  33.461  1.00  0.00     0.012 A 
HETATM    8  C   LIG     1       4.176  43.760  34.841  1.00  0.00     0.001 A 
HETATM    9  C   LIG     1       4.131  42.607  35.627  1.00  0.00     0.001 A 
HETATM   10  C   LIG     1       3.879  41.364  35.040  1.00  0.00     0.012 A 
HETATM   11  C   LIG     1       3.668  41.268  33.654  1.00  0.00    -0.025 A 
HETATM   12  C   LIG     1       3.413  40.025  33.057  1.00  0.00     0.024 A 
HETATM   13  C   LIG     1       3.205  39.935  31.672  1.00  0.00    -0.025 A 
HETATM   14  C   LIG     1       2.950  38.694  31.071  1.00  0.00     0.013 A 
HETATM   15  C   LIG     1       2.742  38.610  29.691  1.00  0.00     0.007 A 
ENDROOT
TORSDOF 0
ENDMDL
MODEL 5
REMARK VINA RESULT:      -5.8      3.976      6.225
REMARK  0 active torsions:
REMARK  status: ('A' for Active; 'I' for Inactive)
ROOT
HETATM    1  C   LIG     1      13.830  30.934  17.318  1.00  0.00     0.048 C 
HETATM    2  C   LIG     1      14.482  32.173  17.857  1.00  0.00    -0.061 A 
HETATM    3  C   LIG     1      14.770  32.296  19.225  1.00  0.00     0.019 A 
HETATM    4  C   LIG     1      15.380  33.460  19.721  1.00  0.00    -0.025 A 
HETATM    5  C   LIG     1      15.668  33.586  21.087  1.00  0.00     0.024 A 
HETATM    6  C   LIG     1      16.279  34.751  21.577  1.00  0.00    -0.025 A 
HETATM    7  C   LIG     1      16.570  34.882  22.945  1.00  0.00     0.012 A 
HETATM    8  C   LIG     1      17.177  36.046  23.425  1.00  0.00     0.001 A 
HETATM    9  C   LIG     1      17.497  37.085  22.548  1.00  0.00     0.001 A 
HETATM   10  C   LIG     1      17.213  36.967  21.185  1.00  0.00     0.012 A 
HETATM   11  C   LIG     1      16.603  35.804  20.689  1.00  0.00    -0.025 A 
HETATM   12  C   LIG     1      16.314  35.678  19.322  1.00  0.00     0.024 A 
HETATM   13  C   LIG     1      15.704  34.513  18.832  1.00  0.00    -0.025 A 
HETATM   14  C   LIG     1      15.413  34.383  17.466  1.00  0.00     0.013 A 
HETATM   15  C   LIG     1      14.806  33.220  16.983  1.00  0.00     0.007 A 
ENDROOT
TORSDOF 0
ENDMDL
MODEL 6
REMARK VINA RESULT:      -5.7     16.721     18.090
REMARK  0 active torsions:
REMARK  status: ('A' for Active; 'I' for Inactive)
ROOT
HETATM    1  C   LIG     1      26.939  26.632  31.110  1.00  0.00     0.048 C 
HETATM    2  C   LIG     1      27.402  27.643  32.118  1.00  0.00    -0.061 A 
HETATM    3  C   LIG     1      26.575  28.021  33.188  1.00  0.00     0.019 A 
HETATM    4  C   LIG     1      27.016  28.969  34.126  1.00  0.00    -0.025 A 
HETATM    5  C   LIG     1      26.192  29.349  35.195  1.00  0.00     0.024 A 
HETATM    6  C   LIG     1      26.638  30.295  36.130  1.00  0.00    -0.025 A 
HETATM    7  C   LIG     1      25.816  30.679  37.203  1.00  0.00     0.012 A 
HETATM    8  C   LIG     1      26.267  31.623  38.129  1.00  0.00     0.001 A 
HETATM    9  C   LIG     1      27.537  32.190  37.994  1.00  0.00     0.001 A 
HETATM   10  C   LIG     1      28.364  31.817  36.931  1.00  0.00     0.012 A 
HETATM   11  C   LIG     1      27.924  30.870  35.993  1.00  0.00    -0.025 A 
HETATM   12  C   LIG     1      28.748  30.490  34.923  1.00  0.00     0.024 A 
HETATM   13  C   LIG     1      28.302  29.543  33.988  1.00  0.00    -0.025 A 
HETATM   14  C   LIG     1      29.123  29.160  32.917  1.00  0.00     0.013 A 
HETATM   15  C   LIG     1      28.674  28.216  31.989  1.00  0.00     0.007 A 
ENDROOT
TORSDOF 0
ENDMDL
MODEL 7
REMARK VINA RESULT:      -5.6     16.697     17.668
REMARK  0 active torsions:
REMARK  status: ('A' for Active; 'I' for Inactive)
ROOT
HETATM    1  C   LIG     1      28.502  32.911  38.129  1.00  0.00     0.048 C 
HETATM    2  C   LIG     1      27.908  31.873  37.223  1.00  0.00    -0.061 A 
HETATM    3  C   LIG     1      28.597  31.439  36.079  1.00  0.00     0.019 A 
HETATM    4  C   LIG     1      28.034  30.468  35.237  1.00  0.00    -0.025 A 
HETATM    5  C   LIG     1      28.720  30.033  34.093  1.00  0.00     0.024 A 
HETATM    6  C   LIG     1      28.153  29.061  33.255  1.00  0.00    -0.025 A 
HETATM    7  C   LIG     1      28.835  28.622  32.109  1.00  0.00     0.012 A 
HETATM    8  C   LIG     1      28.263  27.655  31.278  1.00  0.00     0.001 A 
HETATM    9  C   LIG     1      27.010  27.119  31.583  1.00  0.00     0.001 A 
HETATM   10  C   LIG     1      26.320  27.547  32.720  1.00  0.00     0.012 A 
HETATM   11  C   LIG     1      26.883  28.519  33.564  1.00  0.00    -0.025 A 
HETATM   12  C   LIG     1      26.196  28.953  34.707  1.00  0.00     0.024 A 
HETATM   13  C   LIG     1      26.764  29.925  35.545  1.00  0.00    -0.025 A 
HETATM   14  C   LIG     1      26.081  30.363  36.690  1.00  0.00     0.013 A 
HETATM   15  C   LIG     1      26.651  31.330  37.522  1.00  0.00     0.007 A 
ENDROOT
TORSDOF 0
ENDMDL
MODEL 8
REMARK VINA RESULT:      -5.5     16.738     17.384
REMARK  0 active torsions:
REMARK  status: ('A' for Active; 'I' for Inactive)
ROOT
HETATM    1  C   LIG     1      26.241  31.417  38.023  1.00  0.00     0.048 C 
HETATM    2  C   LIG     1      26.939  30.936  36.784  1.00  0.00    -0.061 A 
HETATM    3  C   LIG     1      26.368  29.936  35.981  1.00  0.00     0.019 A 
HETATM    4  C   LIG     1      27.028  29.492  34.823  1.00  0.00    -0.025 A 
HETATM    5  C   LIG     1      26.460  28.493  34.019  1.00  0.00     0.024 A 
HETATM    6  C   LIG     1      27.124  28.054  32.863  1.00  0.00    -0.025 A 
HETATM    7  C   LIG     1      26.559  27.054  32.054  1.00  0.00     0.012 A 
HETATM    8  C   LIG     1      27.227  26.621  30.905  1.00  0.00     0.001 A 
HETATM    9  C   LIG     1      28.458  27.180  30.555  1.00  0.00     0.001 A 
HETATM   10  C   LIG     1      29.031  28.176  31.351  1.00  0.00     0.012 A 
HETATM   11  C   LIG     1      28.371  28.620  32.509  1.00  0.00    -0.025 A 
HETATM   12  C   LIG     1      28.939  29.619  33.313  1.00  0.00     0.024 A 
HETATM   13  C   LIG     1      28.276  30.059  34.469  1.00  0.00    -0.025 A 
HETATM   14  C   LIG     1      28.840  31.057  35.276  1.00  0.00     0.013 A 
HETATM   15  C   LIG     1      28.175  31.492  36.426  1.00  0.00     0.007 A 
ENDROOT
TORSDOF 0
ENDMDL
MODEL 9
REMARK VINA RESULT:      -5.3     16.349     17.836
REMARK  0 active torsions:
REMARK  status: ('A' for Active; 'I' for Inactive)
ROOT
HETATM    1  C   LIG     1      26.945  25.626  18.887  1.00  0.00     0.048 C 
HETATM    2  C   LIG     1      26.262  24.373  19.351  1.00  0.00    -0.061 A 
HETATM    3  C   LIG     1      25.457  23.627  18.475  1.00  0.00     0.019 A 
HETATM    4  C   LIG     1      24.822  22.456  18.917  1.00  0.00    -0.025 A 
HETATM    5  C   LIG     1      24.017  21.710  18.044  1.00  0.00     0.024 A 
HETATM    6  C   LIG     1      23.385  20.539  18.491  1.00  0.00    -0.025 A 
HETATM    7  C   LIG     1      22.578  19.788  17.621  1.00  0.00     0.012 A 
HETATM    8  C   LIG     1      21.951  18.624  18.074  1.00  0.00     0.001 A 
HETATM    9  C   LIG     1      22.124  18.201  19.394  1.00  0.00     0.001 A 
HETATM   10  C   LIG     1      22.925  18.938  20.270  1.00  0.00     0.012 A 
HETATM   11  C   LIG     1      23.560  20.111  19.828  1.00  0.00    -0.025 A 
HETATM   12  C   LIG     1      24.365  20.857  20.701  1.00  0.00     0.024 A 
HETATM   13  C   LIG     1      24.997  22.027  20.255  1.00  0.00    -0.025 A 
HETATM   14  C   LIG     1      25.803  22.777  21.124  1.00  0.00     0.013 A 
HETATM   15  C   LIG     1      26.430  23.941  20.674  1.00  0.00     0.007 A 
ENDROOT
TORSDOF 0
ENDMDL
MODEL 10
REMARK VINA RESULT:      -5.3     15.403     16.851
REMARK  0 active torsions:
REMARK  status: ('A' for Active; 'I' for Inactive)
ROOT
HETATM    1  C   LIG     1      28.492  27.077  18.610  1.00  0.00     0.048 C 
HETATM    2  C   LIG     1      27.740  25.934  19.226  1.00  0.00    -0.061 A 
HETATM    3  C   LIG     1      26.831  25.180  18.466  1.00  0.00     0.019 A 
HETATM    4  C   LIG     1      26.131  24.112  19.051  1.00  0.00    -0.025 A 
HETATM    5  C   LIG     1      25.223  23.358  18.295  1.00  0.00     0.024 A 
HETATM    6  C   LIG     1      24.526  22.291  18.884  1.00  0.00    -0.025 A 
HETATM    7  C   LIG     1      23.616  21.532  18.131  1.00  0.00     0.012 A 
HETATM    8  C   LIG     1      22.925  20.472  18.725  1.00  0.00     0.001 A 
HETATM    9  C   LIG     1      23.137  20.161  20.071  1.00  0.00     0.001 A 
HETATM   10  C   LIG     1      24.041  20.908  20.831  1.00  0.00     0.012 A 
HETATM   11  C   LIG     1      24.741  21.976  20.247  1.00  0.00    -0.025 A 
HETATM   12  C   LIG     1      25.650  22.731  21.003  1.00  0.00     0.024 A 
HETATM   13  C   LIG     1      26.346  23.797  20.415  1.00  0.00    -0.025 A 
HETATM   14  C   LIG     1      27.255  24.555  21.167  1.00  0.00     0.013 A 
HETATM   15  C   LIG     1      27.947  25.616  20.575  1.00  0.00     0.007 A 
ENDROOT
TORSDOF 0
ENDMDL
MODEL 11
REMARK VINA RESULT:      -5.2      2.563      4.219
REMARK  0 active torsions:
REMARK  status: ('A' for Active; 'I' for Inactive)
ROOT
HETATM    1  C   LIG     1      14.009  32.183  21.190  1.00  0.00     0.048 C 
HETATM    2  C   LIG     1      14.904  33.334  20.834  1.00  0.00    -0.061 A 
HETATM    3  C   LIG     1      15.309  34.258  21.811  1.00  0.00     0.019 A 
HETATM    4  C   LIG     1      16.147  35.331  21.469  1.00  0.00    -0.025 A 
HETATM    5  C   LIG     1      16.552  36.256  22.442  1.00  0.00     0.024 A 
HETATM    6  C   LIG     1      17.390  37.327  22.096  1.00  0.00    -0.025 A 
HETATM    7  C   LIG     1      17.799  38.255  23.066  1.00  0.00     0.012 A 
HETATM    8  C   LIG     1      18.633  39.320  22.713  1.00  0.00     0.001 A 
HETATM    9  C   LIG     1      19.064  39.466  21.392  1.00  0.00     0.001 A 
HETATM   10  C   LIG     1      18.664  38.550  20.416  1.00  0.00     0.012 A 
HETATM   11  C   LIG     1      17.826  37.475  20.757  1.00  0.00    -0.025 A 
HETATM   12  C   LIG     1      17.421  36.551  19.784  1.00  0.00     0.024 A 
HETATM   13  C   LIG     1      16.583  35.480  20.130  1.00  0.00    -0.025 A 
HETATM   14  C   LIG     1      16.175  34.553  19.160  1.00  0.00     0.013 A 
HETATM   15  C   LIG     1      15.341  33.488  19.511  1.00  0.00     0.007 A 
ENDROOT
TORSDOF 0
ENDMDL
MODEL 12
REMARK VINA RESULT:      -5.2     15.433     16.213
REMARK  0 active torsions:
REMARK  status: ('A' for Active; 'I' for Inactive)
ROOT
HETATM    1  C   LIG     1      22.458  21.705  22.018  1.00  0.00     0.048 C 
HETATM    2  C   LIG     1      23.429  22.133  20.958  1.00  0.00    -0.061 A 
HETATM    3  C   LIG     1      24.357  23.158  21.204  1.00  0.00     0.019 A 
HETATM    4  C   LIG     1      25.262  23.551  20.206  1.00  0.00    -0.025 A 
HETATM    5  C   LIG     1      26.189  24.575  20.450  1.00  0.00     0.024 A 
HETATM    6  C   LIG     1      27.092  24.965  19.449  1.00  0.00    -0.025 A 
HETATM    7  C   LIG     1      28.023  25.989  19.687  1.00  0.00     0.012 A 
HETATM    8  C   LIG     1      28.919  26.372  18.685  1.00  0.00     0.001 A 
HETATM    9  C   LIG     1      28.893  25.738  17.440  1.00  0.00     0.001 A 
HETATM   10  C   LIG     1      27.973  24.717  17.189  1.00  0.00     0.012 A 
HETATM   11  C   LIG     1      27.066  24.323  18.187  1.00  0.00    -0.025 A 
HETATM   12  C   LIG     1      26.139  23.299  17.944  1.00  0.00     0.024 A 
HETATM   13  C   LIG     1      25.236  22.909  18.945  1.00  0.00    -0.025 A 
HETATM   14  C   LIG     1      24.307  21.886  18.705  1.00  0.00     0.013 A 
HETATM   15  C   LIG     1      23.410  21.502  19.706  1.00  0.00     0.007 A 
ENDROOT
TORSDOF 0
ENDMDL
MODEL 13
REMARK VINA RESULT:      -5.2     16.198     16.810
REMARK  0 active torsions:
REMARK  status: ('A' for Active; 'I' for Inactive)
ROOT
HETATM    1  C   LIG     1      25.290  22.827  26.774  1.00  0.00     0.048 C 
HETATM    2  C   LIG     1      24.722  22.292  25.492  1.00  0.00    -0.061 A 
HETATM    3  C   LIG     1      25.127  22.816  24.254  1.00  0.00     0.019 A 
HETATM    4  C   LIG     1      24.589  22.310  23.059  1.00  0.00    -0.025 A 
HETATM    5  C   LIG     1      24.992  22.831  21.821  1.00  0.00     0.024 A 
HETATM    6  C   LIG     1      24.452  22.321  20.630  1.00  0.00    -0.025 A 
HETATM    7  C   LIG     1      24.852  22.839  19.387  1.00  0.00     0.012 A 
HETATM    8  C   LIG     1      24.309  22.327  18.206  1.00  0.00     0.001 A 
HETATM    9  C   LIG     1      23.367  21.297  18.254  1.00  0.00     0.001 A 
HETATM   10  C   LIG     1      22.960  20.773  19.483  1.00  0.00     0.012 A 
HETATM   11  C   LIG     1      23.497  21.278  20.679  1.00  0.00    -0.025 A 
HETATM   12  C   LIG     1      23.094  20.757  21.917  1.00  0.00     0.024 A 
HETATM   13  C   LIG     1      23.634  21.266  23.108  1.00  0.00    -0.025 A 
HETATM   14  C   LIG     1      23.234  20.748  24.349  1.00  0.00     0.013 A 
HETATM   15  C   LIG     1      23.775  21.259  25.532  1.00  0.00     0.007 A 
ENDROOT
TORSDOF 0
ENDMDL
MODEL 14
REMARK VINA RESULT:      -5.1     16.672     17.521
REMARK  0 active torsions:
REMARK  status: ('A' for Active; 'I' for Inactive)
ROOT
HETATM    1  C   LIG     1      26.982  25.447  29.603  1.00  0.00     0.048 C 
HETATM    2  C   LIG     1      27.462  26.557  30.491  1.00  0.00    -0.061 A 
HETATM    3  C   LIG     1      26.788  26.867  31.683  1.00  0.00     0.019 A 
HETATM    4  C   LIG     1      27.244  27.908  32.507  1.00  0.00    -0.025 A 
HETATM    5  C   LIG     1      26.572  28.220  33.698  1.00  0.00     0.024 A 
HETATM    6  C   LIG     1      27.032  29.260  34.519  1.00  0.00    -0.025 A 
HETATM    7  C   LIG     1      26.363  29.577  35.712  1.00  0.00     0.012 A 
HETATM    8  C   LIG     1      26.828  30.615  36.524  1.00  0.00     0.001 A 
HETATM    9  C   LIG     1      27.960  31.345  36.153  1.00  0.00     0.001 A 
HETATM   10  C   LIG     1      28.635  31.041  34.968  1.00  0.00     0.012 A 
HETATM   11  C   LIG     1      28.179  29.999  34.142  1.00  0.00    -0.025 A 
HETATM   12  C   LIG     1      28.852  29.688  32.952  1.00  0.00     0.024 A 
HETATM   13  C   LIG     1      28.391  28.647  32.131  1.00  0.00    -0.025 A 
HETATM   14  C   LIG     1      29.060  28.332  30.939  1.00  0.00     0.013 A 
HETATM   15  C   LIG     1      28.597  27.294  30.126  1.00  0.00     0.007 A 
ENDROOT
TORSDOF 0
ENDMDL
