MODEL 1
REMARK VINA RESULT:      -7.0      0.000      0.000
REMARK  4 active torsions:
REMARK  status: ('A' for Active; 'I' for Inactive)
REMARK    1  A    between atoms: C_2  and  C_4 
REMARK    2  A    between atoms: C_2  and  O_3 
REMARK    3  A    between atoms: C_4  and  O_5 
REMARK    4  A    between atoms: O_5  and  C_6 
ROOT
HETATM    1  C   LIG     1      17.128  36.076  24.109  1.00  0.00     0.091 A 
HETATM    2  C   LIG     1      17.294  34.873  24.825  1.00  0.00     0.038 A 
HETATM    3  C   LIG     1      17.859  34.886  26.104  1.00  0.00     0.003 A 
HETATM    4  C   LIG     1      18.264  36.092  26.680  1.00  0.00     0.002 A 
HETATM    5  C   LIG     1      18.104  37.289  25.979  1.00  0.00     0.026 A 
HETATM    6  C   LIG     1      17.539  37.284  24.698  1.00  0.00     0.067 A 
HETATM    7 CL   LIG     1      17.349  38.804  23.837  1.00  0.00    -0.081 Cl
ENDROOT
BRANCH   1   8
HETATM    8  O   LIG     1      16.566  36.108  22.824  1.00  0.00    -0.339 OA
BRANCH   8   9
HETATM    9  C   LIG     1      16.655  35.048  21.876  1.00  0.00     0.285 C 
BRANCH   9  10
HETATM   10  C   LIG     1      15.649  35.269  20.799  1.00  0.00     0.164 C 
HETATM   11  O   LIG     1      15.956  35.053  19.596  1.00  0.00    -0.648 OA
BRANCH  10  12
HETATM   12  O   LIG     1      14.357  35.667  21.127  1.00  0.00    -0.775 OA
HETATM   13  H   LIG     1      13.623  34.983  21.268  1.00  0.00     0.167 HD
ENDBRANCH  10  12
ENDBRANCH   9  10
ENDBRANCH   8   9
ENDBRANCH   1   8
TORSDOF 4
ENDMDL
MODEL 2
REMARK VINA RESULT:      -6.9      2.462      3.324
REMARK  4 active torsions:
REMARK  status: ('A' for Active; 'I' for Inactive)
REMARK    1  A    between atoms: C_2  and  C_4 
REMARK    2  A    between atoms: C_2  and  O_3 
REMARK    3  A    between atoms: C_4  and  O_5 
REMARK    4  A    between atoms: O_5  and  C_6 
ROOT
HETATM    1  C   LIG     1      17.168  37.088  24.247  1.00  0.00     0.091 A 
HETATM    2  C   LIG     1      17.652  37.627  25.457  1.00  0.00     0.038 A 
HETATM    3  C   LIG     1      18.103  36.781  26.475  1.00  0.00     0.003 A 
HETATM    4  C   LIG     1      18.076  35.397  26.300  1.00  0.00     0.002 A 
HETATM    5  C   LIG     1      17.599  34.853  25.105  1.00  0.00     0.026 A 
HETATM    6  C   LIG     1      17.146  35.693  24.082  1.00  0.00     0.067 A 
HETATM    7 CL   LIG     1      16.550  34.983  22.589  1.00  0.00    -0.081 Cl
ENDROOT
BRANCH   1   8
HETATM    8  O   LIG     1      16.706  37.901  23.200  1.00  0.00    -0.339 OA
BRANCH   8   9
HETATM    9  C   LIG     1      17.343  39.098  22.766  1.00  0.00     0.285 C 
BRANCH   9  10
HETATM   10  C   LIG     1      18.156  38.807  21.550  1.00  0.00     0.164 C 
HETATM   11  O   LIG     1      18.044  37.694  20.970  1.00  0.00    -0.648 OA
BRANCH  10  12
HETATM   12  O   LIG     1      19.002  39.781  21.031  1.00  0.00    -0.775 OA
HETATM   13  H   LIG     1      19.931  39.919  21.412  1.00  0.00     0.167 HD
ENDBRANCH  10  12
ENDBRANCH   9  10
ENDBRANCH   8   9
ENDBRANCH   1   8
TORSDOF 4
ENDMDL
MODEL 3
REMARK VINA RESULT:      -6.8      3.246      5.324
REMARK  4 active torsions:
REMARK  status: ('A' for Active; 'I' for Inactive)
REMARK    1  A    between atoms: C_2  and  C_4 
REMARK    2  A    between atoms: C_2  and  O_3 
REMARK    3  A    between atoms: C_4  and  O_5 
REMARK    4  A    between atoms: O_5  and  C_6 
ROOT
HETATM    1  C   LIG     1      17.457  37.622  22.038  1.00  0.00     0.091 A 
HETATM    2  C   LIG     1      18.122  38.848  21.834  1.00  0.00     0.038 A 
HETATM    3  C   LIG     1      18.911  39.041  20.695  1.00  0.00     0.003 A 
HETATM    4  C   LIG     1      19.045  38.020  19.754  1.00  0.00     0.002 A 
HETATM    5  C   LIG     1      18.390  36.802  19.946  1.00  0.00     0.026 A 
HETATM    6  C   LIG     1      17.599  36.600  21.083  1.00  0.00     0.067 A 
HETATM    7 CL   LIG     1      16.786  35.058  21.302  1.00  0.00    -0.081 Cl
ENDROOT
BRANCH   1   8
HETATM    8  O   LIG     1      16.656  37.386  23.166  1.00  0.00    -0.339 OA
BRANCH   8   9
HETATM    9  C   LIG     1      17.089  36.694  24.333  1.00  0.00     0.285 C 
BRANCH   9  10
HETATM   10  C   LIG     1      17.627  37.680  25.314  1.00  0.00     0.164 C 
HETATM   11  O   LIG     1      17.089  38.813  25.428  1.00  0.00    -0.648 OA
BRANCH  10  12
HETATM   12  O   LIG     1      18.692  37.329  26.137  1.00  0.00    -0.775 OA
HETATM   13  H   LIG     1      18.556  36.713  26.930  1.00  0.00     0.167 HD
ENDBRANCH  10  12
ENDBRANCH   9  10
ENDBRANCH   8   9
ENDBRANCH   1   8
TORSDOF 4
ENDMDL
MODEL 4
REMARK VINA RESULT:      -6.7      2.882      4.021
REMARK  4 active torsions:
REMARK  status: ('A' for Active; 'I' for Inactive)
REMARK    1  A    between atoms: C_2  and  C_4 
REMARK    2  A    between atoms: C_2  and  O_3 
REMARK    3  A    between atoms: C_4  and  O_5 
REMARK    4  A    between atoms: O_5  and  C_6 
ROOT
HETATM    1  C   LIG     1      17.627  37.204  21.143  1.00  0.00     0.091 A 
HETATM    2  C   LIG     1      18.395  36.688  20.080  1.00  0.00     0.038 A 
HETATM    3  C   LIG     1      19.352  37.488  19.448  1.00  0.00     0.003 A 
HETATM    4  C   LIG     1      19.552  38.805  19.867  1.00  0.00     0.002 A 
HETATM    5  C   LIG     1      18.796  39.326  20.919  1.00  0.00     0.026 A 
HETATM    6  C   LIG     1      17.836  38.531  21.557  1.00  0.00     0.067 A 
HETATM    7 CL   LIG     1      16.898  39.210  22.878  1.00  0.00    -0.081 Cl
ENDROOT
BRANCH   1   8
HETATM    8  O   LIG     1      16.656  36.436  21.805  1.00  0.00    -0.339 OA
BRANCH   8   9
HETATM    9  C   LIG     1      16.679  35.015  21.901  1.00  0.00     0.285 C 
BRANCH   9  10
HETATM   10  C   LIG     1      15.579  34.450  21.067  1.00  0.00     0.164 C 
HETATM   11  O   LIG     1      15.845  33.883  19.974  1.00  0.00    -0.648 OA
BRANCH  10  12
HETATM   12  O   LIG     1      14.265  34.508  21.520  1.00  0.00    -0.775 OA
HETATM   13  H   LIG     1      13.699  33.670  21.578  1.00  0.00     0.167 HD
ENDBRANCH  10  12
ENDBRANCH   9  10
ENDBRANCH   8   9
ENDBRANCH   1   8
TORSDOF 4
ENDMDL
MODEL 5
REMARK VINA RESULT:      -6.2      3.224      3.804
REMARK  4 active torsions:
REMARK  status: ('A' for Active; 'I' for Inactive)
REMARK    1  A    between atoms: C_2  and  C_4 
REMARK    2  A    between atoms: C_2  and  O_3 
REMARK    3  A    between atoms: C_4  and  O_5 
REMARK    4  A    between atoms: O_5  and  C_6 
ROOT
HETATM    1  C   LIG     1      17.422  37.057  21.245  1.00  0.00     0.091 A 
HETATM    2  C   LIG     1      16.768  37.743  22.289  1.00  0.00     0.038 A 
HETATM    3  C   LIG     1      17.206  39.011  22.683  1.00  0.00     0.003 A 
HETATM    4  C   LIG     1      18.296  39.605  22.044  1.00  0.00     0.002 A 
HETATM    5  C   LIG     1      18.951  38.934  21.009  1.00  0.00     0.026 A 
HETATM    6  C   LIG     1      18.518  37.665  20.609  1.00  0.00     0.067 A 
HETATM    7 CL   LIG     1      19.359  36.842  19.305  1.00  0.00    -0.081 Cl
ENDROOT
BRANCH   1   8
HETATM    8  O   LIG     1      17.015  35.783  20.818  1.00  0.00    -0.339 OA
BRANCH   8   9
HETATM    9  C   LIG     1      16.433  34.796  21.665  1.00  0.00     0.285 C 
BRANCH   9  10
HETATM   10  C   LIG     1      15.417  34.026  20.891  1.00  0.00     0.164 C 
HETATM   11  O   LIG     1      15.698  33.588  19.744  1.00  0.00    -0.648 OA
BRANCH  10  12
HETATM   12  O   LIG     1      14.177  33.750  21.457  1.00  0.00    -0.775 OA
HETATM   13  H   LIG     1      13.406  34.401  21.361  1.00  0.00     0.167 HD
ENDBRANCH  10  12
ENDBRANCH   9  10
ENDBRANCH   8   9
ENDBRANCH   1   8
TORSDOF 4
ENDMDL
MODEL 6
REMARK VINA RESULT:      -6.1      9.420     10.504
REMARK  4 active torsions:
REMARK  status: ('A' for Active; 'I' for Inactive)
REMARK    1  A    between atoms: C_2  and  C_4 
REMARK    2  A    between atoms: C_2  and  O_3 
REMARK    3  A    between atoms: C_4  and  O_5 
REMARK    4  A    between atoms: O_5  and  C_6 
ROOT
HETATM    1  C   LIG     1      15.552  31.650  15.309  1.00  0.00     0.091 A 
HETATM    2  C   LIG     1      15.051  32.420  16.378  1.00  0.00     0.038 A 
HETATM    3  C   LIG     1      13.785  32.152  16.909  1.00  0.00     0.003 A 
HETATM    4  C   LIG     1      13.009  31.119  16.381  1.00  0.00     0.002 A 
HETATM    5  C   LIG     1      13.496  30.350  15.321  1.00  0.00     0.026 A 
HETATM    6  C   LIG     1      14.761  30.613  14.785  1.00  0.00     0.067 A 
HETATM    7 CL   LIG     1      15.350  29.631  13.452  1.00  0.00    -0.081 Cl
ENDROOT
BRANCH   1   8
HETATM    8  O   LIG     1      16.816  31.886  14.747  1.00  0.00    -0.339 OA
BRANCH   8   9
HETATM    9  C   LIG     1      17.472  33.150  14.737  1.00  0.00     0.285 C 
BRANCH   9  10
HETATM   10  C   LIG     1      17.639  33.604  13.326  1.00  0.00     0.164 C 
HETATM   11  O   LIG     1      17.492  34.821  13.034  1.00  0.00    -0.648 OA
BRANCH  10  12
HETATM   12  O   LIG     1      18.004  32.691  12.343  1.00  0.00    -0.775 OA
HETATM   13  H   LIG     1      18.089  32.977  11.374  1.00  0.00     0.167 HD
ENDBRANCH  10  12
ENDBRANCH   9  10
ENDBRANCH   8   9
ENDBRANCH   1   8
TORSDOF 4
ENDMDL
MODEL 7
REMARK VINA RESULT:      -6.0      2.993      4.776
REMARK  4 active torsions:
REMARK  status: ('A' for Active; 'I' for Inactive)
REMARK    1  A    between atoms: C_2  and  C_4 
REMARK    2  A    between atoms: C_2  and  O_3 
REMARK    3  A    between atoms: C_4  and  O_5 
REMARK    4  A    between atoms: O_5  and  C_6 
ROOT
HETATM    1  C   LIG     1      17.582  37.290  21.403  1.00  0.00     0.091 A 
HETATM    2  C   LIG     1      18.154  36.468  20.411  1.00  0.00     0.038 A 
HETATM    3  C   LIG     1      19.048  37.006  19.479  1.00  0.00     0.003 A 
HETATM    4  C   LIG     1      19.378  38.361  19.525  1.00  0.00     0.002 A 
HETATM    5  C   LIG     1      18.816  39.184  20.504  1.00  0.00     0.026 A 
HETATM    6  C   LIG     1      17.922  38.654  21.441  1.00  0.00     0.067 A 
HETATM    7 CL   LIG     1      17.229  39.710  22.661  1.00  0.00    -0.081 Cl
ENDROOT
BRANCH   1   8
HETATM    8  O   LIG     1      16.682  36.792  22.358  1.00  0.00    -0.339 OA
BRANCH   8   9
HETATM    9  C   LIG     1      17.016  35.839  23.362  1.00  0.00     0.285 C 
BRANCH   9  10
HETATM   10  C   LIG     1      17.159  36.538  24.672  1.00  0.00     0.164 C 
HETATM   11  O   LIG     1      18.004  36.132  25.513  1.00  0.00    -0.648 OA
BRANCH  10  12
HETATM   12  O   LIG     1      16.393  37.667  24.942  1.00  0.00    -0.775 OA
HETATM   13  H   LIG     1      16.817  38.588  24.969  1.00  0.00     0.167 HD
ENDBRANCH  10  12
ENDBRANCH   9  10
ENDBRANCH   8   9
ENDBRANCH   1   8
TORSDOF 4
ENDMDL
MODEL 8
REMARK VINA RESULT:      -6.0      8.243      9.627
REMARK  4 active torsions:
REMARK  status: ('A' for Active; 'I' for Inactive)
REMARK    1  A    between atoms: C_2  and  C_4 
REMARK    2  A    between atoms: C_2  and  O_3 
REMARK    3  A    between atoms: C_4  and  O_5 
REMARK    4  A    between atoms: O_5  and  C_6 
ROOT
HETATM    1  C   LIG     1      15.630  32.643  15.648  1.00  0.00     0.091 A 
HETATM    2  C   LIG     1      15.383  31.475  14.897  1.00  0.00     0.038 A 
HETATM    3  C   LIG     1      14.343  30.613  15.257  1.00  0.00     0.003 A 
HETATM    4  C   LIG     1      13.543  30.902  16.363  1.00  0.00     0.002 A 
HETATM    5  C   LIG     1      13.779  32.056  17.114  1.00  0.00     0.026 A 
HETATM    6  C   LIG     1      14.818  32.925  16.760  1.00  0.00     0.067 A 
HETATM    7 CL   LIG     1      15.095  34.369  17.721  1.00  0.00    -0.081 Cl
ENDROOT
BRANCH   1   8
HETATM    8  O   LIG     1      16.662  33.536  15.322  1.00  0.00    -0.339 OA
BRANCH   8   9
HETATM    9  C   LIG     1      17.867  33.168  14.656  1.00  0.00     0.285 C 
BRANCH   9  10
HETATM   10  C   LIG     1      17.811  33.645  13.244  1.00  0.00     0.164 C 
HETATM   11  O   LIG     1      17.498  34.840  12.995  1.00  0.00    -0.648 OA
BRANCH  10  12
HETATM   12  O   LIG     1      18.151  32.783  12.207  1.00  0.00    -0.775 OA
HETATM   13  H   LIG     1      18.021  33.057  11.240  1.00  0.00     0.167 HD
ENDBRANCH  10  12
ENDBRANCH   9  10
ENDBRANCH   8   9
ENDBRANCH   1   8
TORSDOF 4
ENDMDL
MODEL 9
REMARK VINA RESULT:      -5.8      8.905     10.036
REMARK  4 active torsions:
REMARK  status: ('A' for Active; 'I' for Inactive)
REMARK    1  A    between atoms: C_2  and  C_4 
REMARK    2  A    between atoms: C_2  and  O_3 
REMARK    3  A    between atoms: C_4  and  O_5 
REMARK    4  A    between atoms: O_5  and  C_6 
ROOT
HETATM    1  C   LIG     1      15.666  31.917  15.429  1.00  0.00     0.091 A 
HETATM    2  C   LIG     1      15.639  31.125  14.263  1.00  0.00     0.038 A 
HETATM    3  C   LIG     1      14.597  30.216  14.053  1.00  0.00     0.003 A 
HETATM    4  C   LIG     1      13.577  30.088  14.997  1.00  0.00     0.002 A 
HETATM    5  C   LIG     1      13.595  30.868  16.155  1.00  0.00     0.026 A 
HETATM    6  C   LIG     1      14.634  31.780  16.373  1.00  0.00     0.067 A 
HETATM    7 CL   LIG     1      14.634  32.749  17.839  1.00  0.00    -0.081 Cl
ENDROOT
BRANCH   1   8
HETATM    8  O   LIG     1      16.693  32.841  15.680  1.00  0.00    -0.339 OA
BRANCH   8   9
HETATM    9  C   LIG     1      17.734  33.161  14.761  1.00  0.00     0.285 C 
BRANCH   9  10
HETATM   10  C   LIG     1      17.501  34.529  14.217  1.00  0.00     0.164 C 
HETATM   11  O   LIG     1      17.291  35.492  15.001  1.00  0.00    -0.648 OA
BRANCH  10  12
HETATM   12  O   LIG     1      17.566  34.750  12.845  1.00  0.00    -0.775 OA
HETATM   13  H   LIG     1      16.984  34.222  12.206  1.00  0.00     0.167 HD
ENDBRANCH  10  12
ENDBRANCH   9  10
ENDBRANCH   8   9
ENDBRANCH   1   8
TORSDOF 4
ENDMDL
MODEL 10
REMARK VINA RESULT:      -5.7      3.448      4.091
REMARK  4 active torsions:
REMARK  status: ('A' for Active; 'I' for Inactive)
REMARK    1  A    between atoms: C_2  and  C_4 
REMARK    2  A    between atoms: C_2  and  O_3 
REMARK    3  A    between atoms: C_4  and  O_5 
REMARK    4  A    between atoms: O_5  and  C_6 
ROOT
HETATM    1  C   LIG     1      17.576  36.915  21.272  1.00  0.00     0.091 A 
HETATM    2  C   LIG     1      17.250  35.565  21.513  1.00  0.00     0.038 A 
HETATM    3  C   LIG     1      16.937  35.134  22.806  1.00  0.00     0.003 A 
HETATM    4  C   LIG     1      16.944  36.040  23.867  1.00  0.00     0.002 A 
HETATM    5  C   LIG     1      17.266  37.380  23.640  1.00  0.00     0.026 A 
HETATM    6  C   LIG     1      17.581  37.819  22.349  1.00  0.00     0.067 A 
HETATM    7 CL   LIG     1      17.981  39.509  22.090  1.00  0.00    -0.081 Cl
ENDROOT
BRANCH   1   8
HETATM    8  O   LIG     1      17.896  37.389  19.991  1.00  0.00    -0.339 OA
BRANCH   8   9
HETATM    9  C   LIG     1      19.208  37.391  19.435  1.00  0.00     0.285 C 
BRANCH   9  10
HETATM   10  C   LIG     1      19.559  38.778  19.015  1.00  0.00     0.164 C 
HETATM   11  O   LIG     1      20.593  39.333  19.473  1.00  0.00    -0.648 OA
BRANCH  10  12
HETATM   12  O   LIG     1      18.770  39.439  18.079  1.00  0.00    -0.775 OA
HETATM   13  H   LIG     1      19.153  39.724  17.185  1.00  0.00     0.167 HD
ENDBRANCH  10  12
ENDBRANCH   9  10
ENDBRANCH   8   9
ENDBRANCH   1   8
TORSDOF 4
ENDMDL
MODEL 11
REMARK VINA RESULT:      -5.7      5.907      9.040
REMARK  4 active torsions:
REMARK  status: ('A' for Active; 'I' for Inactive)
REMARK    1  A    between atoms: C_2  and  C_4 
REMARK    2  A    between atoms: C_2  and  O_3 
REMARK    3  A    between atoms: C_4  and  O_5 
REMARK    4  A    between atoms: O_5  and  C_6 
ROOT
HETATM    1  C   LIG     1      14.836  31.947  16.734  1.00  0.00     0.091 A 
HETATM    2  C   LIG     1      13.622  31.239  16.844  1.00  0.00     0.038 A 
HETATM    3  C   LIG     1      13.182  30.427  15.793  1.00  0.00     0.003 A 
HETATM    4  C   LIG     1      13.943  30.314  14.629  1.00  0.00     0.002 A 
HETATM    5  C   LIG     1      15.148  31.011  14.510  1.00  0.00     0.026 A 
HETATM    6  C   LIG     1      15.595  31.826  15.557  1.00  0.00     0.067 A 
HETATM    7 CL   LIG     1      17.112  32.693  15.383  1.00  0.00    -0.081 Cl
ENDROOT
BRANCH   1   8
HETATM    8  O   LIG     1      15.314  32.773  17.764  1.00  0.00    -0.339 OA
BRANCH   8   9
HETATM    9  C   LIG     1      15.447  32.372  19.124  1.00  0.00     0.285 C 
BRANCH   9  10
HETATM   10  C   LIG     1      15.363  33.577  19.999  1.00  0.00     0.164 C 
HETATM   11  O   LIG     1      16.072  34.588  19.749  1.00  0.00    -0.648 OA
BRANCH  10  12
HETATM   12  O   LIG     1      14.466  33.601  21.062  1.00  0.00    -0.775 OA
HETATM   13  H   LIG     1      14.737  33.264  21.978  1.00  0.00     0.167 HD
ENDBRANCH  10  12
ENDBRANCH   9  10
ENDBRANCH   8   9
ENDBRANCH   1   8
TORSDOF 4
ENDMDL
MODEL 12
REMARK VINA RESULT:      -5.5      6.187      9.311
REMARK  4 active torsions:
REMARK  status: ('A' for Active; 'I' for Inactive)
REMARK    1  A    between atoms: C_2  and  C_4 
REMARK    2  A    between atoms: C_2  and  O_3 
REMARK    3  A    between atoms: C_4  and  O_5 
REMARK    4  A    between atoms: O_5  and  C_6 
ROOT
HETATM    1  C   LIG     1      15.052  32.301  16.305  1.00  0.00     0.091 A 
HETATM    2  C   LIG     1      16.122  32.887  15.598  1.00  0.00     0.038 A 
HETATM    3  C   LIG     1      16.476  32.411  14.332  1.00  0.00     0.003 A 
HETATM    4  C   LIG     1      15.772  31.350  13.761  1.00  0.00     0.002 A 
HETATM    5  C   LIG     1      14.710  30.762  14.452  1.00  0.00     0.026 A 
HETATM    6  C   LIG     1      14.350  31.234  15.720  1.00  0.00     0.067 A 
HETATM    7 CL   LIG     1      13.011  30.477  16.569  1.00  0.00    -0.081 Cl
ENDROOT
BRANCH   1   8
HETATM    8  O   LIG     1      14.663  32.749  17.577  1.00  0.00    -0.339 OA
BRANCH   8   9
HETATM    9  C   LIG     1      15.190  32.251  18.804  1.00  0.00     0.285 C 
BRANCH   9  10
HETATM   10  C   LIG     1      15.247  33.361  19.798  1.00  0.00     0.164 C 
HETATM   11  O   LIG     1      15.954  34.378  19.567  1.00  0.00    -0.648 OA
BRANCH  10  12
HETATM   12  O   LIG     1      14.481  33.294  20.957  1.00  0.00    -0.775 OA
HETATM   13  H   LIG     1      14.354  32.416  21.446  1.00  0.00     0.167 HD
ENDBRANCH  10  12
ENDBRANCH   9  10
ENDBRANCH   8   9
ENDBRANCH   1   8
TORSDOF 4
ENDMDL
MODEL 13
REMARK VINA RESULT:      -5.4      3.048      5.149
REMARK  4 active torsions:
REMARK  status: ('A' for Active; 'I' for Inactive)
REMARK    1  A    between atoms: C_2  and  C_4 
REMARK    2  A    between atoms: C_2  and  O_3 
REMARK    3  A    between atoms: C_4  and  O_5 
REMARK    4  A    between atoms: O_5  and  C_6 
ROOT
HETATM    1  C   LIG     1      17.621  37.767  21.814  1.00  0.00     0.091 A 
HETATM    2  C   LIG     1      16.706  36.695  21.861  1.00  0.00     0.038 A 
HETATM    3  C   LIG     1      16.619  35.794  20.795  1.00  0.00     0.003 A 
HETATM    4  C   LIG     1      17.439  35.951  19.677  1.00  0.00     0.002 A 
HETATM    5  C   LIG     1      18.349  37.009  19.620  1.00  0.00     0.026 A 
HETATM    6  C   LIG     1      18.442  37.915  20.683  1.00  0.00     0.067 A 
HETATM    7 CL   LIG     1      19.595  39.237  20.586  1.00  0.00    -0.081 Cl
ENDROOT
BRANCH   1   8
HETATM    8  O   LIG     1      17.740  38.693  22.861  1.00  0.00    -0.339 OA
BRANCH   8   9
HETATM    9  C   LIG     1      18.577  38.521  24.001  1.00  0.00     0.285 C 
BRANCH   9  10
HETATM   10  C   LIG     1      17.761  37.986  25.130  1.00  0.00     0.164 C 
HETATM   11  O   LIG     1      16.504  38.048  25.083  1.00  0.00    -0.648 OA
BRANCH  10  12
HETATM   12  O   LIG     1      18.389  37.377  26.211  1.00  0.00    -0.775 OA
HETATM   13  H   LIG     1      19.375  37.526  26.392  1.00  0.00     0.167 HD
ENDBRANCH  10  12
ENDBRANCH   9  10
ENDBRANCH   8   9
ENDBRANCH   1   8
TORSDOF 4
ENDMDL
MODEL 14
REMARK VINA RESULT:      -5.3      2.206      4.965
REMARK  4 active torsions:
REMARK  status: ('A' for Active; 'I' for Inactive)
REMARK    1  A    between atoms: C_2  and  C_4 
REMARK    2  A    between atoms: C_2  and  O_3 
REMARK    3  A    between atoms: C_4  and  O_5 
REMARK    4  A    between atoms: O_5  and  C_6 
ROOT
HETATM    1  C   LIG     1      16.855  36.188  22.590  1.00  0.00     0.091 A 
HETATM    2  C   LIG     1      16.133  34.992  22.402  1.00  0.00     0.038 A 
HETATM    3  C   LIG     1      15.905  34.501  21.113  1.00  0.00     0.003 A 
HETATM    4  C   LIG     1      16.390  35.193  20.003  1.00  0.00     0.002 A 
HETATM    5  C   LIG     1      17.106  36.380  20.177  1.00  0.00     0.026 A 
HETATM    6  C   LIG     1      17.339  36.878  21.464  1.00  0.00     0.067 A 
HETATM    7 CL   LIG     1      18.242  38.372  21.657  1.00  0.00    -0.081 Cl
ENDROOT
BRANCH   1   8
HETATM    8  O   LIG     1      17.107  36.716  23.865  1.00  0.00    -0.339 OA
BRANCH   8   9
HETATM    9  C   LIG     1      17.314  35.933  25.037  1.00  0.00     0.285 C 
BRANCH   9  10
HETATM   10  C   LIG     1      18.232  36.663  25.957  1.00  0.00     0.164 C 
HETATM   11  O   LIG     1      18.487  36.192  27.098  1.00  0.00    -0.648 OA
BRANCH  10  12
HETATM   12  O   LIG     1      18.846  37.838  25.537  1.00  0.00    -0.775 OA
HETATM   13  H   LIG     1      18.598  38.265  24.652  1.00  0.00     0.167 HD
ENDBRANCH  10  12
ENDBRANCH   9  10
ENDBRANCH   8   9
ENDBRANCH   1   8
TORSDOF 4
ENDMDL
MODEL 15
REMARK VINA RESULT:      -5.1      6.572      8.335
REMARK  4 active torsions:
REMARK  status: ('A' for Active; 'I' for Inactive)
REMARK    1  A    between atoms: C_2  and  C_4 
REMARK    2  A    between atoms: C_2  and  O_3 
REMARK    3  A    between atoms: C_4  and  O_5 
REMARK    4  A    between atoms: O_5  and  C_6 
ROOT
HETATM    1  C   LIG     1      14.433  32.092  17.768  1.00  0.00     0.091 A 
HETATM    2  C   LIG     1      14.540  33.219  16.928  1.00  0.00     0.038 A 
HETATM    3  C   LIG     1      15.109  34.404  17.408  1.00  0.00     0.003 A 
HETATM    4  C   LIG     1      15.573  34.477  18.722  1.00  0.00     0.002 A 
HETATM    5  C   LIG     1      15.471  33.366  19.562  1.00  0.00     0.026 A 
HETATM    6  C   LIG     1      14.903  32.177  19.090  1.00  0.00     0.067 A 
HETATM    7 CL   LIG     1      14.786  30.794  20.167  1.00  0.00    -0.081 Cl
ENDROOT
BRANCH   1   8
HETATM    8  O   LIG     1      13.869  30.884  17.328  1.00  0.00    -0.339 OA
BRANCH   8   9
HETATM    9  C   LIG     1      12.861  30.782  16.326  1.00  0.00     0.285 C 
BRANCH   9  10
HETATM   10  C   LIG     1      13.434  30.111  15.123  1.00  0.00     0.164 C 
HETATM   11  O   LIG     1      14.600  30.395  14.739  1.00  0.00    -0.648 OA
BRANCH  10  12
HETATM   12  O   LIG     1      12.698  29.138  14.455  1.00  0.00    -0.775 OA
HETATM   13  H   LIG     1      11.827  28.791  14.839  1.00  0.00     0.167 HD
ENDBRANCH  10  12
ENDBRANCH   9  10
ENDBRANCH   8   9
ENDBRANCH   1   8
TORSDOF 4
ENDMDL
MODEL 16
REMARK VINA RESULT:      -5.0      8.215      9.837
REMARK  4 active torsions:
REMARK  status: ('A' for Active; 'I' for Inactive)
REMARK    1  A    between atoms: C_2  and  C_4 
REMARK    2  A    between atoms: C_2  and  O_3 
REMARK    3  A    between atoms: C_4  and  O_5 
REMARK    4  A    between atoms: O_5  and  C_6 
ROOT
HETATM    1  C   LIG     1      16.471  32.848  15.468  1.00  0.00     0.091 A 
HETATM    2  C   LIG     1      17.311  33.966  15.285  1.00  0.00     0.038 A 
HETATM    3  C   LIG     1      17.809  34.273  14.015  1.00  0.00     0.003 A 
HETATM    4  C   LIG     1      17.478  33.474  12.920  1.00  0.00     0.002 A 
HETATM    5  C   LIG     1      16.647  32.365  13.090  1.00  0.00     0.026 A 
HETATM    6  C   LIG     1      16.144  32.050  14.358  1.00  0.00     0.067 A 
HETATM    7 CL   LIG     1      15.101  30.649  14.546  1.00  0.00    -0.081 Cl
ENDROOT
BRANCH   1   8
HETATM    8  O   LIG     1      15.950  32.504  16.725  1.00  0.00    -0.339 OA
BRANCH   8   9
HETATM    9  C   LIG     1      14.661  32.885  17.196  1.00  0.00     0.285 C 
BRANCH   9  10
HETATM   10  C   LIG     1      14.049  31.738  17.926  1.00  0.00     0.164 C 
HETATM   11  O   LIG     1      13.370  30.881  17.299  1.00  0.00    -0.648 OA
BRANCH  10  12
HETATM   12  O   LIG     1      14.268  31.588  19.292  1.00  0.00    -0.775 OA
HETATM   13  H   LIG     1      13.609  31.958  19.967  1.00  0.00     0.167 HD
ENDBRANCH  10  12
ENDBRANCH   9  10
ENDBRANCH   8   9
ENDBRANCH   1   8
TORSDOF 4
ENDMDL
MODEL 17
REMARK VINA RESULT:      -4.9      9.451     11.206
REMARK  4 active torsions:
REMARK  status: ('A' for Active; 'I' for Inactive)
REMARK    1  A    between atoms: C_2  and  C_4 
REMARK    2  A    between atoms: C_2  and  O_3 
REMARK    3  A    between atoms: C_4  and  O_5 
REMARK    4  A    between atoms: O_5  and  C_6 
ROOT
HETATM    1  C   LIG     1      14.744  30.893  14.651  1.00  0.00     0.091 A 
HETATM    2  C   LIG     1      15.561  31.222  13.550  1.00  0.00     0.038 A 
HETATM    3  C   LIG     1      16.515  32.239  13.660  1.00  0.00     0.003 A 
HETATM    4  C   LIG     1      16.663  32.935  14.861  1.00  0.00     0.002 A 
HETATM    5  C   LIG     1      15.858  32.617  15.957  1.00  0.00     0.026 A 
HETATM    6  C   LIG     1      14.901  31.601  15.855  1.00  0.00     0.067 A 
HETATM    7 CL   LIG     1      13.900  31.220  17.248  1.00  0.00    -0.081 Cl
ENDROOT
BRANCH   1   8
HETATM    8  O   LIG     1      13.775  29.880  14.584  1.00  0.00    -0.339 OA
BRANCH   8   9
HETATM    9  C   LIG     1      13.993  28.589  14.022  1.00  0.00     0.285 C 
BRANCH   9  10
HETATM   10  C   LIG     1      12.677  27.967  13.700  1.00  0.00     0.164 C 
HETATM   11  O   LIG     1      12.543  26.715  13.751  1.00  0.00    -0.648 OA
BRANCH  10  12
HETATM   12  O   LIG     1      11.586  28.772  13.390  1.00  0.00    -0.775 OA
HETATM   13  H   LIG     1      11.686  29.778  13.323  1.00  0.00     0.167 HD
ENDBRANCH  10  12
ENDBRANCH   9  10
ENDBRANCH   8   9
ENDBRANCH   1   8
TORSDOF 4
ENDMDL
MODEL 18
REMARK VINA RESULT:      -4.7      3.589      5.121
REMARK  4 active torsions:
REMARK  status: ('A' for Active; 'I' for Inactive)
REMARK    1  A    between atoms: C_2  and  C_4 
REMARK    2  A    between atoms: C_2  and  O_3 
REMARK    3  A    between atoms: C_4  and  O_5 
REMARK    4  A    between atoms: O_5  and  C_6 
ROOT
HETATM    1  C   LIG     1      18.299  38.082  21.429  1.00  0.00     0.091 A 
HETATM    2  C   LIG     1      18.835  39.266  20.883  1.00  0.00     0.038 A 
HETATM    3  C   LIG     1      19.228  39.310  19.542  1.00  0.00     0.003 A 
HETATM    4  C   LIG     1      19.091  38.180  18.735  1.00  0.00     0.002 A 
HETATM    5  C   LIG     1      18.561  37.002  19.265  1.00  0.00     0.026 A 
HETATM    6  C   LIG     1      18.166  36.950  20.606  1.00  0.00     0.067 A 
HETATM    7 CL   LIG     1      17.502  35.456  21.249  1.00  0.00    -0.081 Cl
ENDROOT
BRANCH   1   8
HETATM    8  O   LIG     1      17.892  37.995  22.769  1.00  0.00    -0.339 OA
BRANCH   8   9
HETATM    9  C   LIG     1      16.794  37.214  23.231  1.00  0.00     0.285 C 
BRANCH   9  10
HETATM   10  C   LIG     1      15.522  37.828  22.751  1.00  0.00     0.164 C 
HETATM   11  O   LIG     1      15.405  39.082  22.709  1.00  0.00    -0.648 OA
BRANCH  10  12
HETATM   12  O   LIG     1      14.485  37.016  22.304  1.00  0.00    -0.775 OA
HETATM   13  H   LIG     1      14.616  36.393  21.516  1.00  0.00     0.167 HD
ENDBRANCH  10  12
ENDBRANCH   9  10
ENDBRANCH   8   9
ENDBRANCH   1   8
TORSDOF 4
ENDMDL
MODEL 19
REMARK VINA RESULT:      -4.7      6.375      7.912
REMARK  4 active torsions:
REMARK  status: ('A' for Active; 'I' for Inactive)
REMARK    1  A    between atoms: C_2  and  C_4 
REMARK    2  A    between atoms: C_2  and  O_3 
REMARK    3  A    between atoms: C_4  and  O_5 
REMARK    4  A    between atoms: O_5  and  C_6 
ROOT
HETATM    1  C   LIG     1      15.105  33.302  17.599  1.00  0.00     0.091 A 
HETATM    2  C   LIG     1      15.555  33.980  18.751  1.00  0.00     0.038 A 
HETATM    3  C   LIG     1      15.453  33.378  20.009  1.00  0.00     0.003 A 
HETATM    4  C   LIG     1      14.903  32.101  20.132  1.00  0.00     0.002 A 
HETATM    5  C   LIG     1      14.454  31.421  18.998  1.00  0.00     0.026 A 
HETATM    6  C   LIG     1      14.553  32.017  17.735  1.00  0.00     0.067 A 
HETATM    7 CL   LIG     1      13.981  31.140  16.324  1.00  0.00    -0.081 Cl
ENDROOT
BRANCH   1   8
HETATM    8  O   LIG     1      15.189  33.870  16.318  1.00  0.00    -0.339 OA
BRANCH   8   9
HETATM    9  C   LIG     1      16.405  34.081  15.607  1.00  0.00     0.285 C 
BRANCH   9  10
HETATM   10  C   LIG     1      16.706  32.875  14.783  1.00  0.00     0.164 C 
HETATM   11  O   LIG     1      17.445  31.965  15.245  1.00  0.00    -0.648 OA
BRANCH  10  12
HETATM   12  O   LIG     1      16.130  32.733  13.525  1.00  0.00    -0.775 OA
HETATM   13  H   LIG     1      16.047  33.526  12.899  1.00  0.00     0.167 HD
ENDBRANCH  10  12
ENDBRANCH   9  10
ENDBRANCH   8   9
ENDBRANCH   1   8
TORSDOF 4
ENDMDL
MODEL 20
REMARK VINA RESULT:      -4.0     16.062     16.852
REMARK  4 active torsions:
REMARK  status: ('A' for Active; 'I' for Inactive)
REMARK    1  A    between atoms: C_2  and  C_4 
REMARK    2  A    between atoms: C_2  and  O_3 
REMARK    3  A    between atoms: C_4  and  O_5 
REMARK    4  A    between atoms: O_5  and  C_6 
ROOT
HETATM    1  C   LIG     1      26.761  30.511  35.862  1.00  0.00     0.091 A 
HETATM    2  C   LIG     1      25.848  30.701  36.920  1.00  0.00     0.038 A 
HETATM    3  C   LIG     1      26.218  31.443  38.046  1.00  0.00     0.003 A 
HETATM    4  C   LIG     1      27.494  32.001  38.129  1.00  0.00     0.002 A 
HETATM    5  C   LIG     1      28.407  31.818  37.088  1.00  0.00     0.026 A 
HETATM    6  C   LIG     1      28.044  31.076  35.958  1.00  0.00     0.067 A 
HETATM    7 CL   LIG     1      29.210  30.861  34.662  1.00  0.00    -0.081 Cl
ENDROOT
BRANCH   1   8
HETATM    8  O   LIG     1      26.432  29.773  34.715  1.00  0.00    -0.339 OA
BRANCH   8   9
HETATM    9  C   LIG     1      26.585  28.362  34.590  1.00  0.00     0.285 C 
BRANCH   9  10
HETATM   10  C   LIG     1      26.757  28.014  33.151  1.00  0.00     0.164 C 
HETATM   11  O   LIG     1      27.797  28.372  32.536  1.00  0.00    -0.648 OA
BRANCH  10  12
HETATM   12  O   LIG     1      25.791  27.253  32.500  1.00  0.00    -0.775 OA
HETATM   13  H   LIG     1      25.982  26.297  32.225  1.00  0.00     0.167 HD
ENDBRANCH  10  12
ENDBRANCH   9  10
ENDBRANCH   8   9
ENDBRANCH   1   8
TORSDOF 4
ENDMDL
