MODEL 1
REMARK VINA RESULT:     -10.1      0.000      0.000
REMARK  4 active torsions:
REMARK  status: ('A' for Active; 'I' for Inactive)
REMARK    1  A    between atoms: O_1  and  C_2 
REMARK    2  A    between atoms: C_2  and  C_9 
REMARK    3  A    between atoms: C_2  and  C_3 
REMARK    4  A    between atoms: C_9  and  C_10 
ROOT
HETATM    1  C   LIG     1      16.546  37.744  23.383  1.00  0.00     0.155 C 
ENDROOT
BRANCH   1   2
HETATM    2  O   LIG     1      15.207  38.030  23.689  1.00  0.00    -0.391 OA
HETATM    3  H   LIG     1      15.123  39.019  23.709  1.00  0.00     0.210 HD
ENDBRANCH   1   2
BRANCH   1   4
HETATM    4  C   LIG     1      16.607  37.010  22.031  1.00  0.00     0.075 C 
BRANCH   4   5
HETATM    5  C   LIG     1      17.740  37.511  21.169  1.00  0.00    -0.055 A 
HETATM    6  C   LIG     1      18.325  36.669  20.207  1.00  0.00     0.007 A 
HETATM    7  C   LIG     1      19.363  37.139  19.396  1.00  0.00     0.001 A 
HETATM    8  C   LIG     1      19.825  38.450  19.540  1.00  0.00     0.000 A 
HETATM    9  C   LIG     1      19.252  39.293  20.497  1.00  0.00     0.001 A 
HETATM   10  C   LIG     1      18.215  38.826  21.310  1.00  0.00     0.007 A 
ENDBRANCH   4   5
ENDBRANCH   1   4
BRANCH   1  11
HETATM   11  C   LIG     1      17.162  36.911  24.490  1.00  0.00    -0.029 A 
HETATM   12  C   LIG     1      17.873  37.531  25.532  1.00  0.00     0.010 A 
HETATM   13  C   LIG     1      18.460  36.763  26.541  1.00  0.00     0.001 A 
HETATM   14  C   LIG     1      18.340  35.371  26.522  1.00  0.00     0.000 A 
HETATM   15  C   LIG     1      17.633  34.744  25.494  1.00  0.00     0.001 A 
HETATM   16  C   LIG     1      17.045  35.508  24.481  1.00  0.00     0.010 A 
ENDBRANCH   1  11
TORSDOF 4
ENDMDL
MODEL 2
REMARK VINA RESULT:     -10.1      0.020      1.251
REMARK  4 active torsions:
REMARK  status: ('A' for Active; 'I' for Inactive)
REMARK    1  A    between atoms: O_1  and  C_2 
REMARK    2  A    between atoms: C_2  and  C_9 
REMARK    3  A    between atoms: C_2  and  C_3 
REMARK    4  A    between atoms: C_9  and  C_10 
ROOT
HETATM    1  C   LIG     1      16.553  37.743  23.392  1.00  0.00     0.155 C 
ENDROOT
BRANCH   1   2
HETATM    2  O   LIG     1      15.215  38.032  23.698  1.00  0.00    -0.391 OA
HETATM    3  H   LIG     1      14.927  38.751  23.077  1.00  0.00     0.210 HD
ENDBRANCH   1   2
BRANCH   1   4
HETATM    4  C   LIG     1      16.613  37.004  22.043  1.00  0.00     0.075 C 
BRANCH   4   5
HETATM    5  C   LIG     1      17.731  37.518  21.168  1.00  0.00    -0.055 A 
HETATM    6  C   LIG     1      18.192  38.838  21.310  1.00  0.00     0.007 A 
HETATM    7  C   LIG     1      19.240  39.308  20.511  1.00  0.00     0.001 A 
HETATM    8  C   LIG     1      19.832  38.466  19.566  1.00  0.00     0.000 A 
HETATM    9  C   LIG     1      19.377  37.153  19.416  1.00  0.00     0.001 A 
HETATM   10  C   LIG     1      18.330  36.680  20.212  1.00  0.00     0.007 A 
ENDBRANCH   4   5
ENDBRANCH   1   4
BRANCH   1  11
HETATM   11  C   LIG     1      17.169  36.914  24.501  1.00  0.00    -0.029 A 
HETATM   12  C   LIG     1      17.869  37.539  25.548  1.00  0.00     0.010 A 
HETATM   13  C   LIG     1      18.455  36.774  26.561  1.00  0.00     0.001 A 
HETATM   14  C   LIG     1      18.347  35.381  26.539  1.00  0.00     0.000 A 
HETATM   15  C   LIG     1      17.651  34.750  25.506  1.00  0.00     0.001 A 
HETATM   16  C   LIG     1      17.064  35.510  24.490  1.00  0.00     0.010 A 
ENDBRANCH   1  11
TORSDOF 4
ENDMDL
MODEL 3
REMARK VINA RESULT:      -9.7      0.770      5.485
REMARK  4 active torsions:
REMARK  status: ('A' for Active; 'I' for Inactive)
REMARK    1  A    between atoms: O_1  and  C_2 
REMARK    2  A    between atoms: C_2  and  C_9 
REMARK    3  A    between atoms: C_2  and  C_3 
REMARK    4  A    between atoms: C_9  and  C_10 
ROOT
HETATM    1  C   LIG     1      16.562  38.125  22.843  1.00  0.00     0.155 C 
ENDROOT
BRANCH   1   2
HETATM    2  O   LIG     1      15.583  39.101  22.605  1.00  0.00    -0.391 OA
HETATM    3  H   LIG     1      14.717  38.624  22.517  1.00  0.00     0.210 HD
ENDBRANCH   1   2
BRANCH   1   4
HETATM    4  C   LIG     1      17.262  38.427  24.179  1.00  0.00     0.075 C 
BRANCH   4   5
HETATM    5  C   LIG     1      17.583  37.167  24.946  1.00  0.00    -0.055 A 
HETATM    6  C   LIG     1      18.347  37.229  26.124  1.00  0.00     0.007 A 
HETATM    7  C   LIG     1      18.630  36.064  26.843  1.00  0.00     0.001 A 
HETATM    8  C   LIG     1      18.153  34.829  26.392  1.00  0.00     0.000 A 
HETATM    9  C   LIG     1      17.396  34.758  25.220  1.00  0.00     0.001 A 
HETATM   10  C   LIG     1      17.113  35.921  24.497  1.00  0.00     0.007 A 
ENDBRANCH   4   5
ENDBRANCH   1   4
BRANCH   1  11
HETATM   11  C   LIG     1      17.554  38.098  21.696  1.00  0.00    -0.029 A 
HETATM   12  C   LIG     1      17.711  36.935  20.923  1.00  0.00     0.010 A 
HETATM   13  C   LIG     1      18.640  36.902  19.878  1.00  0.00     0.001 A 
HETATM   14  C   LIG     1      19.417  38.029  19.595  1.00  0.00     0.000 A 
HETATM   15  C   LIG     1      19.265  39.191  20.354  1.00  0.00     0.001 A 
HETATM   16  C   LIG     1      18.338  39.228  21.401  1.00  0.00     0.010 A 
ENDBRANCH   1  11
TORSDOF 4
ENDMDL
MODEL 4
REMARK VINA RESULT:      -9.7      0.763      5.235
REMARK  4 active torsions:
REMARK  status: ('A' for Active; 'I' for Inactive)
REMARK    1  A    between atoms: O_1  and  C_2 
REMARK    2  A    between atoms: C_2  and  C_9 
REMARK    3  A    between atoms: C_2  and  C_3 
REMARK    4  A    between atoms: C_9  and  C_10 
ROOT
HETATM    1  C   LIG     1      16.566  38.105  22.836  1.00  0.00     0.155 C 
ENDROOT
BRANCH   1   2
HETATM    2  O   LIG     1      15.580  39.070  22.581  1.00  0.00    -0.391 OA
HETATM    3  H   LIG     1      15.166  39.295  23.454  1.00  0.00     0.210 HD
ENDBRANCH   1   2
BRANCH   1   4
HETATM    4  C   LIG     1      17.241  38.419  24.183  1.00  0.00     0.075 C 
BRANCH   4   5
HETATM    5  C   LIG     1      17.563  37.165  24.959  1.00  0.00    -0.055 A 
HETATM    6  C   LIG     1      17.111  35.914  24.504  1.00  0.00     0.007 A 
HETATM    7  C   LIG     1      17.425  34.751  25.213  1.00  0.00     0.001 A 
HETATM    8  C   LIG     1      18.189  34.827  26.381  1.00  0.00     0.000 A 
HETATM    9  C   LIG     1      18.640  36.067  26.842  1.00  0.00     0.001 A 
HETATM   10  C   LIG     1      18.328  37.232  26.136  1.00  0.00     0.007 A 
ENDBRANCH   4   5
ENDBRANCH   1   4
BRANCH   1  11
HETATM   11  C   LIG     1      17.576  38.086  21.705  1.00  0.00    -0.029 A 
HETATM   12  C   LIG     1      18.331  39.234  21.411  1.00  0.00     0.010 A 
HETATM   13  C   LIG     1      19.248  39.224  20.355  1.00  0.00     0.001 A 
HETATM   14  C   LIG     1      19.420  38.069  19.587  1.00  0.00     0.000 A 
HETATM   15  C   LIG     1      18.677  36.922  19.874  1.00  0.00     0.001 A 
HETATM   16  C   LIG     1      17.758  36.927  20.928  1.00  0.00     0.010 A 
ENDBRANCH   1  11
TORSDOF 4
ENDMDL
MODEL 5
REMARK VINA RESULT:      -7.6      1.680      2.537
REMARK  4 active torsions:
REMARK  status: ('A' for Active; 'I' for Inactive)
REMARK    1  A    between atoms: O_1  and  C_2 
REMARK    2  A    between atoms: C_2  and  C_9 
REMARK    3  A    between atoms: C_2  and  C_3 
REMARK    4  A    between atoms: C_9  and  C_10 
ROOT
HETATM    1  C   LIG     1      17.187  38.131  24.022  1.00  0.00     0.155 C 
ENDROOT
BRANCH   1   2
HETATM    2  O   LIG     1      17.072  39.322  24.753  1.00  0.00    -0.391 OA
HETATM    3  H   LIG     1      17.309  39.106  25.693  1.00  0.00     0.210 HD
ENDBRANCH   1   2
BRANCH   1   4
HETATM    4  C   LIG     1      15.853  37.847  23.309  1.00  0.00     0.075 C 
BRANCH   4   5
HETATM    5  C   LIG     1      16.038  36.963  22.099  1.00  0.00    -0.055 A 
HETATM    6  C   LIG     1      17.255  36.968  21.396  1.00  0.00     0.007 A 
HETATM    7  C   LIG     1      17.432  36.135  20.287  1.00  0.00     0.001 A 
HETATM    8  C   LIG     1      16.396  35.295  19.869  1.00  0.00     0.000 A 
HETATM    9  C   LIG     1      15.181  35.287  20.560  1.00  0.00     0.001 A 
HETATM   10  C   LIG     1      15.000  36.118  21.669  1.00  0.00     0.007 A 
ENDBRANCH   4   5
ENDBRANCH   1   4
BRANCH   1  11
HETATM   11  C   LIG     1      17.571  36.992  24.946  1.00  0.00    -0.029 A 
HETATM   12  C   LIG     1      18.369  37.236  26.077  1.00  0.00     0.010 A 
HETATM   13  C   LIG     1      18.742  36.184  26.918  1.00  0.00     0.001 A 
HETATM   14  C   LIG     1      18.319  34.881  26.640  1.00  0.00     0.000 A 
HETATM   15  C   LIG     1      17.523  34.628  25.521  1.00  0.00     0.001 A 
HETATM   16  C   LIG     1      17.149  35.678  24.676  1.00  0.00     0.010 A 
ENDBRANCH   1  11
TORSDOF 4
ENDMDL
MODEL 6
REMARK VINA RESULT:      -7.5      3.373      6.111
REMARK  4 active torsions:
REMARK  status: ('A' for Active; 'I' for Inactive)
REMARK    1  A    between atoms: O_1  and  C_2 
REMARK    2  A    between atoms: C_2  and  C_9 
REMARK    3  A    between atoms: C_2  and  C_3 
REMARK    4  A    between atoms: C_9  and  C_10 
ROOT
HETATM    1  C   LIG     1      15.418  34.672  21.421  1.00  0.00     0.155 C 
ENDROOT
BRANCH   1   2
HETATM    2  O   LIG     1      14.247  35.410  21.645  1.00  0.00    -0.391 OA
HETATM    3  H   LIG     1      13.491  34.853  21.323  1.00  0.00     0.210 HD
ENDBRANCH   1   2
BRANCH   1   4
HETATM    4  C   LIG     1      16.631  35.617  21.493  1.00  0.00     0.075 C 
BRANCH   4   5
HETATM    5  C   LIG     1      16.971  35.991  22.916  1.00  0.00    -0.055 A 
HETATM    6  C   LIG     1      17.080  37.342  23.288  1.00  0.00     0.007 A 
HETATM    7  C   LIG     1      17.378  37.688  24.609  1.00  0.00     0.001 A 
HETATM    8  C   LIG     1      17.570  36.689  25.568  1.00  0.00     0.000 A 
HETATM    9  C   LIG     1      17.467  35.343  25.206  1.00  0.00     0.001 A 
HETATM   10  C   LIG     1      17.171  34.994  23.886  1.00  0.00     0.007 A 
ENDBRANCH   4   5
ENDBRANCH   1   4
BRANCH   1  11
HETATM   11  C   LIG     1      15.342  33.976  20.076  1.00  0.00    -0.029 A 
HETATM   12  C   LIG     1      15.404  34.724  18.888  1.00  0.00     0.010 A 
HETATM   13  C   LIG     1      15.313  34.086  17.647  1.00  0.00     0.001 A 
HETATM   14  C   LIG     1      15.163  32.698  17.582  1.00  0.00     0.000 A 
HETATM   15  C   LIG     1      15.104  31.946  18.757  1.00  0.00     0.001 A 
HETATM   16  C   LIG     1      15.193  32.579  20.000  1.00  0.00     0.010 A 
ENDBRANCH   1  11
TORSDOF 4
ENDMDL
