REMARK  2 active torsions:
REMARK  status: ('A' for Active; 'I' for Inactive)
REMARK    1  A    between atoms: C_2  and  C_3 
REMARK       I    between atoms: C_2  and  N_9 
REMARK       I    between atoms: N_9  and  C_10 
REMARK    2  A    between atoms: C_10  and  C_11 
ROOT
HETATM    1  O   LIG     1      -0.972  -2.656  -0.247  1.00  0.00    -0.267 OA
HETATM    2  C   LIG     1      -1.089  -1.421  -0.016  1.00  0.00     0.258 C 
HETATM    3  N   LIG     1       0.081  -0.619   0.229  1.00  0.00    -0.289 N 
HETATM    4  C   LIG     1       1.428  -1.083   0.020  1.00  0.00     0.258 C 
HETATM    5  O   LIG     1       1.646  -2.305  -0.210  1.00  0.00    -0.267 OA
HETATM    6  H   LIG     1      -0.052   0.328   0.647  1.00  0.00     0.172 HD
ENDROOT
BRANCH   2   7
HETATM    7  C   LIG     1      -2.445  -0.820   0.018  1.00  0.00     0.032 A 
HETATM    8  C   LIG     1      -2.640   0.549  -0.248  1.00  0.00     0.017 A 
HETATM    9  C   LIG     1      -3.926   1.099  -0.219  1.00  0.00     0.001 A 
HETATM   10  C   LIG     1      -5.028   0.292   0.068  1.00  0.00     0.000 A 
HETATM   11  C   LIG     1      -4.849  -1.069   0.322  1.00  0.00     0.001 A 
HETATM   12  C   LIG     1      -3.566  -1.625   0.293  1.00  0.00     0.017 A 
ENDBRANCH   2   7
BRANCH   4  13
HETATM   13  C   LIG     1       2.575  -0.147   0.089  1.00  0.00     0.032 A 
HETATM   14  C   LIG     1       3.861  -0.629   0.399  1.00  0.00     0.017 A 
HETATM   15  C   LIG     1       4.951   0.245   0.461  1.00  0.00     0.001 A 
HETATM   16  C   LIG     1       4.772   1.606   0.207  1.00  0.00     0.000 A 
HETATM   17  C   LIG     1       3.504   2.096  -0.114  1.00  0.00     0.001 A 
HETATM   18  C   LIG     1       2.410   1.226  -0.176  1.00  0.00     0.017 A 
ENDBRANCH   4  13
TORSDOF 2
