MODEL 1
REMARK VINA RESULT:      -6.5      0.000      0.000
REMARK  2 active torsions:
REMARK  status: ('A' for Active; 'I' for Inactive)
REMARK       I    between atoms: C_2  and  N_3 
REMARK    1  A    between atoms: N_3  and  C_4 
REMARK    2  A    between atoms: C_9  and  O_10 
ROOT
HETATM    1  C   LIG     1      16.960  35.807  24.192  1.00  0.00     0.068 A 
HETATM    2  C   LIG     1      17.597  34.897  25.048  1.00  0.00     0.032 A 
HETATM    3  C   LIG     1      18.239  35.343  26.207  1.00  0.00     0.002 A 
HETATM    4  C   LIG     1      18.236  36.701  26.528  1.00  0.00     0.003 A 
HETATM    5  C   LIG     1      17.581  37.615  25.700  1.00  0.00     0.039 A 
HETATM    6  C   LIG     1      16.928  37.175  24.538  1.00  0.00     0.092 A 
ENDROOT
BRANCH   1   7
HETATM    7  N   LIG     1      16.304  35.317  23.013  1.00  0.00    -0.325 N 
HETATM    8  C   LIG     1      16.658  35.730  21.685  1.00  0.00     0.218 C 
HETATM    9  C   LIG     1      15.843  35.265  20.522  1.00  0.00     0.117 C 
HETATM   10  O   LIG     1      17.668  36.456  21.487  1.00  0.00    -0.274 OA
HETATM   11  H   LIG     1      15.642  34.515  23.116  1.00  0.00     0.169 HD
ENDBRANCH   1   7
BRANCH   6  12
HETATM   12  O   LIG     1      16.230  38.085  23.746  1.00  0.00    -0.358 OA
HETATM   13  H   LIG     1      15.591  37.780  23.022  1.00  0.00     0.217 HD
ENDBRANCH   6  12
TORSDOF 2
ENDMDL
MODEL 2
REMARK VINA RESULT:      -6.2      5.555      9.100
REMARK  2 active torsions:
REMARK  status: ('A' for Active; 'I' for Inactive)
REMARK       I    between atoms: C_2  and  N_3 
REMARK    1  A    between atoms: N_3  and  C_4 
REMARK    2  A    between atoms: C_9  and  O_10 
ROOT
HETATM    1  C   LIG     1      14.726  32.417  17.085  1.00  0.00     0.068 A 
HETATM    2  C   LIG     1      13.557  31.645  17.166  1.00  0.00     0.032 A 
HETATM    3  C   LIG     1      13.240  30.731  16.157  1.00  0.00     0.002 A 
HETATM    4  C   LIG     1      14.096  30.569  15.068  1.00  0.00     0.003 A 
HETATM    5  C   LIG     1      15.277  31.310  14.988  1.00  0.00     0.039 A 
HETATM    6  C   LIG     1      15.607  32.226  16.000  1.00  0.00     0.092 A 
ENDROOT
BRANCH   1   7
HETATM    7  N   LIG     1      15.026  33.343  18.140  1.00  0.00    -0.325 N 
HETATM    8  C   LIG     1      15.454  32.935  19.447  1.00  0.00     0.218 C 
HETATM    9  C   LIG     1      15.627  33.958  20.524  1.00  0.00     0.117 C 
HETATM   10  O   LIG     1      15.715  31.727  19.689  1.00  0.00    -0.274 OA
HETATM   11  H   LIG     1      15.080  34.360  17.903  1.00  0.00     0.169 HD
ENDBRANCH   1   7
BRANCH   6  12
HETATM   12  O   LIG     1      16.813  32.920  15.941  1.00  0.00    -0.358 OA
HETATM   13  H   LIG     1      17.586  32.698  16.557  1.00  0.00     0.217 HD
ENDBRANCH   6  12
TORSDOF 2
ENDMDL
MODEL 3
REMARK VINA RESULT:      -6.1      3.488      4.263
REMARK  2 active torsions:
REMARK  status: ('A' for Active; 'I' for Inactive)
REMARK       I    between atoms: C_2  and  N_3 
REMARK    1  A    between atoms: N_3  and  C_4 
REMARK    2  A    between atoms: C_9  and  O_10 
ROOT
HETATM    1  C   LIG     1      17.802  37.007  20.963  1.00  0.00     0.068 A 
HETATM    2  C   LIG     1      18.729  36.762  19.938  1.00  0.00     0.032 A 
HETATM    3  C   LIG     1      19.544  37.792  19.460  1.00  0.00     0.002 A 
HETATM    4  C   LIG     1      19.452  39.070  20.012  1.00  0.00     0.003 A 
HETATM    5  C   LIG     1      18.553  39.320  21.052  1.00  0.00     0.039 A 
HETATM    6  C   LIG     1      17.735  38.291  21.543  1.00  0.00     0.092 A 
ENDROOT
BRANCH   1   7
HETATM    7  N   LIG     1      16.983  35.927  21.437  1.00  0.00    -0.325 N 
HETATM    8  C   LIG     1      16.122  35.158  20.584  1.00  0.00     0.218 C 
HETATM    9  C   LIG     1      15.212  34.133  21.179  1.00  0.00     0.117 C 
HETATM   10  O   LIG     1      16.149  35.317  19.334  1.00  0.00    -0.274 OA
HETATM   11  H   LIG     1      17.131  35.589  22.415  1.00  0.00     0.169 HD
ENDBRANCH   1   7
BRANCH   6  12
HETATM   12  O   LIG     1      16.881  38.535  22.618  1.00  0.00    -0.358 OA
HETATM   13  H   LIG     1      15.904  38.763  22.479  1.00  0.00     0.217 HD
ENDBRANCH   6  12
TORSDOF 2
ENDMDL
MODEL 4
REMARK VINA RESULT:      -6.1      5.636      9.085
REMARK  2 active torsions:
REMARK  status: ('A' for Active; 'I' for Inactive)
REMARK       I    between atoms: C_2  and  N_3 
REMARK    1  A    between atoms: N_3  and  C_4 
REMARK    2  A    between atoms: C_9  and  O_10 
ROOT
HETATM    1  C   LIG     1      15.120  32.549  16.953  1.00  0.00     0.068 A 
HETATM    2  C   LIG     1      16.103  32.549  15.953  1.00  0.00     0.032 A 
HETATM    3  C   LIG     1      15.986  31.706  14.844  1.00  0.00     0.002 A 
HETATM    4  C   LIG     1      14.877  30.869  14.717  1.00  0.00     0.003 A 
HETATM    5  C   LIG     1      13.876  30.880  15.691  1.00  0.00     0.039 A 
HETATM    6  C   LIG     1      13.983  31.728  16.805  1.00  0.00     0.092 A 
ENDROOT
BRANCH   1   7
HETATM    7  N   LIG     1      15.266  33.431  18.076  1.00  0.00    -0.325 N 
HETATM    8  C   LIG     1      15.447  32.969  19.423  1.00  0.00     0.218 C 
HETATM    9  C   LIG     1      15.467  33.951  20.548  1.00  0.00     0.117 C 
HETATM   10  O   LIG     1      15.621  31.744  19.662  1.00  0.00    -0.274 OA
HETATM   11  H   LIG     1      15.394  34.452  17.889  1.00  0.00     0.169 HD
ENDBRANCH   1   7
BRANCH   6  12
HETATM   12  O   LIG     1      12.954  31.773  17.744  1.00  0.00    -0.358 OA
HETATM   13  H   LIG     1      12.921  32.485  18.463  1.00  0.00     0.217 HD
ENDBRANCH   6  12
TORSDOF 2
ENDMDL
MODEL 5
REMARK VINA RESULT:      -6.1      2.970      5.189
REMARK  2 active torsions:
REMARK  status: ('A' for Active; 'I' for Inactive)
REMARK       I    between atoms: C_2  and  N_3 
REMARK    1  A    between atoms: N_3  and  C_4 
REMARK    2  A    between atoms: C_9  and  O_10 
ROOT
HETATM    1  C   LIG     1      17.892  38.055  21.624  1.00  0.00     0.068 A 
HETATM    2  C   LIG     1      18.424  39.257  21.134  1.00  0.00     0.032 A 
HETATM    3  C   LIG     1      19.078  39.290  19.899  1.00  0.00     0.002 A 
HETATM    4  C   LIG     1      19.192  38.127  19.137  1.00  0.00     0.003 A 
HETATM    5  C   LIG     1      18.641  36.930  19.600  1.00  0.00     0.039 A 
HETATM    6  C   LIG     1      17.977  36.889  20.836  1.00  0.00     0.092 A 
ENDROOT
BRANCH   1   7
HETATM    7  N   LIG     1      17.220  38.055  22.893  1.00  0.00    -0.325 N 
HETATM    8  C   LIG     1      17.909  38.143  24.149  1.00  0.00     0.218 C 
HETATM    9  C   LIG     1      17.143  38.011  25.426  1.00  0.00     0.117 C 
HETATM   10  O   LIG     1      19.149  38.360  24.187  1.00  0.00    -0.274 OA
HETATM   11  H   LIG     1      16.179  38.144  22.899  1.00  0.00     0.169 HD
ENDBRANCH   1   7
BRANCH   6  12
HETATM   12  O   LIG     1      17.382  35.703  21.265  1.00  0.00    -0.358 OA
HETATM   13  H   LIG     1      16.674  35.695  21.989  1.00  0.00     0.217 HD
ENDBRANCH   6  12
TORSDOF 2
ENDMDL
MODEL 6
REMARK VINA RESULT:      -6.0      3.097      4.992
REMARK  2 active torsions:
REMARK  status: ('A' for Active; 'I' for Inactive)
REMARK       I    between atoms: C_2  and  N_3 
REMARK    1  A    between atoms: N_3  and  C_4 
REMARK    2  A    between atoms: C_9  and  O_10 
ROOT
HETATM    1  C   LIG     1      17.875  37.993  21.625  1.00  0.00     0.068 A 
HETATM    2  C   LIG     1      17.853  36.796  20.892  1.00  0.00     0.032 A 
HETATM    3  C   LIG     1      18.494  36.713  19.652  1.00  0.00     0.002 A 
HETATM    4  C   LIG     1      19.174  37.820  19.141  1.00  0.00     0.003 A 
HETATM    5  C   LIG     1      19.227  39.008  19.874  1.00  0.00     0.039 A 
HETATM    6  C   LIG     1      18.593  39.098  21.123  1.00  0.00     0.092 A 
ENDROOT
BRANCH   1   7
HETATM    7  N   LIG     1      17.213  38.044  22.898  1.00  0.00    -0.325 N 
HETATM    8  C   LIG     1      17.914  38.142  24.146  1.00  0.00     0.218 C 
HETATM    9  C   LIG     1      17.155  38.065  25.431  1.00  0.00     0.117 C 
HETATM   10  O   LIG     1      19.161  38.323  24.170  1.00  0.00    -0.274 OA
HETATM   11  H   LIG     1      16.175  38.165  22.909  1.00  0.00     0.169 HD
ENDBRANCH   1   7
BRANCH   6  12
HETATM   12  O   LIG     1      18.698  40.269  21.871  1.00  0.00    -0.358 OA
HETATM   13  H   LIG     1      18.236  41.125  21.588  1.00  0.00     0.217 HD
ENDBRANCH   6  12
TORSDOF 2
ENDMDL
MODEL 7
REMARK VINA RESULT:      -5.9      3.098      3.774
REMARK  2 active torsions:
REMARK  status: ('A' for Active; 'I' for Inactive)
REMARK       I    between atoms: C_2  and  N_3 
REMARK    1  A    between atoms: N_3  and  C_4 
REMARK    2  A    between atoms: C_9  and  O_10 
ROOT
HETATM    1  C   LIG     1      16.973  36.326  21.575  1.00  0.00     0.068 A 
HETATM    2  C   LIG     1      16.280  37.079  22.534  1.00  0.00     0.032 A 
HETATM    3  C   LIG     1      16.591  38.426  22.738  1.00  0.00     0.002 A 
HETATM    4  C   LIG     1      17.587  39.037  21.975  1.00  0.00     0.003 A 
HETATM    5  C   LIG     1      18.265  38.307  20.996  1.00  0.00     0.039 A 
HETATM    6  C   LIG     1      17.954  36.955  20.780  1.00  0.00     0.092 A 
ENDROOT
BRANCH   1   7
HETATM    7  N   LIG     1      16.626  34.946  21.384  1.00  0.00    -0.325 N 
HETATM    8  C   LIG     1      15.932  34.461  20.225  1.00  0.00     0.218 C 
HETATM    9  C   LIG     1      15.500  33.032  20.163  1.00  0.00     0.117 C 
HETATM   10  O   LIG     1      15.710  35.221  19.245  1.00  0.00    -0.274 OA
HETATM   11  H   LIG     1      17.024  34.242  22.046  1.00  0.00     0.169 HD
ENDBRANCH   1   7
BRANCH   6  12
HETATM   12  O   LIG     1      18.597  36.249  19.764  1.00  0.00    -0.358 OA
HETATM   13  H   LIG     1      18.863  35.278  19.877  1.00  0.00     0.217 HD
ENDBRANCH   6  12
TORSDOF 2
ENDMDL
MODEL 8
REMARK VINA RESULT:      -5.8     10.181     11.977
REMARK  2 active torsions:
REMARK  status: ('A' for Active; 'I' for Inactive)
REMARK       I    between atoms: C_2  and  N_3 
REMARK    1  A    between atoms: N_3  and  C_4 
REMARK    2  A    between atoms: C_9  and  O_10 
ROOT
HETATM    1  C   LIG     1      13.575  29.944  14.618  1.00  0.00     0.068 A 
HETATM    2  C   LIG     1      14.721  30.248  13.868  1.00  0.00     0.032 A 
HETATM    3  C   LIG     1      15.631  31.206  14.321  1.00  0.00     0.002 A 
HETATM    4  C   LIG     1      15.413  31.858  15.536  1.00  0.00     0.003 A 
HETATM    5  C   LIG     1      14.291  31.544  16.307  1.00  0.00     0.039 A 
HETATM    6  C   LIG     1      13.375  30.578  15.862  1.00  0.00     0.092 A 
ENDROOT
BRANCH   1   7
HETATM    7  N   LIG     1      12.662  28.950  14.129  1.00  0.00    -0.325 N 
HETATM    8  C   LIG     1      13.082  27.669  13.638  1.00  0.00     0.218 C 
HETATM    9  C   LIG     1      12.079  26.741  13.032  1.00  0.00     0.117 C 
HETATM   10  O   LIG     1      14.284  27.305  13.740  1.00  0.00    -0.274 OA
HETATM   11  H   LIG     1      11.639  29.107  14.274  1.00  0.00     0.169 HD
ENDBRANCH   1   7
BRANCH   6  12
HETATM   12  O   LIG     1      12.288  30.232  16.663  1.00  0.00    -0.358 OA
HETATM   13  H   LIG     1      12.053  30.758  17.497  1.00  0.00     0.217 HD
ENDBRANCH   6  12
TORSDOF 2
ENDMDL
MODEL 9
REMARK VINA RESULT:      -5.7      2.143      3.936
REMARK  2 active torsions:
REMARK  status: ('A' for Active; 'I' for Inactive)
REMARK       I    between atoms: C_2  and  N_3 
REMARK    1  A    between atoms: N_3  and  C_4 
REMARK    2  A    between atoms: C_9  and  O_10 
ROOT
HETATM    1  C   LIG     1      17.221  37.002  23.153  1.00  0.00     0.068 A 
HETATM    2  C   LIG     1      17.647  36.567  21.889  1.00  0.00     0.032 A 
HETATM    3  C   LIG     1      17.987  37.494  20.899  1.00  0.00     0.002 A 
HETATM    4  C   LIG     1      17.919  38.861  21.168  1.00  0.00     0.003 A 
HETATM    5  C   LIG     1      17.523  39.307  22.432  1.00  0.00     0.039 A 
HETATM    6  C   LIG     1      17.186  38.384  23.434  1.00  0.00     0.092 A 
ENDROOT
BRANCH   1   7
HETATM    7  N   LIG     1      16.885  36.026  24.151  1.00  0.00    -0.325 N 
HETATM    8  C   LIG     1      17.636  35.844  25.360  1.00  0.00     0.218 C 
HETATM    9  C   LIG     1      17.292  34.723  26.286  1.00  0.00     0.117 C 
HETATM   10  O   LIG     1      18.565  36.640  25.663  1.00  0.00    -0.274 OA
HETATM   11  H   LIG     1      15.970  35.527  24.064  1.00  0.00     0.169 HD
ENDBRANCH   1   7
BRANCH   6  12
HETATM   12  O   LIG     1      16.846  38.835  24.708  1.00  0.00    -0.358 OA
HETATM   13  H   LIG     1      17.074  39.773  25.018  1.00  0.00     0.217 HD
ENDBRANCH   6  12
TORSDOF 2
ENDMDL
MODEL 10
REMARK VINA RESULT:      -5.7      8.493      9.844
REMARK  2 active torsions:
REMARK  status: ('A' for Active; 'I' for Inactive)
REMARK       I    between atoms: C_2  and  N_3 
REMARK    1  A    between atoms: N_3  and  C_4 
REMARK    2  A    between atoms: C_9  and  O_10 
ROOT
HETATM    1  C   LIG     1      15.860  32.171  15.626  1.00  0.00     0.068 A 
HETATM    2  C   LIG     1      15.345  31.062  14.937  1.00  0.00     0.032 A 
HETATM    3  C   LIG     1      14.104  30.523  15.289  1.00  0.00     0.002 A 
HETATM    4  C   LIG     1      13.361  31.097  16.320  1.00  0.00     0.003 A 
HETATM    5  C   LIG     1      13.848  32.219  16.995  1.00  0.00     0.039 A 
HETATM    6  C   LIG     1      15.091  32.771  16.644  1.00  0.00     0.092 A 
ENDROOT
BRANCH   1   7
HETATM    7  N   LIG     1      17.135  32.705  15.236  1.00  0.00    -0.325 N 
HETATM    8  C   LIG     1      17.386  33.283  13.947  1.00  0.00     0.218 C 
HETATM    9  C   LIG     1      18.773  33.702  13.580  1.00  0.00     0.117 C 
HETATM   10  O   LIG     1      16.444  33.468  13.132  1.00  0.00    -0.274 OA
HETATM   11  H   LIG     1      17.869  32.813  15.972  1.00  0.00     0.169 HD
ENDBRANCH   1   7
BRANCH   6  12
HETATM   12  O   LIG     1      15.544  33.923  17.285  1.00  0.00    -0.358 OA
HETATM   13  H   LIG     1      16.452  33.959  17.734  1.00  0.00     0.217 HD
ENDBRANCH   6  12
TORSDOF 2
ENDMDL
MODEL 11
REMARK VINA RESULT:      -5.7      2.037      2.368
REMARK  2 active torsions:
REMARK  status: ('A' for Active; 'I' for Inactive)
REMARK       I    between atoms: C_2  and  N_3 
REMARK    1  A    between atoms: N_3  and  C_4 
REMARK    2  A    between atoms: C_9  and  O_10 
ROOT
HETATM    1  C   LIG     1      17.316  36.846  24.305  1.00  0.00     0.068 A 
HETATM    2  C   LIG     1      17.330  35.445  24.240  1.00  0.00     0.032 A 
HETATM    3  C   LIG     1      17.588  34.685  25.385  1.00  0.00     0.002 A 
HETATM    4  C   LIG     1      17.817  35.318  26.606  1.00  0.00     0.003 A 
HETATM    5  C   LIG     1      17.777  36.712  26.691  1.00  0.00     0.039 A 
HETATM    6  C   LIG     1      17.513  37.483  25.548  1.00  0.00     0.092 A 
ENDROOT
BRANCH   1   7
HETATM    7  N   LIG     1      17.042  37.598  23.113  1.00  0.00    -0.325 N 
HETATM    8  C   LIG     1      17.939  38.582  22.579  1.00  0.00     0.218 C 
HETATM    9  C   LIG     1      17.522  39.407  21.405  1.00  0.00     0.117 C 
HETATM   10  O   LIG     1      19.089  38.736  23.071  1.00  0.00    -0.274 OA
HETATM   11  H   LIG     1      16.224  37.313  22.528  1.00  0.00     0.169 HD
ENDBRANCH   1   7
BRANCH   6  12
HETATM   12  O   LIG     1      17.420  38.869  25.653  1.00  0.00    -0.358 OA
HETATM   13  H   LIG     1      17.507  39.343  26.544  1.00  0.00     0.217 HD
ENDBRANCH   6  12
TORSDOF 2
ENDMDL
MODEL 12
REMARK VINA RESULT:      -5.6     10.849     12.275
REMARK  2 active torsions:
REMARK  status: ('A' for Active; 'I' for Inactive)
REMARK       I    between atoms: C_2  and  N_3 
REMARK    1  A    between atoms: N_3  and  C_4 
REMARK    2  A    between atoms: C_9  and  O_10 
ROOT
HETATM    1  C   LIG     1      14.754  29.959  14.050  1.00  0.00     0.068 A 
HETATM    2  C   LIG     1      15.592  30.902  14.665  1.00  0.00     0.032 A 
HETATM    3  C   LIG     1      15.138  31.646  15.758  1.00  0.00     0.002 A 
HETATM    4  C   LIG     1      13.850  31.444  16.254  1.00  0.00     0.003 A 
HETATM    5  C   LIG     1      13.016  30.489  15.669  1.00  0.00     0.039 A 
HETATM    6  C   LIG     1      13.465  29.732  14.576  1.00  0.00     0.092 A 
ENDROOT
BRANCH   1   7
HETATM    7  N   LIG     1      15.252  29.205  12.934  1.00  0.00    -0.325 N 
HETATM    8  C   LIG     1      15.562  27.806  13.004  1.00  0.00     0.218 C 
HETATM    9  C   LIG     1      16.191  27.126  11.831  1.00  0.00     0.117 C 
HETATM   10  O   LIG     1      15.280  27.137  14.033  1.00  0.00    -0.274 OA
HETATM   11  H   LIG     1      15.248  29.659  11.992  1.00  0.00     0.169 HD
ENDBRANCH   1   7
BRANCH   6  12
HETATM   12  O   LIG     1      12.647  28.742  14.033  1.00  0.00    -0.358 OA
HETATM   13  H   LIG     1      12.685  28.501  13.050  1.00  0.00     0.217 HD
ENDBRANCH   6  12
TORSDOF 2
ENDMDL
MODEL 13
REMARK VINA RESULT:      -5.6      1.673      4.472
REMARK  2 active torsions:
REMARK  status: ('A' for Active; 'I' for Inactive)
REMARK       I    between atoms: C_2  and  N_3 
REMARK    1  A    between atoms: N_3  and  C_4 
REMARK    2  A    between atoms: C_9  and  O_10 
ROOT
HETATM    1  C   LIG     1      16.881  35.991  22.365  1.00  0.00     0.068 A 
HETATM    2  C   LIG     1      16.022  34.882  22.337  1.00  0.00     0.032 A 
HETATM    3  C   LIG     1      15.562  34.373  21.118  1.00  0.00     0.002 A 
HETATM    4  C   LIG     1      15.969  34.959  19.919  1.00  0.00     0.003 A 
HETATM    5  C   LIG     1      16.846  36.046  19.932  1.00  0.00     0.039 A 
HETATM    6  C   LIG     1      17.319  36.559  21.150  1.00  0.00     0.092 A 
ENDROOT
BRANCH   1   7
HETATM    7  N   LIG     1      17.342  36.486  23.632  1.00  0.00    -0.325 N 
HETATM    8  C   LIG     1      16.716  37.574  24.328  1.00  0.00     0.218 C 
HETATM    9  C   LIG     1      17.333  38.106  25.580  1.00  0.00     0.117 C 
HETATM   10  O   LIG     1      15.634  38.065  23.909  1.00  0.00    -0.274 OA
HETATM   11  H   LIG     1      18.071  35.936  24.140  1.00  0.00     0.169 HD
ENDBRANCH   1   7
BRANCH   6  12
HETATM   12  O   LIG     1      18.237  37.607  21.153  1.00  0.00    -0.358 OA
HETATM   13  H   LIG     1      18.798  37.821  21.968  1.00  0.00     0.217 HD
ENDBRANCH   6  12
TORSDOF 2
ENDMDL
MODEL 14
REMARK VINA RESULT:      -5.5      5.974      7.614
REMARK  2 active torsions:
REMARK  status: ('A' for Active; 'I' for Inactive)
REMARK       I    between atoms: C_2  and  N_3 
REMARK    1  A    between atoms: N_3  and  C_4 
REMARK    2  A    between atoms: C_9  and  O_10 
ROOT
HETATM    1  C   LIG     1      15.007  32.587  17.850  1.00  0.00     0.068 A 
HETATM    2  C   LIG     1      14.999  32.006  19.128  1.00  0.00     0.032 A 
HETATM    3  C   LIG     1      15.270  32.780  20.260  1.00  0.00     0.002 A 
HETATM    4  C   LIG     1      15.535  34.143  20.127  1.00  0.00     0.003 A 
HETATM    5  C   LIG     1      15.517  34.740  18.864  1.00  0.00     0.039 A 
HETATM    6  C   LIG     1      15.240  33.972  17.722  1.00  0.00     0.092 A 
ENDROOT
BRANCH   1   7
HETATM    7  N   LIG     1      14.718  31.767  16.708  1.00  0.00    -0.325 N 
HETATM    8  C   LIG     1      13.407  31.266  16.409  1.00  0.00     0.218 C 
HETATM    9  C   LIG     1      13.218  30.318  15.269  1.00  0.00     0.117 C 
HETATM   10  O   LIG     1      12.409  31.641  17.078  1.00  0.00    -0.274 OA
HETATM   11  H   LIG     1      15.463  31.652  15.983  1.00  0.00     0.169 HD
ENDBRANCH   1   7
BRANCH   6  12
HETATM   12  O   LIG     1      15.170  34.586  16.473  1.00  0.00    -0.358 OA
HETATM   13  H   LIG     1      15.991  34.976  16.025  1.00  0.00     0.217 HD
ENDBRANCH   6  12
TORSDOF 2
ENDMDL
MODEL 15
REMARK VINA RESULT:      -5.3      3.134      3.666
REMARK  2 active torsions:
REMARK  status: ('A' for Active; 'I' for Inactive)
REMARK       I    between atoms: C_2  and  N_3 
REMARK    1  A    between atoms: N_3  and  C_4 
REMARK    2  A    between atoms: C_9  and  O_10 
ROOT
HETATM    1  C   LIG     1      17.832  38.605  22.187  1.00  0.00     0.068 A 
HETATM    2  C   LIG     1      16.541  38.079  22.341  1.00  0.00     0.032 A 
HETATM    3  C   LIG     1      16.117  37.591  23.581  1.00  0.00     0.002 A 
HETATM    4  C   LIG     1      16.975  37.640  24.681  1.00  0.00     0.003 A 
HETATM    5  C   LIG     1      18.253  38.188  24.548  1.00  0.00     0.039 A 
HETATM    6  C   LIG     1      18.684  38.686  23.309  1.00  0.00     0.092 A 
ENDROOT
BRANCH   1   7
HETATM    7  N   LIG     1      18.235  39.104  20.903  1.00  0.00    -0.325 N 
HETATM    8  C   LIG     1      18.821  38.279  19.886  1.00  0.00     0.218 C 
HETATM    9  C   LIG     1      19.325  38.902  18.624  1.00  0.00     0.117 C 
HETATM   10  O   LIG     1      18.888  37.030  20.033  1.00  0.00    -0.274 OA
HETATM   11  H   LIG     1      17.953  40.077  20.642  1.00  0.00     0.169 HD
ENDBRANCH   1   7
BRANCH   6  12
HETATM   12  O   LIG     1      19.939  39.281  23.198  1.00  0.00    -0.358 OA
HETATM   13  H   LIG     1      20.260  39.689  22.328  1.00  0.00     0.217 HD
ENDBRANCH   6  12
TORSDOF 2
ENDMDL
MODEL 16
REMARK VINA RESULT:      -5.3      9.130     10.496
REMARK  2 active torsions:
REMARK  status: ('A' for Active; 'I' for Inactive)
REMARK       I    between atoms: C_2  and  N_3 
REMARK    1  A    between atoms: N_3  and  C_4 
REMARK    2  A    between atoms: C_9  and  O_10 
ROOT
HETATM    1  C   LIG     1      15.323  31.570  15.188  1.00  0.00     0.068 A 
HETATM    2  C   LIG     1      14.931  32.115  16.420  1.00  0.00     0.032 A 
HETATM    3  C   LIG     1      13.726  31.730  17.014  1.00  0.00     0.002 A 
HETATM    4  C   LIG     1      12.909  30.787  16.390  1.00  0.00     0.003 A 
HETATM    5  C   LIG     1      13.300  30.215  15.178  1.00  0.00     0.039 A 
HETATM    6  C   LIG     1      14.512  30.590  14.577  1.00  0.00     0.092 A 
ENDROOT
BRANCH   1   7
HETATM    7  N   LIG     1      16.569  31.980  14.607  1.00  0.00    -0.325 N 
HETATM    8  C   LIG     1      17.102  33.306  14.738  1.00  0.00     0.218 C 
HETATM    9  C   LIG     1      18.344  33.684  13.998  1.00  0.00     0.117 C 
HETATM   10  O   LIG     1      16.548  34.147  15.495  1.00  0.00    -0.274 OA
HETATM   11  H   LIG     1      17.188  31.243  14.196  1.00  0.00     0.169 HD
ENDBRANCH   1   7
BRANCH   6  12
HETATM   12  O   LIG     1      14.921  29.974  13.395  1.00  0.00    -0.358 OA
HETATM   13  H   LIG     1      14.527  29.092  13.091  1.00  0.00     0.217 HD
ENDBRANCH   6  12
TORSDOF 2
ENDMDL
MODEL 17
REMARK VINA RESULT:      -5.2      2.893      3.922
REMARK  2 active torsions:
REMARK  status: ('A' for Active; 'I' for Inactive)
REMARK       I    between atoms: C_2  and  N_3 
REMARK    1  A    between atoms: N_3  and  C_4 
REMARK    2  A    between atoms: C_9  and  O_10 
ROOT
HETATM    1  C   LIG     1      17.696  37.796  21.532  1.00  0.00     0.068 A 
HETATM    2  C   LIG     1      17.852  38.377  22.799  1.00  0.00     0.032 A 
HETATM    3  C   LIG     1      17.502  37.669  23.952  1.00  0.00     0.002 A 
HETATM    4  C   LIG     1      17.006  36.369  23.850  1.00  0.00     0.003 A 
HETATM    5  C   LIG     1      16.872  35.767  22.596  1.00  0.00     0.039 A 
HETATM    6  C   LIG     1      17.228  36.468  21.433  1.00  0.00     0.092 A 
ENDROOT
BRANCH   1   7
HETATM    7  N   LIG     1      18.071  38.546  20.367  1.00  0.00    -0.325 N 
HETATM    8  C   LIG     1      19.144  38.163  19.495  1.00  0.00     0.218 C 
HETATM    9  C   LIG     1      19.549  39.066  18.375  1.00  0.00     0.117 C 
HETATM   10  O   LIG     1      19.730  37.057  19.645  1.00  0.00    -0.274 OA
HETATM   11  H   LIG     1      17.443  39.322  20.057  1.00  0.00     0.169 HD
ENDBRANCH   1   7
BRANCH   6  12
HETATM   12  O   LIG     1      17.143  35.841  20.191  1.00  0.00    -0.358 OA
HETATM   13  H   LIG     1      16.252  35.684  19.735  1.00  0.00     0.217 HD
ENDBRANCH   6  12
TORSDOF 2
ENDMDL
MODEL 18
REMARK VINA RESULT:      -5.1      4.002      4.843
REMARK  2 active torsions:
REMARK  status: ('A' for Active; 'I' for Inactive)
REMARK       I    between atoms: C_2  and  N_3 
REMARK    1  A    between atoms: N_3  and  C_4 
REMARK    2  A    between atoms: C_9  and  O_10 
ROOT
HETATM    1  C   LIG     1      18.556  37.790  20.295  1.00  0.00     0.068 A 
HETATM    2  C   LIG     1      17.913  36.544  20.336  1.00  0.00     0.032 A 
HETATM    3  C   LIG     1      17.164  36.169  21.456  1.00  0.00     0.002 A 
HETATM    4  C   LIG     1      17.040  37.042  22.537  1.00  0.00     0.003 A 
HETATM    5  C   LIG     1      17.651  38.297  22.497  1.00  0.00     0.039 A 
HETATM    6  C   LIG     1      18.399  38.685  21.374  1.00  0.00     0.092 A 
ENDROOT
BRANCH   1   7
HETATM    7  N   LIG     1      19.312  38.148  19.129  1.00  0.00    -0.325 N 
HETATM    8  C   LIG     1      18.936  39.212  18.242  1.00  0.00     0.218 C 
HETATM    9  C   LIG     1      19.710  39.438  16.984  1.00  0.00     0.117 C 
HETATM   10  O   LIG     1      17.977  39.978  18.530  1.00  0.00    -0.274 OA
HETATM   11  H   LIG     1      20.254  37.714  19.000  1.00  0.00     0.169 HD
ENDBRANCH   1   7
BRANCH   6  12
HETATM   12  O   LIG     1      18.960  39.959  21.320  1.00  0.00    -0.358 OA
HETATM   13  H   LIG     1      18.765  40.594  20.555  1.00  0.00     0.217 HD
ENDBRANCH   6  12
TORSDOF 2
ENDMDL
MODEL 19
REMARK VINA RESULT:      -5.1      2.633      3.488
REMARK  2 active torsions:
REMARK  status: ('A' for Active; 'I' for Inactive)
REMARK       I    between atoms: C_2  and  N_3 
REMARK    1  A    between atoms: N_3  and  C_4 
REMARK    2  A    between atoms: C_9  and  O_10 
ROOT
HETATM    1  C   LIG     1      17.597  37.125  21.591  1.00  0.00     0.068 A 
HETATM    2  C   LIG     1      17.235  35.825  21.208  1.00  0.00     0.032 A 
HETATM    3  C   LIG     1      16.849  34.885  22.168  1.00  0.00     0.002 A 
HETATM    4  C   LIG     1      16.806  35.240  23.516  1.00  0.00     0.003 A 
HETATM    5  C   LIG     1      17.137  36.540  23.909  1.00  0.00     0.039 A 
HETATM    6  C   LIG     1      17.519  37.492  22.951  1.00  0.00     0.092 A 
ENDROOT
BRANCH   1   7
HETATM    7  N   LIG     1      17.982  38.069  20.581  1.00  0.00    -0.325 N 
HETATM    8  C   LIG     1      18.966  37.788  19.574  1.00  0.00     0.218 C 
HETATM    9  C   LIG     1      19.398  38.869  18.637  1.00  0.00     0.117 C 
HETATM   10  O   LIG     1      19.447  36.631  19.453  1.00  0.00    -0.274 OA
HETATM   11  H   LIG     1      17.418  38.943  20.483  1.00  0.00     0.169 HD
ENDBRANCH   1   7
BRANCH   6  12
HETATM   12  O   LIG     1      17.794  38.801  23.344  1.00  0.00    -0.358 OA
HETATM   13  H   LIG     1      18.658  39.045  23.812  1.00  0.00     0.217 HD
ENDBRANCH   6  12
TORSDOF 2
ENDMDL
MODEL 20
REMARK VINA RESULT:      -5.1      3.797      7.191
REMARK  2 active torsions:
REMARK  status: ('A' for Active; 'I' for Inactive)
REMARK       I    between atoms: C_2  and  N_3 
REMARK    1  A    between atoms: N_3  and  C_4 
REMARK    2  A    between atoms: C_9  and  O_10 
ROOT
HETATM    1  C   LIG     1      15.359  33.099  19.080  1.00  0.00     0.068 A 
HETATM    2  C   LIG     1      14.862  31.830  19.412  1.00  0.00     0.032 A 
HETATM    3  C   LIG     1      14.129  31.090  18.479  1.00  0.00     0.002 A 
HETATM    4  C   LIG     1      13.900  31.605  17.203  1.00  0.00     0.003 A 
HETATM    5  C   LIG     1      14.414  32.855  16.850  1.00  0.00     0.039 A 
HETATM    6  C   LIG     1      15.157  33.602  17.778  1.00  0.00     0.092 A 
ENDROOT
BRANCH   1   7
HETATM    7  N   LIG     1      16.114  33.831  20.057  1.00  0.00    -0.325 N 
HETATM    8  C   LIG     1      15.539  34.364  21.259  1.00  0.00     0.218 C 
HETATM    9  C   LIG     1      16.368  35.219  22.162  1.00  0.00     0.117 C 
HETATM   10  O   LIG     1      14.351  34.093  21.577  1.00  0.00    -0.274 OA
HETATM   11  H   LIG     1      17.155  33.849  19.963  1.00  0.00     0.169 HD
ENDBRANCH   1   7
BRANCH   6  12
HETATM   12  O   LIG     1      15.713  34.823  17.400  1.00  0.00    -0.358 OA
HETATM   13  H   LIG     1      15.178  35.516  16.890  1.00  0.00     0.217 HD
ENDBRANCH   6  12
TORSDOF 2
ENDMDL
