MODEL 1
REMARK VINA RESULT:      -8.7      0.000      0.000
REMARK  2 active torsions:
REMARK  status: ('A' for Active; 'I' for Inactive)
REMARK    1  A    between atoms: C_2  and  C_3 
REMARK       I    between atoms: C_2  and  N_9 
REMARK       I    between atoms: N_9  and  C_10 
REMARK    2  A    between atoms: C_10  and  C_11 
ROOT
HETATM    1  O   LIG     1      14.939  32.826  20.530  1.00  0.00    -0.267 OA
HETATM    2  C   LIG     1      15.327  33.387  19.469  1.00  0.00     0.258 C 
HETATM    3  N   LIG     1      16.008  34.654  19.530  1.00  0.00    -0.289 N 
HETATM    4  C   LIG     1      16.483  35.250  20.752  1.00  0.00     0.258 C 
HETATM    5  O   LIG     1      16.142  34.762  21.865  1.00  0.00    -0.267 OA
HETATM    6  H   LIG     1      16.103  35.203  18.648  1.00  0.00     0.172 HD
ENDROOT
BRANCH   2   7
HETATM    7  C   LIG     1      15.051  32.733  18.166  1.00  0.00     0.032 A 
HETATM    8  C   LIG     1      15.692  33.162  16.987  1.00  0.00     0.017 A 
HETATM    9  C   LIG     1      15.426  32.530  15.768  1.00  0.00     0.001 A 
HETATM   10  C   LIG     1      14.528  31.463  15.711  1.00  0.00     0.000 A 
HETATM   11  C   LIG     1      13.895  31.021  16.875  1.00  0.00     0.001 A 
HETATM   12  C   LIG     1      14.158  31.648  18.097  1.00  0.00     0.017 A 
ENDBRANCH   2   7
BRANCH   4  13
HETATM   13  C   LIG     1      17.357  36.446  20.726  1.00  0.00     0.032 A 
HETATM   14  C   LIG     1      17.244  37.423  21.734  1.00  0.00     0.017 A 
HETATM   15  C   LIG     1      18.068  38.553  21.722  1.00  0.00     0.001 A 
HETATM   16  C   LIG     1      19.017  38.717  20.711  1.00  0.00     0.000 A 
HETATM   17  C   LIG     1      19.148  37.749  19.713  1.00  0.00     0.001 A 
HETATM   18  C   LIG     1      18.326  36.618  19.719  1.00  0.00     0.017 A 
ENDBRANCH   4  13
TORSDOF 2
ENDMDL
MODEL 2
REMARK VINA RESULT:      -8.6      0.826      6.720
REMARK  2 active torsions:
REMARK  status: ('A' for Active; 'I' for Inactive)
REMARK    1  A    between atoms: C_2  and  C_3 
REMARK       I    between atoms: C_2  and  N_9 
REMARK       I    between atoms: N_9  and  C_10 
REMARK    2  A    between atoms: C_10  and  C_11 
ROOT
HETATM    1  O   LIG     1      16.375  35.693  22.217  1.00  0.00    -0.267 OA
HETATM    2  C   LIG     1      16.857  35.882  21.066  1.00  0.00     0.258 C 
HETATM    3  N   LIG     1      16.536  34.979  19.992  1.00  0.00    -0.289 N 
HETATM    4  C   LIG     1      15.515  33.967  20.075  1.00  0.00     0.258 C 
HETATM    5  O   LIG     1      14.978  33.702  21.187  1.00  0.00    -0.267 OA
HETATM    6  H   LIG     1      17.123  35.013  19.130  1.00  0.00     0.172 HD
ENDROOT
BRANCH   2   7
HETATM    7  C   LIG     1      17.769  37.031  20.847  1.00  0.00     0.032 A 
HETATM    8  C   LIG     1      17.716  38.169  21.675  1.00  0.00     0.017 A 
HETATM    9  C   LIG     1      18.588  39.242  21.460  1.00  0.00     0.001 A 
HETATM   10  C   LIG     1      19.524  39.189  20.425  1.00  0.00     0.000 A 
HETATM   11  C   LIG     1      19.594  38.061  19.606  1.00  0.00     0.001 A 
HETATM   12  C   LIG     1      18.726  36.985  19.817  1.00  0.00     0.017 A 
ENDBRANCH   2   7
BRANCH   4  13
HETATM   13  C   LIG     1      15.091  33.213  18.872  1.00  0.00     0.032 A 
HETATM   14  C   LIG     1      15.226  33.789  17.595  1.00  0.00     0.017 A 
HETATM   15  C   LIG     1      14.834  33.083  16.452  1.00  0.00     0.001 A 
HETATM   16  C   LIG     1      14.312  31.794  16.571  1.00  0.00     0.000 A 
HETATM   17  C   LIG     1      14.184  31.205  17.831  1.00  0.00     0.001 A 
HETATM   18  C   LIG     1      14.573  31.907  18.977  1.00  0.00     0.017 A 
ENDBRANCH   4  13
TORSDOF 2
ENDMDL
MODEL 3
REMARK VINA RESULT:      -8.6      0.809      6.661
REMARK  2 active torsions:
REMARK  status: ('A' for Active; 'I' for Inactive)
REMARK    1  A    between atoms: C_2  and  C_3 
REMARK       I    between atoms: C_2  and  N_9 
REMARK       I    between atoms: N_9  and  C_10 
REMARK    2  A    between atoms: C_10  and  C_11 
ROOT
HETATM    1  O   LIG     1      16.354  35.657  22.213  1.00  0.00    -0.267 OA
HETATM    2  C   LIG     1      16.845  35.852  21.067  1.00  0.00     0.258 C 
HETATM    3  N   LIG     1      16.533  34.953  19.986  1.00  0.00    -0.289 N 
HETATM    4  C   LIG     1      15.512  33.940  20.057  1.00  0.00     0.258 C 
HETATM    5  O   LIG     1      14.967  33.669  21.163  1.00  0.00    -0.267 OA
HETATM    6  H   LIG     1      17.127  34.992  19.129  1.00  0.00     0.172 HD
ENDROOT
BRANCH   2   7
HETATM    7  C   LIG     1      17.757  37.003  20.860  1.00  0.00     0.032 A 
HETATM    8  C   LIG     1      18.698  37.006  19.812  1.00  0.00     0.017 A 
HETATM    9  C   LIG     1      19.546  38.103  19.626  1.00  0.00     0.001 A 
HETATM   10  C   LIG     1      19.463  39.207  20.477  1.00  0.00     0.000 A 
HETATM   11  C   LIG     1      18.527  39.221  21.512  1.00  0.00     0.001 A 
HETATM   12  C   LIG     1      17.675  38.128  21.702  1.00  0.00     0.017 A 
ENDBRANCH   2   7
BRANCH   4  13
HETATM   13  C   LIG     1      15.099  33.191  18.847  1.00  0.00     0.032 A 
HETATM   14  C   LIG     1      14.570  31.892  18.968  1.00  0.00     0.017 A 
HETATM   15  C   LIG     1      14.171  31.178  17.833  1.00  0.00     0.001 A 
HETATM   16  C   LIG     1      14.288  31.755  16.567  1.00  0.00     0.000 A 
HETATM   17  C   LIG     1      14.800  33.048  16.433  1.00  0.00     0.001 A 
HETATM   18  C   LIG     1      15.201  33.765  17.565  1.00  0.00     0.017 A 
ENDBRANCH   4  13
TORSDOF 2
ENDMDL
MODEL 4
REMARK VINA RESULT:      -8.4      2.761      7.392
REMARK  2 active torsions:
REMARK  status: ('A' for Active; 'I' for Inactive)
REMARK    1  A    between atoms: C_2  and  C_3 
REMARK       I    between atoms: C_2  and  N_9 
REMARK       I    between atoms: N_9  and  C_10 
REMARK    2  A    between atoms: C_10  and  C_11 
ROOT
HETATM    1  O   LIG     1      17.385  37.141  21.802  1.00  0.00    -0.267 OA
HETATM    2  C   LIG     1      17.003  36.142  22.471  1.00  0.00     0.258 C 
HETATM    3  N   LIG     1      16.278  35.077  21.829  1.00  0.00    -0.289 N 
HETATM    4  C   LIG     1      16.130  34.956  20.402  1.00  0.00     0.258 C 
HETATM    5  O   LIG     1      16.477  35.908  19.649  1.00  0.00    -0.267 OA
HETATM    6  H   LIG     1      15.773  34.393  22.434  1.00  0.00     0.172 HD
ENDROOT
BRANCH   2   7
HETATM    7  C   LIG     1      17.295  36.095  23.925  1.00  0.00     0.032 A 
HETATM    8  C   LIG     1      17.298  34.874  24.627  1.00  0.00     0.017 A 
HETATM    9  C   LIG     1      17.582  34.847  25.997  1.00  0.00     0.001 A 
HETATM   10  C   LIG     1      17.872  36.030  26.677  1.00  0.00     0.000 A 
HETATM   11  C   LIG     1      17.883  37.245  25.990  1.00  0.00     0.001 A 
HETATM   12  C   LIG     1      17.601  37.280  24.621  1.00  0.00     0.017 A 
ENDBRANCH   2   7
BRANCH   4  13
HETATM   13  C   LIG     1      15.555  33.732  19.797  1.00  0.00     0.032 A 
HETATM   14  C   LIG     1      15.366  33.655  18.404  1.00  0.00     0.017 A 
HETATM   15  C   LIG     1      14.829  32.502  17.822  1.00  0.00     0.001 A 
HETATM   16  C   LIG     1      14.483  31.411  18.622  1.00  0.00     0.000 A 
HETATM   17  C   LIG     1      14.677  31.469  20.004  1.00  0.00     0.001 A 
HETATM   18  C   LIG     1      15.212  32.620  20.591  1.00  0.00     0.017 A 
ENDBRANCH   4  13
TORSDOF 2
ENDMDL
MODEL 5
REMARK VINA RESULT:      -8.4      1.339      2.657
REMARK  2 active torsions:
REMARK  status: ('A' for Active; 'I' for Inactive)
REMARK    1  A    between atoms: C_2  and  C_3 
REMARK       I    between atoms: C_2  and  N_9 
REMARK       I    between atoms: N_9  and  C_10 
REMARK    2  A    between atoms: C_10  and  C_11 
ROOT
HETATM    1  O   LIG     1      14.103  31.414  18.737  1.00  0.00    -0.267 OA
HETATM    2  C   LIG     1      14.824  32.207  18.071  1.00  0.00     0.258 C 
HETATM    3  N   LIG     1      15.374  33.381  18.697  1.00  0.00    -0.289 N 
HETATM    4  C   LIG     1      15.340  33.621  20.116  1.00  0.00     0.258 C 
HETATM    5  O   LIG     1      14.640  32.884  20.865  1.00  0.00    -0.267 OA
HETATM    6  H   LIG     1      15.757  34.131  18.082  1.00  0.00     0.172 HD
ENDROOT
BRANCH   2   7
HETATM    7  C   LIG     1      15.075  31.921  16.637  1.00  0.00     0.032 A 
HETATM    8  C   LIG     1      14.336  30.936  15.952  1.00  0.00     0.017 A 
HETATM    9  C   LIG     1      14.580  30.683  14.598  1.00  0.00     0.001 A 
HETATM   10  C   LIG     1      15.555  31.410  13.913  1.00  0.00     0.000 A 
HETATM   11  C   LIG     1      16.286  32.396  14.578  1.00  0.00     0.001 A 
HETATM   12  C   LIG     1      16.046  32.655  15.931  1.00  0.00     0.017 A 
ENDBRANCH   2   7
BRANCH   4  13
HETATM   13  C   LIG     1      16.104  34.740  20.718  1.00  0.00     0.032 A 
HETATM   14  C   LIG     1      16.813  35.633  19.892  1.00  0.00     0.017 A 
HETATM   15  C   LIG     1      17.532  36.695  20.449  1.00  0.00     0.001 A 
HETATM   16  C   LIG     1      17.546  36.882  21.833  1.00  0.00     0.000 A 
HETATM   17  C   LIG     1      16.836  36.011  22.662  1.00  0.00     0.001 A 
HETATM   18  C   LIG     1      16.116  34.946  22.110  1.00  0.00     0.017 A 
ENDBRANCH   4  13
TORSDOF 2
ENDMDL
MODEL 6
REMARK VINA RESULT:      -8.2      1.179      6.701
REMARK  2 active torsions:
REMARK  status: ('A' for Active; 'I' for Inactive)
REMARK    1  A    between atoms: C_2  and  C_3 
REMARK       I    between atoms: C_2  and  N_9 
REMARK       I    between atoms: N_9  and  C_10 
REMARK    2  A    between atoms: C_10  and  C_11 
ROOT
HETATM    1  O   LIG     1      14.676  33.503  21.483  1.00  0.00    -0.267 OA
HETATM    2  C   LIG     1      15.385  34.124  20.644  1.00  0.00     0.258 C 
HETATM    3  N   LIG     1      15.583  33.582  19.325  1.00  0.00    -0.289 N 
HETATM    4  C   LIG     1      14.846  32.461  18.802  1.00  0.00     0.258 C 
HETATM    5  O   LIG     1      14.115  31.774  19.567  1.00  0.00    -0.267 OA
HETATM    6  H   LIG     1      16.351  33.980  18.741  1.00  0.00     0.172 HD
ENDROOT
BRANCH   2   7
HETATM    7  C   LIG     1      16.023  35.402  21.046  1.00  0.00     0.032 A 
HETATM    8  C   LIG     1      15.439  36.230  22.024  1.00  0.00     0.017 A 
HETATM    9  C   LIG     1      16.056  37.429  22.397  1.00  0.00     0.001 A 
HETATM   10  C   LIG     1      17.261  37.811  21.805  1.00  0.00     0.000 A 
HETATM   11  C   LIG     1      17.856  36.994  20.842  1.00  0.00     0.001 A 
HETATM   12  C   LIG     1      17.244  35.793  20.466  1.00  0.00     0.017 A 
ENDBRANCH   2   7
BRANCH   4  13
HETATM   13  C   LIG     1      14.946  32.085  17.372  1.00  0.00     0.032 A 
HETATM   14  C   LIG     1      14.072  31.123  16.833  1.00  0.00     0.017 A 
HETATM   15  C   LIG     1      14.154  30.765  15.483  1.00  0.00     0.001 A 
HETATM   16  C   LIG     1      15.103  31.369  14.656  1.00  0.00     0.000 A 
HETATM   17  C   LIG     1      15.969  32.335  15.175  1.00  0.00     0.001 A 
HETATM   18  C   LIG     1      15.891  32.695  16.524  1.00  0.00     0.017 A 
ENDBRANCH   4  13
TORSDOF 2
ENDMDL
MODEL 7
REMARK VINA RESULT:      -8.0      3.000      4.087
REMARK  2 active torsions:
REMARK  status: ('A' for Active; 'I' for Inactive)
REMARK    1  A    between atoms: C_2  and  C_3 
REMARK       I    between atoms: C_2  and  N_9 
REMARK       I    between atoms: N_9  and  C_10 
REMARK    2  A    between atoms: C_10  and  C_11 
ROOT
HETATM    1  O   LIG     1      14.749  36.292  20.839  1.00  0.00    -0.267 OA
HETATM    2  C   LIG     1      15.414  35.256  21.118  1.00  0.00     0.258 C 
HETATM    3  N   LIG     1      16.326  35.263  22.231  1.00  0.00    -0.289 N 
HETATM    4  C   LIG     1      16.389  36.319  23.209  1.00  0.00     0.258 C 
HETATM    5  O   LIG     1      15.763  37.397  23.014  1.00  0.00    -0.267 OA
HETATM    6  H   LIG     1      17.029  34.493  22.295  1.00  0.00     0.172 HD
ENDROOT
BRANCH   2   7
HETATM    7  C   LIG     1      15.255  34.048  20.271  1.00  0.00     0.032 A 
HETATM    8  C   LIG     1      14.940  32.799  20.839  1.00  0.00     0.017 A 
HETATM    9  C   LIG     1      14.786  31.671  20.026  1.00  0.00     0.001 A 
HETATM   10  C   LIG     1      14.938  31.777  18.643  1.00  0.00     0.000 A 
HETATM   11  C   LIG     1      15.239  33.012  18.066  1.00  0.00     0.001 A 
HETATM   12  C   LIG     1      15.392  34.144  18.874  1.00  0.00     0.017 A 
ENDBRANCH   2   7
BRANCH   4  13
HETATM   13  C   LIG     1      17.199  36.168  24.441  1.00  0.00     0.032 A 
HETATM   14  C   LIG     1      17.801  37.295  25.032  1.00  0.00     0.017 A 
HETATM   15  C   LIG     1      18.562  37.165  26.198  1.00  0.00     0.001 A 
HETATM   16  C   LIG     1      18.723  35.911  26.791  1.00  0.00     0.000 A 
HETATM   17  C   LIG     1      18.121  34.786  26.223  1.00  0.00     0.001 A 
HETATM   18  C   LIG     1      17.360  34.911  25.056  1.00  0.00     0.017 A 
ENDBRANCH   4  13
TORSDOF 2
ENDMDL
MODEL 8
REMARK VINA RESULT:      -7.1      3.219      7.927
REMARK  2 active torsions:
REMARK  status: ('A' for Active; 'I' for Inactive)
REMARK    1  A    between atoms: C_2  and  C_3 
REMARK       I    between atoms: C_2  and  N_9 
REMARK       I    between atoms: N_9  and  C_10 
REMARK    2  A    between atoms: C_10  and  C_11 
ROOT
HETATM    1  O   LIG     1      15.955  34.171  16.137  1.00  0.00    -0.267 OA
HETATM    2  C   LIG     1      15.451  33.308  16.907  1.00  0.00     0.258 C 
HETATM    3  N   LIG     1      14.920  32.083  16.369  1.00  0.00    -0.289 N 
HETATM    4  C   LIG     1      15.112  31.658  15.007  1.00  0.00     0.258 C 
HETATM    5  O   LIG     1      15.603  32.455  14.160  1.00  0.00    -0.267 OA
HETATM    6  H   LIG     1      14.304  31.504  16.981  1.00  0.00     0.172 HD
ENDROOT
BRANCH   2   7
HETATM    7  C   LIG     1      15.397  33.586  18.364  1.00  0.00     0.032 A 
HETATM    8  C   LIG     1      15.676  34.871  18.869  1.00  0.00     0.017 A 
HETATM    9  C   LIG     1      15.614  35.118  20.244  1.00  0.00     0.001 A 
HETATM   10  C   LIG     1      15.267  34.094  21.127  1.00  0.00     0.000 A 
HETATM   11  C   LIG     1      14.977  32.820  20.637  1.00  0.00     0.001 A 
HETATM   12  C   LIG     1      15.036  32.566  19.263  1.00  0.00     0.017 A 
ENDBRANCH   2   7
BRANCH   4  13
HETATM   13  C   LIG     1      14.722  30.295  14.573  1.00  0.00     0.032 A 
HETATM   14  C   LIG     1      13.370  29.904  14.607  1.00  0.00     0.017 A 
HETATM   15  C   LIG     1      12.990  28.623  14.194  1.00  0.00     0.001 A 
HETATM   16  C   LIG     1      13.953  27.722  13.735  1.00  0.00     0.000 A 
HETATM   17  C   LIG     1      15.296  28.101  13.684  1.00  0.00     0.001 A 
HETATM   18  C   LIG     1      15.681  29.381  14.097  1.00  0.00     0.017 A 
ENDBRANCH   4  13
TORSDOF 2
ENDMDL
MODEL 9
REMARK VINA RESULT:      -7.0      3.331      5.072
REMARK  2 active torsions:
REMARK  status: ('A' for Active; 'I' for Inactive)
REMARK    1  A    between atoms: C_2  and  C_3 
REMARK       I    between atoms: C_2  and  N_9 
REMARK       I    between atoms: N_9  and  C_10 
REMARK    2  A    between atoms: C_10  and  C_11 
ROOT
HETATM    1  O   LIG     1      15.606  32.249  14.019  1.00  0.00    -0.267 OA
HETATM    2  C   LIG     1      15.217  31.427  14.894  1.00  0.00     0.258 C 
HETATM    3  N   LIG     1      15.291  31.770  16.290  1.00  0.00    -0.289 N 
HETATM    4  C   LIG     1      15.587  33.093  16.775  1.00  0.00     0.258 C 
HETATM    5  O   LIG     1      15.991  33.982  15.975  1.00  0.00    -0.267 OA
HETATM    6  H   LIG     1      15.192  31.002  16.990  1.00  0.00     0.172 HD
ENDROOT
BRANCH   2   7
HETATM    7  C   LIG     1      14.704  30.104  14.461  1.00  0.00     0.032 A 
HETATM    8  C   LIG     1      15.578  29.104  13.992  1.00  0.00     0.017 A 
HETATM    9  C   LIG     1      15.079  27.859  13.594  1.00  0.00     0.001 A 
HETATM   10  C   LIG     1      13.711  27.596  13.665  1.00  0.00     0.000 A 
HETATM   11  C   LIG     1      12.835  28.575  14.138  1.00  0.00     0.001 A 
HETATM   12  C   LIG     1      13.328  29.821  14.539  1.00  0.00     0.017 A 
ENDBRANCH   2   7
BRANCH   4  13
HETATM   13  C   LIG     1      15.442  33.427  18.212  1.00  0.00     0.032 A 
HETATM   14  C   LIG     1      15.121  32.420  19.141  1.00  0.00     0.017 A 
HETATM   15  C   LIG     1      14.988  32.724  20.500  1.00  0.00     0.001 A 
HETATM   16  C   LIG     1      15.182  34.032  20.946  1.00  0.00     0.000 A 
HETATM   17  C   LIG     1      15.513  35.039  20.037  1.00  0.00     0.001 A 
HETATM   18  C   LIG     1      15.646  34.741  18.676  1.00  0.00     0.017 A 
ENDBRANCH   4  13
TORSDOF 2
ENDMDL
MODEL 10
REMARK VINA RESULT:      -6.8      4.359      6.169
REMARK  2 active torsions:
REMARK  status: ('A' for Active; 'I' for Inactive)
REMARK    1  A    between atoms: C_2  and  C_3 
REMARK       I    between atoms: C_2  and  N_9 
REMARK       I    between atoms: N_9  and  C_10 
REMARK    2  A    between atoms: C_10  and  C_11 
ROOT
HETATM    1  O   LIG     1      17.116  35.867  19.778  1.00  0.00    -0.267 OA
HETATM    2  C   LIG     1      17.829  36.737  20.348  1.00  0.00     0.258 C 
HETATM    3  N   LIG     1      17.820  36.850  21.783  1.00  0.00    -0.289 N 
HETATM    4  C   LIG     1      17.205  35.885  22.658  1.00  0.00     0.258 C 
HETATM    5  O   LIG     1      16.467  34.980  22.180  1.00  0.00    -0.267 OA
HETATM    6  H   LIG     1      18.221  37.714  22.210  1.00  0.00     0.172 HD
ENDROOT
BRANCH   2   7
HETATM    7  C   LIG     1      18.655  37.648  19.518  1.00  0.00     0.032 A 
HETATM    8  C   LIG     1      18.213  38.080  18.253  1.00  0.00     0.017 A 
HETATM    9  C   LIG     1      19.000  38.945  17.485  1.00  0.00     0.001 A 
HETATM   10  C   LIG     1      20.229  39.392  17.972  1.00  0.00     0.000 A 
HETATM   11  C   LIG     1      20.673  38.981  19.230  1.00  0.00     0.001 A 
HETATM   12  C   LIG     1      19.890  38.118  20.002  1.00  0.00     0.017 A 
ENDBRANCH   2   7
BRANCH   4  13
HETATM   13  C   LIG     1      17.411  35.948  24.124  1.00  0.00     0.032 A 
HETATM   14  C   LIG     1      17.585  37.192  24.760  1.00  0.00     0.017 A 
HETATM   15  C   LIG     1      17.774  37.263  26.143  1.00  0.00     0.001 A 
HETATM   16  C   LIG     1      17.783  36.096  26.909  1.00  0.00     0.000 A 
HETATM   17  C   LIG     1      17.598  34.855  26.294  1.00  0.00     0.001 A 
HETATM   18  C   LIG     1      17.410  34.779  24.909  1.00  0.00     0.017 A 
ENDBRANCH   4  13
TORSDOF 2
ENDMDL
MODEL 11
REMARK VINA RESULT:      -6.8      5.753      7.080
REMARK  2 active torsions:
REMARK  status: ('A' for Active; 'I' for Inactive)
REMARK    1  A    between atoms: C_2  and  C_3 
REMARK       I    between atoms: C_2  and  N_9 
REMARK       I    between atoms: N_9  and  C_10 
REMARK    2  A    between atoms: C_10  and  C_11 
ROOT
HETATM    1  O   LIG     1      16.087  38.348  24.000  1.00  0.00    -0.267 OA
HETATM    2  C   LIG     1      17.109  37.633  23.810  1.00  0.00     0.258 C 
HETATM    3  N   LIG     1      17.831  37.721  22.568  1.00  0.00    -0.289 N 
HETATM    4  C   LIG     1      17.598  38.739  21.577  1.00  0.00     0.258 C 
HETATM    5  O   LIG     1      16.595  39.500  21.678  1.00  0.00    -0.267 OA
HETATM    6  H   LIG     1      18.513  36.964  22.342  1.00  0.00     0.172 HD
ENDROOT
BRANCH   2   7
HETATM    7  C   LIG     1      17.537  36.692  24.875  1.00  0.00     0.032 A 
HETATM    8  C   LIG     1      17.144  35.340  24.851  1.00  0.00     0.017 A 
HETATM    9  C   LIG     1      17.563  34.464  25.858  1.00  0.00     0.001 A 
HETATM   10  C   LIG     1      18.379  34.923  26.893  1.00  0.00     0.000 A 
HETATM   11  C   LIG     1      18.784  36.258  26.922  1.00  0.00     0.001 A 
HETATM   12  C   LIG     1      18.371  37.139  25.917  1.00  0.00     0.017 A 
ENDBRANCH   2   7
BRANCH   4  13
HETATM   13  C   LIG     1      18.511  38.900  20.421  1.00  0.00     0.032 A 
HETATM   14  C   LIG     1      19.877  38.586  20.553  1.00  0.00     0.017 A 
HETATM   15  C   LIG     1      20.747  38.729  19.467  1.00  0.00     0.001 A 
HETATM   16  C   LIG     1      20.262  39.179  18.237  1.00  0.00     0.000 A 
HETATM   17  C   LIG     1      18.907  39.483  18.089  1.00  0.00     0.001 A 
HETATM   18  C   LIG     1      18.033  39.343  19.173  1.00  0.00     0.017 A 
ENDBRANCH   4  13
TORSDOF 2
ENDMDL
MODEL 12
REMARK VINA RESULT:      -6.7      2.012      6.892
REMARK  2 active torsions:
REMARK  status: ('A' for Active; 'I' for Inactive)
REMARK    1  A    between atoms: C_2  and  C_3 
REMARK       I    between atoms: C_2  and  N_9 
REMARK       I    between atoms: N_9  and  C_10 
REMARK    2  A    between atoms: C_10  and  C_11 
ROOT
HETATM    1  O   LIG     1      17.508  36.635  19.764  1.00  0.00    -0.267 OA
HETATM    2  C   LIG     1      16.856  35.881  20.538  1.00  0.00     0.258 C 
HETATM    3  N   LIG     1      15.970  34.884  19.996  1.00  0.00    -0.289 N 
HETATM    4  C   LIG     1      15.924  34.527  18.602  1.00  0.00     0.258 C 
HETATM    5  O   LIG     1      16.539  35.226  17.750  1.00  0.00    -0.267 OA
HETATM    6  H   LIG     1      15.275  34.444  20.638  1.00  0.00     0.172 HD
ENDROOT
BRANCH   2   7
HETATM    7  C   LIG     1      17.003  36.053  22.004  1.00  0.00     0.032 A 
HETATM    8  C   LIG     1      17.087  37.335  22.580  1.00  0.00     0.017 A 
HETATM    9  C   LIG     1      17.219  37.480  23.965  1.00  0.00     0.001 A 
HETATM   10  C   LIG     1      17.261  36.354  24.788  1.00  0.00     0.000 A 
HETATM   11  C   LIG     1      17.167  35.078  24.230  1.00  0.00     0.001 A 
HETATM   12  C   LIG     1      17.034  34.926  22.846  1.00  0.00     0.017 A 
ENDBRANCH   2   7
BRANCH   4  13
HETATM   13  C   LIG     1      15.145  33.353  18.142  1.00  0.00     0.032 A 
HETATM   14  C   LIG     1      14.971  32.245  18.993  1.00  0.00     0.017 A 
HETATM   15  C   LIG     1      14.232  31.134  18.571  1.00  0.00     0.001 A 
HETATM   16  C   LIG     1      13.653  31.121  17.301  1.00  0.00     0.000 A 
HETATM   17  C   LIG     1      13.807  32.218  16.451  1.00  0.00     0.001 A 
HETATM   18  C   LIG     1      14.546  33.331  16.868  1.00  0.00     0.017 A 
ENDBRANCH   4  13
TORSDOF 2
ENDMDL
MODEL 13
REMARK VINA RESULT:      -6.7      2.083      7.112
REMARK  2 active torsions:
REMARK  status: ('A' for Active; 'I' for Inactive)
REMARK    1  A    between atoms: C_2  and  C_3 
REMARK       I    between atoms: C_2  and  N_9 
REMARK       I    between atoms: N_9  and  C_10 
REMARK    2  A    between atoms: C_10  and  C_11 
ROOT
HETATM    1  O   LIG     1      17.113  35.955  18.036  1.00  0.00    -0.267 OA
HETATM    2  C   LIG     1      16.432  35.235  18.818  1.00  0.00     0.258 C 
HETATM    3  N   LIG     1      15.546  34.232  18.287  1.00  0.00    -0.289 N 
HETATM    4  C   LIG     1      15.527  33.831  16.904  1.00  0.00     0.258 C 
HETATM    5  O   LIG     1      16.172  34.496  16.046  1.00  0.00    -0.267 OA
HETATM    6  H   LIG     1      14.830  33.822  18.926  1.00  0.00     0.172 HD
ENDROOT
BRANCH   2   7
HETATM    7  C   LIG     1      16.547  35.452  20.281  1.00  0.00     0.032 A 
HETATM    8  C   LIG     1      16.020  34.521  21.197  1.00  0.00     0.017 A 
HETATM    9  C   LIG     1      16.143  34.737  22.574  1.00  0.00     0.001 A 
HETATM   10  C   LIG     1      16.796  35.875  23.050  1.00  0.00     0.000 A 
HETATM   11  C   LIG     1      17.334  36.798  22.152  1.00  0.00     0.001 A 
HETATM   12  C   LIG     1      17.215  36.588  20.775  1.00  0.00     0.017 A 
ENDBRANCH   2   7
BRANCH   4  13
HETATM   13  C   LIG     1      14.743  32.653  16.463  1.00  0.00     0.032 A 
HETATM   14  C   LIG     1      15.253  31.799  15.467  1.00  0.00     0.017 A 
HETATM   15  C   LIG     1      14.524  30.682  15.048  1.00  0.00     0.001 A 
HETATM   16  C   LIG     1      13.284  30.400  15.623  1.00  0.00     0.000 A 
HETATM   17  C   LIG     1      12.771  31.232  16.622  1.00  0.00     0.001 A 
HETATM   18  C   LIG     1      13.496  32.352  17.043  1.00  0.00     0.017 A 
ENDBRANCH   4  13
TORSDOF 2
ENDMDL
MODEL 14
REMARK VINA RESULT:      -6.5      5.848     10.826
REMARK  2 active torsions:
REMARK  status: ('A' for Active; 'I' for Inactive)
REMARK    1  A    between atoms: C_2  and  C_3 
REMARK       I    between atoms: C_2  and  N_9 
REMARK       I    between atoms: N_9  and  C_10 
REMARK    2  A    between atoms: C_10  and  C_11 
ROOT
HETATM    1  O   LIG     1      16.263  29.309  14.434  1.00  0.00    -0.267 OA
HETATM    2  C   LIG     1      15.027  29.557  14.478  1.00  0.00     0.258 C 
HETATM    3  N   LIG     1      14.104  28.761  13.712  1.00  0.00    -0.289 N 
HETATM    4  C   LIG     1      14.465  27.538  13.043  1.00  0.00     0.258 C 
HETATM    5  O   LIG     1      15.680  27.208  12.942  1.00  0.00    -0.267 OA
HETATM    6  H   LIG     1      13.136  29.127  13.576  1.00  0.00     0.172 HD
ENDROOT
BRANCH   2   7
HETATM    7  C   LIG     1      14.548  30.687  15.311  1.00  0.00     0.032 A 
HETATM    8  C   LIG     1      13.280  30.653  15.922  1.00  0.00     0.017 A 
HETATM    9  C   LIG     1      12.846  31.724  16.710  1.00  0.00     0.001 A 
HETATM   10  C   LIG     1      13.671  32.833  16.903  1.00  0.00     0.000 A 
HETATM   11  C   LIG     1      14.936  32.873  16.313  1.00  0.00     0.001 A 
HETATM   12  C   LIG     1      15.376  31.805  15.525  1.00  0.00     0.017 A 
ENDBRANCH   2   7
BRANCH   4  13
HETATM   13  C   LIG     1      13.429  26.660  12.449  1.00  0.00     0.032 A 
HETATM   14  C   LIG     1      12.137  26.616  13.008  1.00  0.00     0.017 A 
HETATM   15  C   LIG     1      11.150  25.796  12.452  1.00  0.00     0.001 A 
HETATM   16  C   LIG     1      11.438  25.017  11.330  1.00  0.00     0.000 A 
HETATM   17  C   LIG     1      12.712  25.060  10.758  1.00  0.00     0.001 A 
HETATM   18  C   LIG     1      13.703  25.878  11.311  1.00  0.00     0.017 A 
ENDBRANCH   4  13
TORSDOF 2
ENDMDL
MODEL 15
REMARK VINA RESULT:      -6.4      6.044      8.997
REMARK  2 active torsions:
REMARK  status: ('A' for Active; 'I' for Inactive)
REMARK    1  A    between atoms: C_2  and  C_3 
REMARK       I    between atoms: C_2  and  N_9 
REMARK       I    between atoms: N_9  and  C_10 
REMARK    2  A    between atoms: C_10  and  C_11 
ROOT
HETATM    1  O   LIG     1      15.751  27.284  12.486  1.00  0.00    -0.267 OA
HETATM    2  C   LIG     1      14.536  27.388  12.808  1.00  0.00     0.258 C 
HETATM    3  N   LIG     1      14.133  28.345  13.805  1.00  0.00    -0.289 N 
HETATM    4  C   LIG     1      15.000  29.368  14.329  1.00  0.00     0.258 C 
HETATM    5  O   LIG     1      16.234  29.344  14.067  1.00  0.00    -0.267 OA
HETATM    6  H   LIG     1      13.180  28.249  14.220  1.00  0.00     0.172 HD
ENDROOT
BRANCH   2   7
HETATM    7  C   LIG     1      13.541  26.498  12.161  1.00  0.00     0.032 A 
HETATM    8  C   LIG     1      12.235  26.374  12.673  1.00  0.00     0.017 A 
HETATM    9  C   LIG     1      11.306  25.536  12.046  1.00  0.00     0.001 A 
HETATM   10  C   LIG     1      11.666  24.821  10.903  1.00  0.00     0.000 A 
HETATM   11  C   LIG     1      12.954  24.944  10.379  1.00  0.00     0.001 A 
HETATM   12  C   LIG     1      13.886  25.781  11.000  1.00  0.00     0.017 A 
ENDBRANCH   2   7
BRANCH   4  13
HETATM   13  C   LIG     1      14.467  30.449  15.192  1.00  0.00     0.032 A 
HETATM   14  C   LIG     1      13.155  30.366  15.697  1.00  0.00     0.017 A 
HETATM   15  C   LIG     1      12.645  31.377  16.518  1.00  0.00     0.001 A 
HETATM   16  C   LIG     1      13.439  32.476  16.849  1.00  0.00     0.000 A 
HETATM   17  C   LIG     1      14.746  32.565  16.366  1.00  0.00     0.001 A 
HETATM   18  C   LIG     1      15.261  31.557  15.543  1.00  0.00     0.017 A 
ENDBRANCH   4  13
TORSDOF 2
ENDMDL
MODEL 16
REMARK VINA RESULT:      -6.3      4.333      6.538
REMARK  2 active torsions:
REMARK  status: ('A' for Active; 'I' for Inactive)
REMARK    1  A    between atoms: C_2  and  C_3 
REMARK       I    between atoms: C_2  and  N_9 
REMARK       I    between atoms: N_9  and  C_10 
REMARK    2  A    between atoms: C_10  and  C_11 
ROOT
HETATM    1  O   LIG     1      16.343  35.062  22.124  1.00  0.00    -0.267 OA
HETATM    2  C   LIG     1      17.231  35.823  22.599  1.00  0.00     0.258 C 
HETATM    3  N   LIG     1      18.094  36.563  21.716  1.00  0.00    -0.289 N 
HETATM    4  C   LIG     1      17.885  36.669  20.295  1.00  0.00     0.258 C 
HETATM    5  O   LIG     1      17.022  35.942  19.728  1.00  0.00    -0.267 OA
HETATM    6  H   LIG     1      18.958  36.988  22.117  1.00  0.00     0.172 HD
ENDROOT
BRANCH   2   7
HETATM    7  C   LIG     1      17.381  35.924  24.071  1.00  0.00     0.032 A 
HETATM    8  C   LIG     1      17.378  34.773  24.883  1.00  0.00     0.017 A 
HETATM    9  C   LIG     1      17.528  34.885  26.269  1.00  0.00     0.001 A 
HETATM   10  C   LIG     1      17.687  36.140  26.859  1.00  0.00     0.000 A 
HETATM   11  C   LIG     1      17.703  37.287  26.064  1.00  0.00     0.001 A 
HETATM   12  C   LIG     1      17.555  37.182  24.677  1.00  0.00     0.017 A 
ENDBRANCH   2   7
BRANCH   4  13
HETATM   13  C   LIG     1      18.683  37.612  19.477  1.00  0.00     0.032 A 
HETATM   14  C   LIG     1      18.190  38.061  18.236  1.00  0.00     0.017 A 
HETATM   15  C   LIG     1      18.933  38.955  17.459  1.00  0.00     0.001 A 
HETATM   16  C   LIG     1      20.170  39.417  17.913  1.00  0.00     0.000 A 
HETATM   17  C   LIG     1      20.665  38.989  19.147  1.00  0.00     0.001 A 
HETATM   18  C   LIG     1      19.927  38.094  19.928  1.00  0.00     0.017 A 
ENDBRANCH   4  13
TORSDOF 2
ENDMDL
MODEL 17
REMARK VINA RESULT:      -6.0      5.892     10.891
REMARK  2 active torsions:
REMARK  status: ('A' for Active; 'I' for Inactive)
REMARK    1  A    between atoms: C_2  and  C_3 
REMARK       I    between atoms: C_2  and  N_9 
REMARK       I    between atoms: N_9  and  C_10 
REMARK    2  A    between atoms: C_10  and  C_11 
ROOT
HETATM    1  O   LIG     1      12.737  29.473  15.144  1.00  0.00    -0.267 OA
HETATM    2  C   LIG     1      13.834  29.562  14.527  1.00  0.00     0.258 C 
HETATM    3  N   LIG     1      14.233  28.525  13.612  1.00  0.00    -0.289 N 
HETATM    4  C   LIG     1      13.362  27.466  13.173  1.00  0.00     0.258 C 
HETATM    5  O   LIG     1      12.246  27.292  13.736  1.00  0.00    -0.267 OA
HETATM    6  H   LIG     1      15.230  28.500  13.303  1.00  0.00     0.172 HD
ENDROOT
BRANCH   2   7
HETATM    7  C   LIG     1      14.706  30.736  14.775  1.00  0.00     0.032 A 
HETATM    8  C   LIG     1      15.636  31.168  13.809  1.00  0.00     0.017 A 
HETATM    9  C   LIG     1      16.447  32.281  14.056  1.00  0.00     0.001 A 
HETATM   10  C   LIG     1      16.335  32.977  15.260  1.00  0.00     0.000 A 
HETATM   11  C   LIG     1      15.409  32.567  16.221  1.00  0.00     0.001 A 
HETATM   12  C   LIG     1      14.595  31.455  15.979  1.00  0.00     0.017 A 
ENDBRANCH   2   7
BRANCH   4  13
HETATM   13  C   LIG     1      13.765  26.555  12.075  1.00  0.00     0.032 A 
HETATM   14  C   LIG     1      15.090  26.565  11.600  1.00  0.00     0.017 A 
HETATM   15  C   LIG     1      15.481  25.706  10.568  1.00  0.00     0.001 A 
HETATM   16  C   LIG     1      14.558  24.823  10.005  1.00  0.00     0.000 A 
HETATM   17  C   LIG     1      13.243  24.794  10.474  1.00  0.00     0.001 A 
HETATM   18  C   LIG     1      12.846  25.653  11.505  1.00  0.00     0.017 A 
ENDBRANCH   4  13
TORSDOF 2
ENDMDL
MODEL 18
REMARK VINA RESULT:      -5.9      5.941      7.547
REMARK  2 active torsions:
REMARK  status: ('A' for Active; 'I' for Inactive)
REMARK    1  A    between atoms: C_2  and  C_3 
REMARK       I    between atoms: C_2  and  N_9 
REMARK       I    between atoms: N_9  and  C_10 
REMARK    2  A    between atoms: C_10  and  C_11 
ROOT
HETATM    1  O   LIG     1      16.746  31.698  12.922  1.00  0.00    -0.267 OA
HETATM    2  C   LIG     1      17.144  32.566  13.747  1.00  0.00     0.258 C 
HETATM    3  N   LIG     1      18.387  33.257  13.524  1.00  0.00    -0.289 N 
HETATM    4  C   LIG     1      19.132  33.187  12.294  1.00  0.00     0.258 C 
HETATM    5  O   LIG     1      18.814  32.344  11.410  1.00  0.00    -0.267 OA
HETATM    6  H   LIG     1      18.806  33.782  14.322  1.00  0.00     0.172 HD
ENDROOT
BRANCH   2   7
HETATM    7  C   LIG     1      16.324  32.843  14.952  1.00  0.00     0.032 A 
HETATM    8  C   LIG     1      16.426  34.072  15.633  1.00  0.00     0.017 A 
HETATM    9  C   LIG     1      15.641  34.321  16.764  1.00  0.00     0.001 A 
HETATM   10  C   LIG     1      14.744  33.354  17.222  1.00  0.00     0.000 A 
HETATM   11  C   LIG     1      14.625  32.137  16.548  1.00  0.00     0.001 A 
HETATM   12  C   LIG     1      15.407  31.883  15.417  1.00  0.00     0.017 A 
ENDBRANCH   2   7
BRANCH   4  13
HETATM   13  C   LIG     1      20.289  34.082  12.052  1.00  0.00     0.032 A 
HETATM   14  C   LIG     1      21.249  34.281  13.062  1.00  0.00     0.017 A 
HETATM   15  C   LIG     1      22.347  35.120  12.842  1.00  0.00     0.001 A 
HETATM   16  C   LIG     1      22.502  35.761  11.612  1.00  0.00     0.000 A 
HETATM   17  C   LIG     1      21.564  35.563  10.597  1.00  0.00     0.001 A 
HETATM   18  C   LIG     1      20.463  34.726  10.812  1.00  0.00     0.017 A 
ENDBRANCH   4  13
TORSDOF 2
ENDMDL
