REMARK  4 active torsions:
REMARK  status: ('A' for Active; 'I' for Inactive)
REMARK    1  A    between atoms: C_2  and  C_4 
REMARK    2  A    between atoms: C_2  and  O_3 
REMARK    3  A    between atoms: C_4  and  O_5 
REMARK    4  A    between atoms: O_5  and  C_6 
ROOT
HETATM    1  C   LIG     1      -0.374  -0.207   0.125  1.00  0.00     0.091 A 
HETATM    2  C   LIG     1      -1.058   0.979  -0.212  1.00  0.00     0.038 A 
HETATM    3  C   LIG     1      -2.419   1.115   0.079  1.00  0.00     0.003 A 
HETATM    4  C   LIG     1      -3.109   0.076   0.705  1.00  0.00     0.002 A 
HETATM    5  C   LIG     1      -2.441  -1.103   1.043  1.00  0.00     0.026 A 
HETATM    6  C   LIG     1      -1.079  -1.247   0.755  1.00  0.00     0.067 A 
HETATM    7 CL   LIG     1      -0.262  -2.740   1.190  1.00  0.00    -0.081 Cl
ENDROOT
BRANCH   1   8
HETATM    8  O   LIG     1       0.991  -0.385  -0.149  1.00  0.00    -0.339 OA
BRANCH   8   9
HETATM    9  C   LIG     1       1.821   0.585  -0.781  1.00  0.00     0.285 C 
BRANCH   9  10
HETATM   10  C   LIG     1       3.203   0.039  -0.906  1.00  0.00     0.164 C 
HETATM   11  O   LIG     1       4.025   0.183   0.038  1.00  0.00    -0.648 OA
BRANCH  10  12
HETATM   12  O   LIG     1       3.568  -0.671  -2.045  1.00  0.00    -0.775 OA
HETATM   13  H   LIG     1       4.498  -1.063  -2.137  1.00  0.00     0.167 HD
ENDBRANCH  10  12
ENDBRANCH   9  10
ENDBRANCH   8   9
ENDBRANCH   1   8
TORSDOF 4
