REMARK  2 active torsions:
REMARK  status: ('A' for Active; 'I' for Inactive)
REMARK       I    between atoms: C_2  and  N_3 
REMARK    1  A    between atoms: N_3  and  C_4 
REMARK    2  A    between atoms: C_9  and  O_10 
ROOT
HETATM    1  C   LIG     1       0.320  -0.330   0.260  1.00  0.00     0.068 A 
HETATM    2  C   LIG     1       1.162  -1.449   0.347  1.00  0.00     0.032 A 
HETATM    3  C   LIG     1       2.539  -1.317   0.146  1.00  0.00     0.002 A 
HETATM    4  C   LIG     1       3.088  -0.064  -0.128  1.00  0.00     0.003 A 
HETATM    5  C   LIG     1       2.265   1.063  -0.189  1.00  0.00     0.039 A 
HETATM    6  C   LIG     1       0.882   0.941   0.018  1.00  0.00     0.092 A 
ENDROOT
BRANCH   1   7
HETATM    7  N   LIG     1      -1.089  -0.497   0.478  1.00  0.00    -0.325 N 
HETATM    8  C   LIG     1      -2.091   0.048  -0.393  1.00  0.00     0.218 C 
HETATM    9  C   LIG     1      -3.535  -0.067  -0.026  1.00  0.00     0.117 C 
HETATM   10  O   LIG     1      -1.767   0.596  -1.480  1.00  0.00    -0.274 OA
HETATM   11  H   LIG     1      -1.397  -1.168   1.218  1.00  0.00     0.169 HD
ENDBRANCH   1   7
BRANCH   6  12
HETATM   12  O   LIG     1       0.076   2.078   0.010  1.00  0.00    -0.358 OA
HETATM   13  H   LIG     1       0.460   3.001  -0.154  1.00  0.00     0.217 HD
ENDBRANCH   6  12
TORSDOF 2
