MODEL 1
REMARK VINA RESULT:      -5.6      0.000      0.000
REMARK  0 active torsions:
REMARK  status: ('A' for Active; 'I' for Inactive)
ROOT
HETATM    1  O   LIG     1      17.469  39.280  22.632  1.00  0.00    -0.246 OA
HETATM    2  C   LIG     1      18.037  38.723  21.652  1.00  0.00     0.328 A 
HETATM    3  N   LIG     1      18.993  39.403  20.959  1.00  0.00    -0.275 N 
HETATM    4  C   LIG     1      19.625  38.835  19.899  1.00  0.00     0.250 A 
HETATM    5  O   LIG     1      20.506  39.479  19.269  1.00  0.00    -0.268 OA
HETATM    6  N   LIG     1      17.699  37.445  21.288  1.00  0.00    -0.314 N 
HETATM    7  C   LIG     1      18.322  36.853  20.226  1.00  0.00     0.100 A 
HETATM    8  C   LIG     1      19.299  37.539  19.510  1.00  0.00     0.092 A 
HETATM    9  C   LIG     1      16.670  36.712  22.035  1.00  0.00     0.160 C 
HETATM   10  H   LIG     1      19.242  40.377  21.245  1.00  0.00     0.173 HD
ENDROOT
TORSDOF 0
ENDMDL
MODEL 2
REMARK VINA RESULT:      -5.5      3.820      5.165
REMARK  0 active torsions:
REMARK  status: ('A' for Active; 'I' for Inactive)
ROOT
HETATM    1  O   LIG     1      17.136  38.912  25.350  1.00  0.00    -0.246 OA
HETATM    2  C   LIG     1      17.162  37.703  24.988  1.00  0.00     0.328 A 
HETATM    3  N   LIG     1      17.455  36.738  25.904  1.00  0.00    -0.275 N 
HETATM    4  C   LIG     1      17.492  35.426  25.551  1.00  0.00     0.250 A 
HETATM    5  O   LIG     1      17.765  34.547  26.411  1.00  0.00    -0.268 OA
HETATM    6  N   LIG     1      16.897  37.362  23.687  1.00  0.00    -0.314 N 
HETATM    7  C   LIG     1      16.927  36.049  23.309  1.00  0.00     0.100 A 
HETATM    8  C   LIG     1      17.227  35.055  24.236  1.00  0.00     0.092 A 
HETATM    9  C   LIG     1      16.580  38.401  22.700  1.00  0.00     0.160 C 
HETATM   10  H   LIG     1      17.656  37.010  26.893  1.00  0.00     0.173 HD
ENDROOT
TORSDOF 0
ENDMDL
MODEL 3
REMARK VINA RESULT:      -5.3      1.680      2.144
REMARK  0 active torsions:
REMARK  status: ('A' for Active; 'I' for Inactive)
ROOT
HETATM    1  O   LIG     1      17.564  35.892  20.128  1.00  0.00    -0.246 OA
HETATM    2  C   LIG     1      17.980  37.033  20.475  1.00  0.00     0.328 A 
HETATM    3  N   LIG     1      18.961  37.635  19.746  1.00  0.00    -0.275 N 
HETATM    4  C   LIG     1      19.433  38.862  20.090  1.00  0.00     0.250 A 
HETATM    5  O   LIG     1      20.342  39.405  19.405  1.00  0.00    -0.268 OA
HETATM    6  N   LIG     1      17.450  37.662  21.572  1.00  0.00    -0.314 N 
HETATM    7  C   LIG     1      17.909  38.896  21.935  1.00  0.00     0.100 A 
HETATM    8  C   LIG     1      18.912  39.521  21.199  1.00  0.00     0.092 A 
HETATM    9  C   LIG     1      16.392  37.013  22.356  1.00  0.00     0.160 C 
HETATM   10  H   LIG     1      19.358  37.146  18.912  1.00  0.00     0.173 HD
ENDROOT
TORSDOF 0
ENDMDL
MODEL 4
REMARK VINA RESULT:      -5.2      3.745      4.518
REMARK  0 active torsions:
REMARK  status: ('A' for Active; 'I' for Inactive)
ROOT
HETATM    1  O   LIG     1      17.182  38.533  25.487  1.00  0.00    -0.246 OA
HETATM    2  C   LIG     1      17.119  37.473  24.805  1.00  0.00     0.328 A 
HETATM    3  N   LIG     1      16.644  37.528  23.529  1.00  0.00    -0.275 N 
HETATM    4  C   LIG     1      16.562  36.406  22.765  1.00  0.00     0.250 A 
HETATM    5  O   LIG     1      16.120  36.475  21.587  1.00  0.00    -0.268 OA
HETATM    6  N   LIG     1      17.525  36.277  25.340  1.00  0.00    -0.314 N 
HETATM    7  C   LIG     1      17.452  35.137  24.590  1.00  0.00     0.100 A 
HETATM    8  C   LIG     1      16.967  35.181  23.286  1.00  0.00     0.092 A 
HETATM    9  C   LIG     1      18.037  36.218  26.714  1.00  0.00     0.160 C 
HETATM   10  H   LIG     1      16.338  38.444  23.132  1.00  0.00     0.173 HD
ENDROOT
TORSDOF 0
ENDMDL
MODEL 5
REMARK VINA RESULT:      -5.2      2.157      3.919
REMARK  0 active torsions:
REMARK  status: ('A' for Active; 'I' for Inactive)
ROOT
HETATM    1  O   LIG     1      17.314  35.608  20.401  1.00  0.00    -0.246 OA
HETATM    2  C   LIG     1      17.345  36.664  21.093  1.00  0.00     0.328 A 
HETATM    3  N   LIG     1      16.511  36.784  22.164  1.00  0.00    -0.275 N 
HETATM    4  C   LIG     1      16.516  37.906  22.932  1.00  0.00     0.250 A 
HETATM    5  O   LIG     1      15.738  38.000  23.918  1.00  0.00    -0.268 OA
HETATM    6  N   LIG     1      18.207  37.680  20.773  1.00  0.00    -0.314 N 
HETATM    7  C   LIG     1      18.230  38.817  21.530  1.00  0.00     0.100 A 
HETATM    8  C   LIG     1      17.382  38.951  22.626  1.00  0.00     0.092 A 
HETATM    9  C   LIG     1      19.106  37.551  19.619  1.00  0.00     0.160 C 
HETATM   10  H   LIG     1      15.857  36.003  22.399  1.00  0.00     0.173 HD
ENDROOT
TORSDOF 0
ENDMDL
MODEL 6
REMARK VINA RESULT:      -5.2      1.544      3.469
REMARK  0 active torsions:
REMARK  status: ('A' for Active; 'I' for Inactive)
ROOT
HETATM    1  O   LIG     1      18.775  39.481  20.882  1.00  0.00    -0.246 OA
HETATM    2  C   LIG     1      18.060  38.550  21.347  1.00  0.00     0.328 A 
HETATM    3  N   LIG     1      17.302  38.781  22.455  1.00  0.00    -0.275 N 
HETATM    4  C   LIG     1      16.520  37.802  22.984  1.00  0.00     0.250 A 
HETATM    5  O   LIG     1      15.825  38.033  24.009  1.00  0.00    -0.268 OA
HETATM    6  N   LIG     1      18.046  37.319  20.745  1.00  0.00    -0.314 N 
HETATM    7  C   LIG     1      17.268  36.320  21.258  1.00  0.00     0.100 A 
HETATM    8  C   LIG     1      16.489  36.544  22.390  1.00  0.00     0.092 A 
HETATM    9  C   LIG     1      18.863  37.070  19.551  1.00  0.00     0.160 C 
HETATM   10  H   LIG     1      17.321  39.723  22.906  1.00  0.00     0.173 HD
ENDROOT
TORSDOF 0
ENDMDL
MODEL 7
REMARK VINA RESULT:      -5.2      3.655      5.009
REMARK  0 active torsions:
REMARK  status: ('A' for Active; 'I' for Inactive)
ROOT
HETATM    1  O   LIG     1      16.574  38.525  23.473  1.00  0.00    -0.246 OA
HETATM    2  C   LIG     1      16.886  37.426  24.012  1.00  0.00     0.328 A 
HETATM    3  N   LIG     1      17.379  37.422  25.282  1.00  0.00    -0.275 N 
HETATM    4  C   LIG     1      17.725  36.258  25.894  1.00  0.00     0.250 A 
HETATM    5  O   LIG     1      18.180  36.273  27.069  1.00  0.00    -0.268 OA
HETATM    6  N   LIG     1      16.729  36.248  23.329  1.00  0.00    -0.314 N 
HETATM    7  C   LIG     1      17.069  35.066  23.923  1.00  0.00     0.100 A 
HETATM    8  C   LIG     1      17.575  35.050  25.220  1.00  0.00     0.092 A 
HETATM    9  C   LIG     1      16.196  36.253  21.961  1.00  0.00     0.160 C 
HETATM   10  H   LIG     1      17.495  38.326  25.793  1.00  0.00     0.173 HD
ENDROOT
TORSDOF 0
ENDMDL
MODEL 8
REMARK VINA RESULT:      -5.1      3.536      5.286
REMARK  0 active torsions:
REMARK  status: ('A' for Active; 'I' for Inactive)
ROOT
HETATM    1  O   LIG     1      16.593  36.247  22.118  1.00  0.00    -0.246 OA
HETATM    2  C   LIG     1      16.973  36.486  23.299  1.00  0.00     0.328 A 
HETATM    3  N   LIG     1      17.166  35.448  24.160  1.00  0.00    -0.275 N 
HETATM    4  C   LIG     1      17.575  35.667  25.438  1.00  0.00     0.250 A 
HETATM    5  O   LIG     1      17.748  34.695  26.221  1.00  0.00    -0.268 OA
HETATM    6  N   LIG     1      17.192  37.775  23.711  1.00  0.00    -0.314 N 
HETATM    7  C   LIG     1      17.603  38.019  24.991  1.00  0.00     0.100 A 
HETATM    8  C   LIG     1      17.802  36.967  25.880  1.00  0.00     0.092 A 
HETATM    9  C   LIG     1      16.985  38.893  22.783  1.00  0.00     0.160 C 
HETATM   10  H   LIG     1      16.996  34.470  23.835  1.00  0.00     0.173 HD
ENDROOT
TORSDOF 0
ENDMDL
MODEL 9
REMARK VINA RESULT:      -5.1      3.734      4.855
REMARK  0 active torsions:
REMARK  status: ('A' for Active; 'I' for Inactive)
ROOT
HETATM    1  O   LIG     1      17.097  34.811  23.468  1.00  0.00    -0.246 OA
HETATM    2  C   LIG     1      17.186  35.944  24.018  1.00  0.00     0.328 A 
HETATM    3  N   LIG     1      16.903  37.062  23.293  1.00  0.00    -0.275 N 
HETATM    4  C   LIG     1      16.988  38.298  23.851  1.00  0.00     0.250 A 
HETATM    5  O   LIG     1      16.722  39.322  23.166  1.00  0.00    -0.268 OA
HETATM    6  N   LIG     1      17.562  36.051  25.332  1.00  0.00    -0.314 N 
HETATM    7  C   LIG     1      17.653  37.283  25.915  1.00  0.00     0.100 A 
HETATM    8  C   LIG     1      17.368  38.432  25.184  1.00  0.00     0.092 A 
HETATM    9  C   LIG     1      17.866  34.846  26.114  1.00  0.00     0.160 C 
HETATM   10  H   LIG     1      16.617  36.969  22.292  1.00  0.00     0.173 HD
ENDROOT
TORSDOF 0
ENDMDL
MODEL 10
REMARK VINA RESULT:      -5.1      3.505      4.204
REMARK  0 active torsions:
REMARK  status: ('A' for Active; 'I' for Inactive)
ROOT
HETATM    1  O   LIG     1      17.628  37.451  26.431  1.00  0.00    -0.246 OA
HETATM    2  C   LIG     1      17.291  37.305  25.223  1.00  0.00     0.328 A 
HETATM    3  N   LIG     1      16.945  38.400  24.490  1.00  0.00    -0.275 N 
HETATM    4  C   LIG     1      16.577  38.281  23.187  1.00  0.00     0.250 A 
HETATM    5  O   LIG     1      16.260  39.305  22.523  1.00  0.00    -0.268 OA
HETATM    6  N   LIG     1      17.273  36.059  24.652  1.00  0.00    -0.314 N 
HETATM    7  C   LIG     1      16.907  35.915  23.344  1.00  0.00     0.100 A 
HETATM    8  C   LIG     1      16.551  37.026  22.585  1.00  0.00     0.092 A 
HETATM    9  C   LIG     1      17.646  34.879  25.442  1.00  0.00     0.160 C 
HETATM   10  H   LIG     1      16.962  39.345  24.935  1.00  0.00     0.173 HD
ENDROOT
TORSDOF 0
ENDMDL
MODEL 11
REMARK VINA RESULT:      -4.9      7.902      8.891
REMARK  0 active torsions:
REMARK  status: ('A' for Active; 'I' for Inactive)
ROOT
HETATM    1  O   LIG     1      15.720  34.541  16.694  1.00  0.00    -0.246 OA
HETATM    2  C   LIG     1      15.253  33.414  16.370  1.00  0.00     0.328 A 
HETATM    3  N   LIG     1      14.105  32.974  16.957  1.00  0.00    -0.275 N 
HETATM    4  C   LIG     1      13.574  31.765  16.633  1.00  0.00     0.250 A 
HETATM    5  O   LIG     1      12.511  31.374  17.185  1.00  0.00    -0.268 OA
HETATM    6  N   LIG     1      15.894  32.638  15.439  1.00  0.00    -0.314 N 
HETATM    7  C   LIG     1      15.378  31.420  15.097  1.00  0.00     0.100 A 
HETATM    8  C   LIG     1      14.206  30.960  15.690  1.00  0.00     0.092 A 
HETATM    9  C   LIG     1      17.131  33.113  14.807  1.00  0.00     0.160 C 
HETATM   10  H   LIG     1      13.625  33.573  17.666  1.00  0.00     0.173 HD
ENDROOT
TORSDOF 0
ENDMDL
MODEL 12
REMARK VINA RESULT:      -4.9      3.263      4.191
REMARK  0 active torsions:
REMARK  status: ('A' for Active; 'I' for Inactive)
ROOT
HETATM    1  O   LIG     1      16.959  34.812  23.286  1.00  0.00    -0.246 OA
HETATM    2  C   LIG     1      17.052  36.070  23.225  1.00  0.00     0.328 A 
HETATM    3  N   LIG     1      17.042  36.796  24.378  1.00  0.00    -0.275 N 
HETATM    4  C   LIG     1      17.140  38.152  24.352  1.00  0.00     0.250 A 
HETATM    5  O   LIG     1      17.129  38.808  25.427  1.00  0.00    -0.268 OA
HETATM    6  N   LIG     1      17.162  36.701  22.013  1.00  0.00    -0.314 N 
HETATM    7  C   LIG     1      17.262  38.063  21.962  1.00  0.00     0.100 A 
HETATM    8  C   LIG     1      17.252  38.815  23.133  1.00  0.00     0.092 A 
HETATM    9  C   LIG     1      17.172  35.919  20.771  1.00  0.00     0.160 C 
HETATM   10  H   LIG     1      16.957  36.305  25.296  1.00  0.00     0.173 HD
ENDROOT
TORSDOF 0
ENDMDL
MODEL 13
REMARK VINA RESULT:      -4.9      2.898      3.643
REMARK  0 active torsions:
REMARK  status: ('A' for Active; 'I' for Inactive)
ROOT
HETATM    1  O   LIG     1      16.927  39.212  23.044  1.00  0.00    -0.246 OA
HETATM    2  C   LIG     1      16.971  37.954  22.949  1.00  0.00     0.328 A 
HETATM    3  N   LIG     1      16.881  37.375  21.719  1.00  0.00    -0.275 N 
HETATM    4  C   LIG     1      16.925  36.024  21.577  1.00  0.00     0.250 A 
HETATM    5  O   LIG     1      16.841  35.505  20.432  1.00  0.00    -0.268 OA
HETATM    6  N   LIG     1      17.107  37.176  24.070  1.00  0.00    -0.314 N 
HETATM    7  C   LIG     1      17.154  35.816  23.952  1.00  0.00     0.100 A 
HETATM    8  C   LIG     1      17.063  35.213  22.700  1.00  0.00     0.092 A 
HETATM    9  C   LIG     1      17.204  37.800  25.395  1.00  0.00     0.160 C 
HETATM   10  H   LIG     1      16.777  37.977  20.871  1.00  0.00     0.173 HD
ENDROOT
TORSDOF 0
ENDMDL
MODEL 14
REMARK VINA RESULT:      -4.9      2.076      4.062
REMARK  0 active torsions:
REMARK  status: ('A' for Active; 'I' for Inactive)
ROOT
HETATM    1  O   LIG     1      19.016  36.641  19.140  1.00  0.00    -0.246 OA
HETATM    2  C   LIG     1      18.255  36.806  20.134  1.00  0.00     0.328 A 
HETATM    3  N   LIG     1      17.366  35.827  20.464  1.00  0.00    -0.275 N 
HETATM    4  C   LIG     1      16.532  35.971  21.527  1.00  0.00     0.250 A 
HETATM    5  O   LIG     1      15.716  35.055  21.819  1.00  0.00    -0.268 OA
HETATM    6  N   LIG     1      18.320  37.957  20.875  1.00  0.00    -0.314 N 
HETATM    7  C   LIG     1      17.491  38.123  21.948  1.00  0.00     0.100 A 
HETATM    8  C   LIG     1      16.579  37.131  22.295  1.00  0.00     0.092 A 
HETATM    9  C   LIG     1      19.278  39.012  20.519  1.00  0.00     0.160 C 
HETATM   10  H   LIG     1      17.325  34.954  19.892  1.00  0.00     0.173 HD
ENDROOT
TORSDOF 0
ENDMDL
MODEL 15
REMARK VINA RESULT:      -4.8      8.150      8.827
REMARK  0 active torsions:
REMARK  status: ('A' for Active; 'I' for Inactive)
ROOT
HETATM    1  O   LIG     1      12.736  30.991  16.968  1.00  0.00    -0.246 OA
HETATM    2  C   LIG     1      13.751  31.630  16.574  1.00  0.00     0.328 A 
HETATM    3  N   LIG     1      14.107  32.778  17.215  1.00  0.00    -0.275 N 
HETATM    4  C   LIG     1      15.194  33.492  16.819  1.00  0.00     0.250 A 
HETATM    5  O   LIG     1      15.508  34.552  17.423  1.00  0.00    -0.268 OA
HETATM    6  N   LIG     1      14.490  31.174  15.514  1.00  0.00    -0.314 N 
HETATM    7  C   LIG     1      15.587  31.875  15.098  1.00  0.00     0.100 A 
HETATM    8  C   LIG     1      15.960  33.050  15.744  1.00  0.00     0.092 A 
HETATM    9  C   LIG     1      14.107  29.936  14.824  1.00  0.00     0.160 C 
HETATM   10  H   LIG     1      13.536  33.117  18.022  1.00  0.00     0.173 HD
ENDROOT
TORSDOF 0
ENDMDL
MODEL 16
REMARK VINA RESULT:      -4.8      2.272      2.819
REMARK  0 active torsions:
REMARK  status: ('A' for Active; 'I' for Inactive)
ROOT
HETATM    1  O   LIG     1      16.426  35.220  22.657  1.00  0.00    -0.246 OA
HETATM    2  C   LIG     1      17.043  36.154  22.073  1.00  0.00     0.328 A 
HETATM    3  N   LIG     1      17.578  35.932  20.840  1.00  0.00    -0.275 N 
HETATM    4  C   LIG     1      18.250  36.913  20.182  1.00  0.00     0.250 A 
HETATM    5  O   LIG     1      18.738  36.691  19.042  1.00  0.00    -0.268 OA
HETATM    6  N   LIG     1      17.175  37.380  22.672  1.00  0.00    -0.314 N 
HETATM    7  C   LIG     1      17.845  38.382  22.029  1.00  0.00     0.100 A 
HETATM    8  C   LIG     1      18.396  38.167  20.770  1.00  0.00     0.092 A 
HETATM    9  C   LIG     1      16.598  37.619  24.000  1.00  0.00     0.160 C 
HETATM   10  H   LIG     1      17.472  34.993  20.393  1.00  0.00     0.173 HD
ENDROOT
TORSDOF 0
ENDMDL
MODEL 17
REMARK VINA RESULT:      -4.7     10.018     10.774
REMARK  0 active torsions:
REMARK  status: ('A' for Active; 'I' for Inactive)
ROOT
HETATM    1  O   LIG     1      12.804  31.675  17.140  1.00  0.00    -0.246 OA
HETATM    2  C   LIG     1      13.402  31.121  16.175  1.00  0.00     0.328 A 
HETATM    3  N   LIG     1      12.814  30.068  15.542  1.00  0.00    -0.275 N 
HETATM    4  C   LIG     1      13.428  29.448  14.500  1.00  0.00     0.250 A 
HETATM    5  O   LIG     1      12.870  28.475  13.925  1.00  0.00    -0.268 OA
HETATM    6  N   LIG     1      14.630  31.575  15.767  1.00  0.00    -0.314 N 
HETATM    7  C   LIG     1      15.266  30.967  14.722  1.00  0.00     0.100 A 
HETATM    8  C   LIG     1      14.675  29.890  14.067  1.00  0.00     0.092 A 
HETATM    9  C   LIG     1      15.263  32.710  16.450  1.00  0.00     0.160 C 
HETATM   10  H   LIG     1      11.878  29.731  15.862  1.00  0.00     0.173 HD
ENDROOT
TORSDOF 0
ENDMDL
MODEL 18
REMARK VINA RESULT:      -4.7      8.163      9.159
REMARK  0 active torsions:
REMARK  status: ('A' for Active; 'I' for Inactive)
ROOT
HETATM    1  O   LIG     1      17.028  32.151  14.121  1.00  0.00    -0.246 OA
HETATM    2  C   LIG     1      16.142  32.037  15.014  1.00  0.00     0.328 A 
HETATM    3  N   LIG     1      16.208  32.827  16.122  1.00  0.00    -0.275 N 
HETATM    4  C   LIG     1      15.272  32.733  17.104  1.00  0.00     0.250 A 
HETATM    5  O   LIG     1      15.348  33.471  18.122  1.00  0.00    -0.268 OA
HETATM    6  N   LIG     1      15.124  31.131  14.872  1.00  0.00    -0.314 N 
HETATM    7  C   LIG     1      14.172  31.019  15.845  1.00  0.00     0.100 A 
HETATM    8  C   LIG     1      14.229  31.820  16.982  1.00  0.00     0.092 A 
HETATM    9  C   LIG     1      15.054  30.280  13.677  1.00  0.00     0.160 C 
HETATM   10  H   LIG     1      16.988  33.515  16.220  1.00  0.00     0.173 HD
ENDROOT
TORSDOF 0
ENDMDL
MODEL 19
REMARK VINA RESULT:      -4.6      2.388      3.674
REMARK  0 active torsions:
REMARK  status: ('A' for Active; 'I' for Inactive)
ROOT
HETATM    1  O   LIG     1      16.473  38.839  23.469  1.00  0.00    -0.246 OA
HETATM    2  C   LIG     1      16.694  37.949  22.601  1.00  0.00     0.328 A 
HETATM    3  N   LIG     1      15.893  36.848  22.555  1.00  0.00    -0.275 N 
HETATM    4  C   LIG     1      16.100  35.870  21.634  1.00  0.00     0.250 A 
HETATM    5  O   LIG     1      15.350  34.858  21.606  1.00  0.00    -0.268 OA
HETATM    6  N   LIG     1      17.728  38.088  21.711  1.00  0.00    -0.314 N 
HETATM    7  C   LIG     1      17.955  37.118  20.777  1.00  0.00     0.100 A 
HETATM    8  C   LIG     1      17.144  35.988  20.721  1.00  0.00     0.092 A 
HETATM    9  C   LIG     1      18.590  39.275  21.760  1.00  0.00     0.160 C 
HETATM   10  H   LIG     1      15.108  36.753  23.238  1.00  0.00     0.173 HD
ENDROOT
TORSDOF 0
ENDMDL
MODEL 20
REMARK VINA RESULT:      -4.6      8.802      9.925
REMARK  0 active torsions:
REMARK  status: ('A' for Active; 'I' for Inactive)
ROOT
HETATM    1  O   LIG     1      15.967  30.777  13.660  1.00  0.00    -0.246 OA
HETATM    2  C   LIG     1      15.420  31.233  14.703  1.00  0.00     0.328 A 
HETATM    3  N   LIG     1      14.306  30.620  15.194  1.00  0.00    -0.275 N 
HETATM    4  C   LIG     1      13.690  31.082  16.314  1.00  0.00     0.250 A 
HETATM    5  O   LIG     1      12.662  30.503  16.755  1.00  0.00    -0.268 OA
HETATM    6  N   LIG     1      15.939  32.332  15.336  1.00  0.00    -0.314 N 
HETATM    7  C   LIG     1      15.337  32.814  16.464  1.00  0.00     0.100 A 
HETATM    8  C   LIG     1      14.198  32.197  16.975  1.00  0.00     0.092 A 
HETATM    9  C   LIG     1      17.139  32.992  14.808  1.00  0.00     0.160 C 
HETATM   10  H   LIG     1      13.919  29.783  14.703  1.00  0.00     0.173 HD
ENDROOT
TORSDOF 0
ENDMDL
