REMARK  0 active torsions:
REMARK  status: ('A' for Active; 'I' for Inactive)
ROOT
HETATM    1  C   LIG     1       3.214   0.100   0.015  1.00  0.00     0.091 C 
HETATM    2  C   LIG     1       1.722   0.113   0.000  1.00  0.00     0.101 A 
HETATM    3  N   LIG     1       0.990   1.249  -0.151  1.00  0.00    -0.234 NA
HETATM    4  C   LIG     1      -0.275   0.793  -0.104  1.00  0.00     0.085 A 
HETATM    5  C   LIG     1      -1.452   1.531  -0.208  1.00  0.00     0.034 A 
HETATM    6  C   LIG     1      -2.671   0.831  -0.129  1.00  0.00     0.002 A 
HETATM    7  C   LIG     1      -2.682  -0.572   0.050  1.00  0.00     0.002 A 
HETATM    8  C   LIG     1      -1.473  -1.286   0.152  1.00  0.00     0.032 A 
HETATM    9  C   LIG     1      -0.287  -0.559   0.069  1.00  0.00     0.062 A 
HETATM   10  N   LIG     1       0.971  -1.008   0.137  1.00  0.00    -0.343 N 
HETATM   11  H   LIG     1       1.299  -1.992   0.266  1.00  0.00     0.167 HD
ENDROOT
TORSDOF 0
