REMARK  0 active torsions:
REMARK  status: ('A' for Active; 'I' for Inactive)
ROOT
HETATM    1 BR   LIG     1       2.777  -1.694   0.100  1.00  0.00    -0.050 Br
HETATM    2  C   LIG     1       1.154  -0.677   0.041  1.00  0.00     0.029 A 
HETATM    3  C   LIG     1      -0.067  -1.363   0.035  1.00  0.00     0.039 A 
HETATM    4  C   LIG     1      -1.273  -0.656  -0.007  1.00  0.00     0.012 A 
HETATM    5 BR   LIG     1      -2.934  -1.599  -0.014  1.00  0.00    -0.051 Br
HETATM    6  C   LIG     1      -1.262   0.741  -0.045  1.00  0.00     0.020 A 
HETATM    7  C   LIG     1      -0.046   1.432  -0.040  1.00  0.00     0.022 A 
HETATM    8  C   LIG     1       1.165   0.730   0.003  1.00  0.00     0.028 A 
HETATM    9 BR   LIG     1       2.802   1.724   0.008  1.00  0.00    -0.050 Br
ENDROOT
TORSDOF 0
