REMARK  0 active torsions:
REMARK  status: ('A' for Active; 'I' for Inactive)
ROOT
HETATM    1  O   LIG     1       0.578   2.275  -0.260  1.00  0.00    -0.246 OA
HETATM    2  C   LIG     1      -0.011   1.168  -0.112  1.00  0.00     0.328 A 
HETATM    3  N   LIG     1      -1.370   1.143  -0.016  1.00  0.00    -0.275 N 
HETATM    4  C   LIG     1      -2.038  -0.030   0.144  1.00  0.00     0.250 A 
HETATM    5  O   LIG     1      -3.295  -0.035   0.231  1.00  0.00    -0.268 OA
HETATM    6  N   LIG     1       0.707   0.002  -0.049  1.00  0.00    -0.314 N 
HETATM    7  C   LIG     1       0.057  -1.189   0.111  1.00  0.00     0.100 A 
HETATM    8  C   LIG     1      -1.331  -1.227   0.211  1.00  0.00     0.092 A 
HETATM    9  C   LIG     1       2.171   0.029  -0.153  1.00  0.00     0.160 C 
HETATM   10  H   LIG     1      -1.907   2.038  -0.065  1.00  0.00     0.173 HD
ENDROOT
TORSDOF 0
