MODEL 1
REMARK VINA RESULT:      -5.5      0.000      0.000
REMARK  0 active torsions:
REMARK  status: ('A' for Active; 'I' for Inactive)
ROOT
HETATM    1 BR   LIG     1      17.830  34.934  25.974  1.00  0.00    -0.050 Br
HETATM    2  C   LIG     1      17.190  35.737  24.356  1.00  0.00     0.029 A 
HETATM    3  C   LIG     1      16.856  34.905  23.281  1.00  0.00     0.039 A 
HETATM    4  C   LIG     1      16.385  35.454  22.084  1.00  0.00     0.012 A 
HETATM    5 BR   LIG     1      15.931  34.311  20.622  1.00  0.00    -0.051 Br
HETATM    6  C   LIG     1      16.247  36.839  21.958  1.00  0.00     0.020 A 
HETATM    7  C   LIG     1      16.579  37.676  23.028  1.00  0.00     0.022 A 
HETATM    8  C   LIG     1      17.051  37.132  24.229  1.00  0.00     0.028 A 
HETATM    9 BR   LIG     1      17.492  38.322  25.664  1.00  0.00    -0.050 Br
ENDROOT
TORSDOF 0
ENDMDL
MODEL 2
REMARK VINA RESULT:      -5.4      2.917      3.590
REMARK  0 active torsions:
REMARK  status: ('A' for Active; 'I' for Inactive)
ROOT
HETATM    1 BR   LIG     1      16.746  35.152  22.031  1.00  0.00    -0.050 Br
HETATM    2  C   LIG     1      17.507  36.886  21.734  1.00  0.00     0.029 A 
HETATM    3  C   LIG     1      18.026  37.182  20.468  1.00  0.00     0.039 A 
HETATM    4  C   LIG     1      18.589  38.436  20.212  1.00  0.00     0.012 A 
HETATM    5 BR   LIG     1      19.293  38.833  18.481  1.00  0.00    -0.051 Br
HETATM    6  C   LIG     1      18.638  39.399  21.224  1.00  0.00     0.020 A 
HETATM    7  C   LIG     1      18.123  39.109  22.491  1.00  0.00     0.022 A 
HETATM    8  C   LIG     1      17.556  37.855  22.753  1.00  0.00     0.028 A 
HETATM    9 BR   LIG     1      16.865  37.509  24.506  1.00  0.00    -0.050 Br
ENDROOT
TORSDOF 0
ENDMDL
MODEL 3
REMARK VINA RESULT:      -5.3      1.819      3.597
REMARK  0 active torsions:
REMARK  status: ('A' for Active; 'I' for Inactive)
ROOT
HETATM    1 BR   LIG     1      16.863  35.900  20.872  1.00  0.00    -0.050 Br
HETATM    2  C   LIG     1      17.265  36.511  22.643  1.00  0.00     0.029 A 
HETATM    3  C   LIG     1      17.161  35.604  23.705  1.00  0.00     0.039 A 
HETATM    4  C   LIG     1      17.447  36.012  25.012  1.00  0.00     0.012 A 
HETATM    5 BR   LIG     1      17.304  34.768  26.454  1.00  0.00    -0.051 Br
HETATM    6  C   LIG     1      17.835  37.331  25.262  1.00  0.00     0.020 A 
HETATM    7  C   LIG     1      17.939  38.242  24.206  1.00  0.00     0.022 A 
HETATM    8  C   LIG     1      17.656  37.839  22.895  1.00  0.00     0.028 A 
HETATM    9 BR   LIG     1      17.815  39.126  21.485  1.00  0.00    -0.050 Br
ENDROOT
TORSDOF 0
ENDMDL
MODEL 4
REMARK VINA RESULT:      -5.2      1.607      4.254
REMARK  0 active torsions:
REMARK  status: ('A' for Active; 'I' for Inactive)
ROOT
HETATM    1 BR   LIG     1      17.126  38.882  22.031  1.00  0.00    -0.050 Br
HETATM    2  C   LIG     1      17.216  37.282  23.082  1.00  0.00     0.029 A 
HETATM    3  C   LIG     1      17.639  37.377  24.413  1.00  0.00     0.039 A 
HETATM    4  C   LIG     1      17.717  36.232  25.212  1.00  0.00     0.012 A 
HETATM    5 BR   LIG     1      18.295  36.371  27.027  1.00  0.00    -0.051 Br
HETATM    6  C   LIG     1      17.373  34.986  24.681  1.00  0.00     0.020 A 
HETATM    7  C   LIG     1      16.950  34.884  23.352  1.00  0.00     0.022 A 
HETATM    8  C   LIG     1      16.869  36.027  22.547  1.00  0.00     0.028 A 
HETATM    9 BR   LIG     1      16.283  35.832  20.734  1.00  0.00    -0.050 Br
ENDROOT
TORSDOF 0
ENDMDL
MODEL 5
REMARK VINA RESULT:      -5.0      2.179      4.384
REMARK  0 active torsions:
REMARK  status: ('A' for Active; 'I' for Inactive)
ROOT
HETATM    1 BR   LIG     1      16.423  35.301  20.579  1.00  0.00    -0.050 Br
HETATM    2  C   LIG     1      17.270  36.761  21.486  1.00  0.00     0.029 A 
HETATM    3  C   LIG     1      17.005  36.947  22.848  1.00  0.00     0.039 A 
HETATM    4  C   LIG     1      17.605  38.001  23.546  1.00  0.00     0.012 A 
HETATM    5 BR   LIG     1      17.239  38.248  25.404  1.00  0.00    -0.051 Br
HETATM    6  C   LIG     1      18.471  38.874  22.881  1.00  0.00     0.020 A 
HETATM    7  C   LIG     1      18.739  38.693  21.520  1.00  0.00     0.022 A 
HETATM    8  C   LIG     1      18.143  37.640  20.817  1.00  0.00     0.028 A 
HETATM    9 BR   LIG     1      18.543  37.437  18.955  1.00  0.00    -0.050 Br
ENDROOT
TORSDOF 0
ENDMDL
MODEL 6
REMARK VINA RESULT:      -4.9      2.753      3.363
REMARK  0 active torsions:
REMARK  status: ('A' for Active; 'I' for Inactive)
ROOT
HETATM    1 BR   LIG     1      19.386  37.074  19.473  1.00  0.00    -0.050 Br
HETATM    2  C   LIG     1      17.889  36.925  20.660  1.00  0.00     0.029 A 
HETATM    3  C   LIG     1      17.071  35.792  20.570  1.00  0.00     0.039 A 
HETATM    4  C   LIG     1      15.970  35.647  21.419  1.00  0.00     0.012 A 
HETATM    5 BR   LIG     1      14.860  34.098  21.290  1.00  0.00    -0.051 Br
HETATM    6  C   LIG     1      15.681  36.637  22.362  1.00  0.00     0.020 A 
HETATM    7  C   LIG     1      16.493  37.772  22.457  1.00  0.00     0.022 A 
HETATM    8  C   LIG     1      17.598  37.923  21.610  1.00  0.00     0.028 A 
HETATM    9 BR   LIG     1      18.677  39.495  21.781  1.00  0.00    -0.050 Br
ENDROOT
TORSDOF 0
ENDMDL
MODEL 7
REMARK VINA RESULT:      -4.8      7.930      9.517
REMARK  0 active torsions:
REMARK  status: ('A' for Active; 'I' for Inactive)
ROOT
HETATM    1 BR   LIG     1      17.129  33.010  14.869  1.00  0.00    -0.050 Br
HETATM    2  C   LIG     1      15.521  32.114  15.403  1.00  0.00     0.029 A 
HETATM    3  C   LIG     1      15.129  30.967  14.702  1.00  0.00     0.039 A 
HETATM    4  C   LIG     1      13.962  30.285  15.061  1.00  0.00     0.012 A 
HETATM    5 BR   LIG     1      13.434  28.720  14.101  1.00  0.00    -0.051 Br
HETATM    6  C   LIG     1      13.181  30.750  16.123  1.00  0.00     0.020 A 
HETATM    7  C   LIG     1      13.567  31.895  16.827  1.00  0.00     0.022 A 
HETATM    8  C   LIG     1      14.735  32.582  16.472  1.00  0.00     0.028 A 
HETATM    9 BR   LIG     1      15.218  34.145  17.468  1.00  0.00    -0.050 Br
ENDROOT
TORSDOF 0
ENDMDL
MODEL 8
REMARK VINA RESULT:      -4.8      2.003      2.571
REMARK  0 active torsions:
REMARK  status: ('A' for Active; 'I' for Inactive)
ROOT
HETATM    1 BR   LIG     1      16.824  37.661  24.326  1.00  0.00    -0.050 Br
HETATM    2  C   LIG     1      17.023  36.990  22.542  1.00  0.00     0.029 A 
HETATM    3  C   LIG     1      16.356  35.808  22.193  1.00  0.00     0.039 A 
HETATM    4  C   LIG     1      16.476  35.287  20.900  1.00  0.00     0.012 A 
HETATM    5 BR   LIG     1      15.564  33.676  20.431  1.00  0.00    -0.051 Br
HETATM    6  C   LIG     1      17.265  35.945  19.953  1.00  0.00     0.020 A 
HETATM    7  C   LIG     1      17.934  37.124  20.296  1.00  0.00     0.022 A 
HETATM    8  C   LIG     1      17.817  37.652  21.588  1.00  0.00     0.028 A 
HETATM    9 BR   LIG     1      18.753  39.270  22.006  1.00  0.00    -0.050 Br
ENDROOT
TORSDOF 0
ENDMDL
MODEL 9
REMARK VINA RESULT:      -4.7      3.090      4.264
REMARK  0 active torsions:
REMARK  status: ('A' for Active; 'I' for Inactive)
ROOT
HETATM    1 BR   LIG     1      16.352  37.798  23.572  1.00  0.00    -0.050 Br
HETATM    2  C   LIG     1      17.173  37.369  21.895  1.00  0.00     0.029 A 
HETATM    3  C   LIG     1      18.213  38.185  21.430  1.00  0.00     0.039 A 
HETATM    4  C   LIG     1      18.838  37.904  20.211  1.00  0.00     0.012 A 
HETATM    5 BR   LIG     1      20.256  39.020  19.584  1.00  0.00    -0.051 Br
HETATM    6  C   LIG     1      18.424  36.807  19.450  1.00  0.00     0.020 A 
HETATM    7  C   LIG     1      17.386  35.989  19.909  1.00  0.00     0.022 A 
HETATM    8  C   LIG     1      16.756  36.264  21.129  1.00  0.00     0.028 A 
HETATM    9 BR   LIG     1      15.340  35.114  21.711  1.00  0.00    -0.050 Br
ENDROOT
TORSDOF 0
ENDMDL
MODEL 10
REMARK VINA RESULT:      -4.7      1.121      2.484
REMARK  0 active torsions:
REMARK  status: ('A' for Active; 'I' for Inactive)
ROOT
HETATM    1 BR   LIG     1      16.917  39.352  22.690  1.00  0.00    -0.050 Br
HETATM    2  C   LIG     1      16.852  37.447  22.891  1.00  0.00     0.029 A 
HETATM    3  C   LIG     1      16.433  36.672  21.802  1.00  0.00     0.039 A 
HETATM    4  C   LIG     1      16.373  35.279  21.909  1.00  0.00     0.012 A 
HETATM    5 BR   LIG     1      15.801  34.230  20.419  1.00  0.00    -0.051 Br
HETATM    6  C   LIG     1      16.731  34.655  23.107  1.00  0.00     0.020 A 
HETATM    7  C   LIG     1      17.150  35.423  24.198  1.00  0.00     0.022 A 
HETATM    8  C   LIG     1      17.213  36.819  24.097  1.00  0.00     0.028 A 
HETATM    9 BR   LIG     1      17.793  37.824  25.621  1.00  0.00    -0.050 Br
ENDROOT
TORSDOF 0
ENDMDL
MODEL 11
REMARK VINA RESULT:      -4.6      2.632      4.715
REMARK  0 active torsions:
REMARK  status: ('A' for Active; 'I' for Inactive)
ROOT
HETATM    1 BR   LIG     1      19.191  39.472  20.229  1.00  0.00    -0.050 Br
HETATM    2  C   LIG     1      18.298  38.213  21.364  1.00  0.00     0.029 A 
HETATM    3  C   LIG     1      18.112  38.540  22.713  1.00  0.00     0.039 A 
HETATM    4  C   LIG     1      17.465  37.647  23.572  1.00  0.00     0.012 A 
HETATM    5 BR   LIG     1      17.214  38.101  25.410  1.00  0.00    -0.051 Br
HETATM    6  C   LIG     1      17.003  36.421  23.086  1.00  0.00     0.020 A 
HETATM    7  C   LIG     1      17.186  36.087  21.740  1.00  0.00     0.022 A 
HETATM    8  C   LIG     1      17.833  36.978  20.874  1.00  0.00     0.028 A 
HETATM    9 BR   LIG     1      18.058  36.473  19.040  1.00  0.00    -0.050 Br
ENDROOT
TORSDOF 0
ENDMDL
MODEL 12
REMARK VINA RESULT:      -4.5      8.267      9.907
REMARK  0 active torsions:
REMARK  status: ('A' for Active; 'I' for Inactive)
ROOT
HETATM    1 BR   LIG     1      14.982  32.707  17.792  1.00  0.00    -0.050 Br
HETATM    2  C   LIG     1      15.482  32.331  15.980  1.00  0.00     0.029 A 
HETATM    3  C   LIG     1      16.552  33.039  15.420  1.00  0.00     0.039 A 
HETATM    4  C   LIG     1      16.948  32.793  14.101  1.00  0.00     0.012 A 
HETATM    5 BR   LIG     1      18.409  33.762  13.345  1.00  0.00    -0.051 Br
HETATM    6  C   LIG     1      16.272  31.838  13.337  1.00  0.00     0.020 A 
HETATM    7  C   LIG     1      15.201  31.128  13.891  1.00  0.00     0.022 A 
HETATM    8  C   LIG     1      14.801  31.369  15.211  1.00  0.00     0.028 A 
HETATM    9 BR   LIG     1      13.330  30.370  15.921  1.00  0.00    -0.050 Br
ENDROOT
TORSDOF 0
ENDMDL
MODEL 13
REMARK VINA RESULT:      -4.4      8.407      9.963
REMARK  0 active torsions:
REMARK  status: ('A' for Active; 'I' for Inactive)
ROOT
HETATM    1 BR   LIG     1      14.355  29.762  14.210  1.00  0.00    -0.050 Br
HETATM    2  C   LIG     1      15.332  31.355  14.637  1.00  0.00     0.029 A 
HETATM    3  C   LIG     1      16.292  31.817  13.727  1.00  0.00     0.039 A 
HETATM    4  C   LIG     1      17.025  32.975  14.003  1.00  0.00     0.012 A 
HETATM    5 BR   LIG     1      18.331  33.599  12.757  1.00  0.00    -0.051 Br
HETATM    6  C   LIG     1      16.802  33.676  15.192  1.00  0.00     0.020 A 
HETATM    7  C   LIG     1      15.845  33.220  16.104  1.00  0.00     0.022 A 
HETATM    8  C   LIG     1      15.107  32.061  15.834  1.00  0.00     0.028 A 
HETATM    9 BR   LIG     1      13.810  31.478  17.117  1.00  0.00    -0.050 Br
ENDROOT
TORSDOF 0
ENDMDL
MODEL 14
REMARK VINA RESULT:      -3.6      1.988      2.995
REMARK  0 active torsions:
REMARK  status: ('A' for Active; 'I' for Inactive)
ROOT
HETATM    1 BR   LIG     1      18.566  37.443  26.498  1.00  0.00    -0.050 Br
HETATM    2  C   LIG     1      17.966  37.147  24.703  1.00  0.00     0.029 A 
HETATM    3  C   LIG     1      18.224  38.131  23.739  1.00  0.00     0.039 A 
HETATM    4  C   LIG     1      17.803  37.951  22.418  1.00  0.00     0.012 A 
HETATM    5 BR   LIG     1      18.160  39.297  21.110  1.00  0.00    -0.051 Br
HETATM    6  C   LIG     1      17.119  36.788  22.055  1.00  0.00     0.020 A 
HETATM    7  C   LIG     1      16.857  35.802  23.013  1.00  0.00     0.022 A 
HETATM    8  C   LIG     1      17.277  35.975  24.338  1.00  0.00     0.028 A 
HETATM    9 BR   LIG     1      16.894  34.596  25.609  1.00  0.00    -0.050 Br
ENDROOT
TORSDOF 0
ENDMDL
MODEL 15
REMARK VINA RESULT:      -3.3     17.480     18.949
REMARK  0 active torsions:
REMARK  status: ('A' for Active; 'I' for Inactive)
ROOT
HETATM    1 BR   LIG     1      20.516  19.860  37.009  1.00  0.00    -0.050 Br
HETATM    2  C   LIG     1      21.014  21.377  35.950  1.00  0.00     0.029 A 
HETATM    3  C   LIG     1      20.262  21.671  34.806  1.00  0.00     0.039 A 
HETATM    4  C   LIG     1      20.594  22.770  34.007  1.00  0.00     0.012 A 
HETATM    5 BR   LIG     1      19.562  23.166  32.449  1.00  0.00    -0.051 Br
HETATM    6  C   LIG     1      21.682  23.578  34.349  1.00  0.00     0.020 A 
HETATM    7  C   LIG     1      22.438  23.289  35.490  1.00  0.00     0.022 A 
HETATM    8  C   LIG     1      22.110  22.191  36.294  1.00  0.00     0.028 A 
HETATM    9 BR   LIG     1      23.177  21.838  37.845  1.00  0.00    -0.050 Br
ENDROOT
TORSDOF 0
ENDMDL
MODEL 16
REMARK VINA RESULT:      -3.3     15.472     16.269
REMARK  0 active torsions:
REMARK  status: ('A' for Active; 'I' for Inactive)
ROOT
HETATM    1 BR   LIG     1      23.297  21.950  21.970  1.00  0.00    -0.050 Br
HETATM    2  C   LIG     1      24.357  22.618  20.521  1.00  0.00     0.029 A 
HETATM    3  C   LIG     1      25.276  23.643  20.779  1.00  0.00     0.039 A 
HETATM    4  C   LIG     1      26.068  24.156  19.747  1.00  0.00     0.012 A 
HETATM    5 BR   LIG     1      27.319  25.554  20.107  1.00  0.00    -0.051 Br
HETATM    6  C   LIG     1      25.943  23.647  18.451  1.00  0.00     0.020 A 
HETATM    7  C   LIG     1      25.027  22.624  18.187  1.00  0.00     0.022 A 
HETATM    8  C   LIG     1      24.231  22.105  19.216  1.00  0.00     0.028 A 
HETATM    9 BR   LIG     1      22.993  20.704  18.801  1.00  0.00    -0.050 Br
ENDROOT
TORSDOF 0
ENDMDL
MODEL 17
REMARK VINA RESULT:      -3.3     15.668     16.369
REMARK  0 active torsions:
REMARK  status: ('A' for Active; 'I' for Inactive)
ROOT
HETATM    1 BR   LIG     1      23.028  20.894  18.384  1.00  0.00    -0.050 Br
HETATM    2  C   LIG     1      24.244  22.146  19.175  1.00  0.00     0.029 A 
HETATM    3  C   LIG     1      25.208  22.751  18.359  1.00  0.00     0.039 A 
HETATM    4  C   LIG     1      26.113  23.670  18.900  1.00  0.00     0.012 A 
HETATM    5 BR   LIG     1      27.424  24.491  17.780  1.00  0.00    -0.051 Br
HETATM    6  C   LIG     1      26.058  23.987  20.260  1.00  0.00     0.020 A 
HETATM    7  C   LIG     1      25.097  23.386  21.080  1.00  0.00     0.022 A 
HETATM    8  C   LIG     1      24.188  22.465  20.545  1.00  0.00     0.028 A 
HETATM    9 BR   LIG     1      22.893  21.671  21.711  1.00  0.00    -0.050 Br
ENDROOT
TORSDOF 0
ENDMDL
MODEL 18
REMARK VINA RESULT:      -3.2     15.780     16.384
REMARK  0 active torsions:
REMARK  status: ('A' for Active; 'I' for Inactive)
ROOT
HETATM    1 BR   LIG     1      25.991  23.258  18.779  1.00  0.00    -0.050 Br
HETATM    2  C   LIG     1      24.961  22.706  20.298  1.00  0.00     0.029 A 
HETATM    3  C   LIG     1      25.458  22.974  21.579  1.00  0.00     0.039 A 
HETATM    4  C   LIG     1      24.735  22.588  22.712  1.00  0.00     0.012 A 
HETATM    5 BR   LIG     1      25.420  22.958  24.456  1.00  0.00    -0.051 Br
HETATM    6  C   LIG     1      23.511  21.929  22.567  1.00  0.00     0.020 A 
HETATM    7  C   LIG     1      23.009  21.657  21.290  1.00  0.00     0.022 A 
HETATM    8  C   LIG     1      23.728  22.043  20.152  1.00  0.00     0.028 A 
HETATM    9 BR   LIG     1      22.996  21.647  18.427  1.00  0.00    -0.050 Br
ENDROOT
TORSDOF 0
ENDMDL
MODEL 19
REMARK VINA RESULT:      -3.1     15.555     16.499
REMARK  0 active torsions:
REMARK  status: ('A' for Active; 'I' for Inactive)
ROOT
HETATM    1 BR   LIG     1      29.619  25.091  15.976  1.00  0.00    -0.050 Br
HETATM    2  C   LIG     1      28.346  25.162  17.406  1.00  0.00     0.029 A 
HETATM    3  C   LIG     1      27.406  24.130  17.519  1.00  0.00     0.039 A 
HETATM    4  C   LIG     1      26.461  24.145  18.550  1.00  0.00     0.012 A 
HETATM    5 BR   LIG     1      25.184  22.733  18.697  1.00  0.00    -0.051 Br
HETATM    6  C   LIG     1      26.452  25.195  19.472  1.00  0.00     0.020 A 
HETATM    7  C   LIG     1      27.388  26.230  19.365  1.00  0.00     0.022 A 
HETATM    8  C   LIG     1      28.337  26.219  18.335  1.00  0.00     0.028 A 
HETATM    9 BR   LIG     1      29.595  27.659  18.233  1.00  0.00    -0.050 Br
ENDROOT
TORSDOF 0
ENDMDL
MODEL 20
REMARK VINA RESULT:      -2.8     17.483     19.191
REMARK  0 active torsions:
REMARK  status: ('A' for Active; 'I' for Inactive)
ROOT
HETATM    1 BR   LIG     1      19.497  20.036  34.699  1.00  0.00    -0.050 Br
HETATM    2  C   LIG     1      20.712  21.466  35.087  1.00  0.00     0.029 A 
HETATM    3  C   LIG     1      21.503  21.379  36.240  1.00  0.00     0.039 A 
HETATM    4  C   LIG     1      22.403  22.403  36.557  1.00  0.00     0.012 A 
HETATM    5 BR   LIG     1      23.479  22.276  38.130  1.00  0.00    -0.051 Br
HETATM    6  C   LIG     1      22.512  23.519  35.722  1.00  0.00     0.020 A 
HETATM    7  C   LIG     1      21.724  23.612  34.571  1.00  0.00     0.022 A 
HETATM    8  C   LIG     1      20.823  22.590  34.247  1.00  0.00     0.028 A 
HETATM    9 BR   LIG     1      19.768  22.767  32.659  1.00  0.00    -0.050 Br
ENDROOT
TORSDOF 0
ENDMDL
