MODEL 1
REMARK VINA RESULT:      -6.9      0.000      0.000
REMARK  0 active torsions:
REMARK  status: ('A' for Active; 'I' for Inactive)
ROOT
HETATM    1  C   LIG     1      16.095  38.938  22.345  1.00  0.00     0.091 C 
HETATM    2  C   LIG     1      16.629  38.028  23.400  1.00  0.00     0.101 A 
HETATM    3  N   LIG     1      17.178  38.476  24.560  1.00  0.00    -0.234 NA
HETATM    4  C   LIG     1      17.512  37.334  25.189  1.00  0.00     0.085 A 
HETATM    5  C   LIG     1      18.119  37.193  26.435  1.00  0.00     0.034 A 
HETATM    6  C   LIG     1      18.375  35.886  26.892  1.00  0.00     0.002 A 
HETATM    7  C   LIG     1      18.022  34.768  26.101  1.00  0.00     0.002 A 
HETATM    8  C   LIG     1      17.411  34.948  24.846  1.00  0.00     0.032 A 
HETATM    9  C   LIG     1      17.173  36.256  24.427  1.00  0.00     0.062 A 
HETATM   10  N   LIG     1      16.611  36.676  23.289  1.00  0.00    -0.343 N 
HETATM   11  H   LIG     1      16.245  36.099  22.498  1.00  0.00     0.167 HD
ENDROOT
TORSDOF 0
ENDMDL
MODEL 2
REMARK VINA RESULT:      -6.5      1.502      1.861
REMARK  0 active torsions:
REMARK  status: ('A' for Active; 'I' for Inactive)
ROOT
HETATM    1  C   LIG     1      16.099  35.704  20.913  1.00  0.00     0.091 C 
HETATM    2  C   LIG     1      16.584  35.904  22.310  1.00  0.00     0.101 A 
HETATM    3  N   LIG     1      16.787  37.132  22.858  1.00  0.00    -0.234 NA
HETATM    4  C   LIG     1      17.214  36.835  24.099  1.00  0.00     0.085 A 
HETATM    5  C   LIG     1      17.574  37.720  25.112  1.00  0.00     0.034 A 
HETATM    6  C   LIG     1      17.994  37.173  26.339  1.00  0.00     0.002 A 
HETATM    7  C   LIG     1      18.041  35.771  26.520  1.00  0.00     0.002 A 
HETATM    8  C   LIG     1      17.670  34.905  25.474  1.00  0.00     0.032 A 
HETATM    9  C   LIG     1      17.260  35.484  24.274  1.00  0.00     0.062 A 
HETATM   10  N   LIG     1      16.864  34.877  23.150  1.00  0.00    -0.343 N 
HETATM   11  H   LIG     1      16.788  33.852  22.962  1.00  0.00     0.167 HD
ENDROOT
TORSDOF 0
ENDMDL
MODEL 3
REMARK VINA RESULT:      -6.3      3.879      5.022
REMARK  0 active torsions:
REMARK  status: ('A' for Active; 'I' for Inactive)
ROOT
HETATM    1  C   LIG     1      15.412  34.828  21.591  1.00  0.00     0.091 C 
HETATM    2  C   LIG     1      16.454  35.839  21.246  1.00  0.00     0.101 A 
HETATM    3  N   LIG     1      16.649  36.979  21.960  1.00  0.00    -0.234 NA
HETATM    4  C   LIG     1      17.663  37.570  21.302  1.00  0.00     0.085 A 
HETATM    5  C   LIG     1      18.281  38.783  21.599  1.00  0.00     0.034 A 
HETATM    6  C   LIG     1      19.331  39.203  20.761  1.00  0.00     0.002 A 
HETATM    7  C   LIG     1      19.731  38.410  19.661  1.00  0.00     0.002 A 
HETATM    8  C   LIG     1      19.084  37.190  19.389  1.00  0.00     0.032 A 
HETATM    9  C   LIG     1      18.050  36.807  20.241  1.00  0.00     0.062 A 
HETATM   10  N   LIG     1      17.294  35.704  20.190  1.00  0.00    -0.343 N 
HETATM   11  H   LIG     1      17.339  34.922  19.497  1.00  0.00     0.167 HD
ENDROOT
TORSDOF 0
ENDMDL
MODEL 4
REMARK VINA RESULT:      -6.0      2.929      5.112
REMARK  0 active torsions:
REMARK  status: ('A' for Active; 'I' for Inactive)
ROOT
HETATM    1  C   LIG     1      16.744  37.842  24.606  1.00  0.00     0.091 C 
HETATM    2  C   LIG     1      17.328  37.897  23.234  1.00  0.00     0.101 A 
HETATM    3  N   LIG     1      17.304  36.844  22.374  1.00  0.00    -0.234 NA
HETATM    4  C   LIG     1      17.928  37.336  21.288  1.00  0.00     0.085 A 
HETATM    5  C   LIG     1      18.189  36.684  20.085  1.00  0.00     0.034 A 
HETATM    6  C   LIG     1      18.862  37.407  19.082  1.00  0.00     0.002 A 
HETATM    7  C   LIG     1      19.252  38.749  19.305  1.00  0.00     0.002 A 
HETATM    8  C   LIG     1      18.972  39.377  20.533  1.00  0.00     0.032 A 
HETATM    9  C   LIG     1      18.304  38.629  21.501  1.00  0.00     0.062 A 
HETATM   10  N   LIG     1      17.932  39.002  22.731  1.00  0.00    -0.343 N 
HETATM   11  H   LIG     1      18.073  39.927  23.195  1.00  0.00     0.167 HD
ENDROOT
TORSDOF 0
ENDMDL
MODEL 5
REMARK VINA RESULT:      -6.0      2.987      4.833
REMARK  0 active torsions:
REMARK  status: ('A' for Active; 'I' for Inactive)
ROOT
HETATM    1  C   LIG     1      16.853  38.052  24.595  1.00  0.00     0.091 C 
HETATM    2  C   LIG     1      17.418  38.043  23.214  1.00  0.00     0.101 A 
HETATM    3  N   LIG     1      18.068  39.107  22.670  1.00  0.00    -0.234 NA
HETATM    4  C   LIG     1      18.392  38.658  21.443  1.00  0.00     0.085 A 
HETATM    5  C   LIG     1      19.078  39.340  20.440  1.00  0.00     0.034 A 
HETATM    6  C   LIG     1      19.303  38.662  19.227  1.00  0.00     0.002 A 
HETATM    7  C   LIG     1      18.843  37.336  19.050  1.00  0.00     0.002 A 
HETATM    8  C   LIG     1      18.152  36.678  20.085  1.00  0.00     0.032 A 
HETATM    9  C   LIG     1      17.948  37.381  21.271  1.00  0.00     0.062 A 
HETATM   10  N   LIG     1      17.328  36.974  22.384  1.00  0.00    -0.343 N 
HETATM   11  H   LIG     1      16.879  36.049  22.571  1.00  0.00     0.167 HD
ENDROOT
TORSDOF 0
ENDMDL
MODEL 6
REMARK VINA RESULT:      -6.0      3.478      4.887
REMARK  0 active torsions:
REMARK  status: ('A' for Active; 'I' for Inactive)
ROOT
HETATM    1  C   LIG     1      15.716  34.103  20.568  1.00  0.00     0.091 C 
HETATM    2  C   LIG     1      16.454  35.377  20.810  1.00  0.00     0.101 A 
HETATM    3  N   LIG     1      17.459  35.818  20.007  1.00  0.00    -0.234 NA
HETATM    4  C   LIG     1      17.819  36.974  20.594  1.00  0.00     0.085 A 
HETATM    5  C   LIG     1      18.816  37.860  20.191  1.00  0.00     0.034 A 
HETATM    6  C   LIG     1      19.015  39.016  20.969  1.00  0.00     0.002 A 
HETATM    7  C   LIG     1      18.223  39.254  22.116  1.00  0.00     0.002 A 
HETATM    8  C   LIG     1      17.225  38.336  22.495  1.00  0.00     0.032 A 
HETATM    9  C   LIG     1      17.057  37.204  21.700  1.00  0.00     0.062 A 
HETATM   10  N   LIG     1      16.185  36.201  21.853  1.00  0.00    -0.343 N 
HETATM   11  H   LIG     1      15.465  36.081  22.601  1.00  0.00     0.167 HD
ENDROOT
TORSDOF 0
ENDMDL
MODEL 7
REMARK VINA RESULT:      -6.0      9.200     10.375
REMARK  0 active torsions:
REMARK  status: ('A' for Active; 'I' for Inactive)
ROOT
HETATM    1  C   LIG     1      15.337  33.264  19.744  1.00  0.00     0.091 C 
HETATM    2  C   LIG     1      15.014  32.565  18.466  1.00  0.00     0.101 A 
HETATM    3  N   LIG     1      15.800  32.639  17.359  1.00  0.00    -0.234 NA
HETATM    4  C   LIG     1      15.136  31.874  16.473  1.00  0.00     0.085 A 
HETATM    5  C   LIG     1      15.490  31.592  15.156  1.00  0.00     0.034 A 
HETATM    6  C   LIG     1      14.632  30.758  14.414  1.00  0.00     0.002 A 
HETATM    7  C   LIG     1      13.456  30.235  15.000  1.00  0.00     0.002 A 
HETATM    8  C   LIG     1      13.129  30.542  16.335  1.00  0.00     0.032 A 
HETATM    9  C   LIG     1      14.003  31.369  17.038  1.00  0.00     0.062 A 
HETATM   10  N   LIG     1      13.909  31.797  18.302  1.00  0.00    -0.343 N 
HETATM   11  H   LIG     1      13.159  31.588  18.999  1.00  0.00     0.167 HD
ENDROOT
TORSDOF 0
ENDMDL
MODEL 8
REMARK VINA RESULT:      -5.9      3.464      4.721
REMARK  0 active torsions:
REMARK  status: ('A' for Active; 'I' for Inactive)
ROOT
HETATM    1  C   LIG     1      20.563  38.948  19.187  1.00  0.00     0.091 C 
HETATM    2  C   LIG     1      19.433  38.545  20.074  1.00  0.00     0.101 A 
HETATM    3  N   LIG     1      18.838  37.324  20.012  1.00  0.00    -0.234 NA
HETATM    4  C   LIG     1      17.897  37.405  20.970  1.00  0.00     0.085 A 
HETATM    5  C   LIG     1      16.980  36.428  21.349  1.00  0.00     0.034 A 
HETATM    6  C   LIG     1      16.082  36.742  22.388  1.00  0.00     0.002 A 
HETATM    7  C   LIG     1      16.125  38.010  23.013  1.00  0.00     0.002 A 
HETATM    8  C   LIG     1      17.065  38.974  22.603  1.00  0.00     0.032 A 
HETATM    9  C   LIG     1      17.937  38.627  21.573  1.00  0.00     0.062 A 
HETATM   10  N   LIG     1      18.905  39.363  21.018  1.00  0.00    -0.343 N 
HETATM   11  H   LIG     1      19.189  40.341  21.255  1.00  0.00     0.167 HD
ENDROOT
TORSDOF 0
ENDMDL
MODEL 9
REMARK VINA RESULT:      -5.8      3.430      4.508
REMARK  0 active torsions:
REMARK  status: ('A' for Active; 'I' for Inactive)
ROOT
HETATM    1  C   LIG     1      15.779  33.716  20.415  1.00  0.00     0.091 C 
HETATM    2  C   LIG     1      16.232  35.054  20.895  1.00  0.00     0.101 A 
HETATM    3  N   LIG     1      15.593  35.748  21.875  1.00  0.00    -0.234 NA
HETATM    4  C   LIG     1      16.333  36.867  21.974  1.00  0.00     0.085 A 
HETATM    5  C   LIG     1      16.135  37.947  22.832  1.00  0.00     0.034 A 
HETATM    6  C   LIG     1      17.046  39.017  22.756  1.00  0.00     0.002 A 
HETATM    7  C   LIG     1      18.120  38.981  21.835  1.00  0.00     0.002 A 
HETATM    8  C   LIG     1      18.289  37.873  20.983  1.00  0.00     0.032 A 
HETATM    9  C   LIG     1      17.367  36.834  21.087  1.00  0.00     0.062 A 
HETATM   10  N   LIG     1      17.319  35.691  20.394  1.00  0.00    -0.343 N 
HETATM   11  H   LIG     1      17.968  35.364  19.642  1.00  0.00     0.167 HD
ENDROOT
TORSDOF 0
ENDMDL
MODEL 10
REMARK VINA RESULT:      -5.7      1.526      4.171
REMARK  0 active torsions:
REMARK  status: ('A' for Active; 'I' for Inactive)
ROOT
HETATM    1  C   LIG     1      17.239  34.635  26.521  1.00  0.00     0.091 C 
HETATM    2  C   LIG     1      17.243  35.501  25.306  1.00  0.00     0.101 A 
HETATM    3  N   LIG     1      17.194  35.006  24.040  1.00  0.00    -0.234 NA
HETATM    4  C   LIG     1      17.218  36.120  23.287  1.00  0.00     0.085 A 
HETATM    5  C   LIG     1      17.188  36.211  21.897  1.00  0.00     0.034 A 
HETATM    6  C   LIG     1      17.224  37.497  21.325  1.00  0.00     0.002 A 
HETATM    7  C   LIG     1      17.287  38.646  22.147  1.00  0.00     0.002 A 
HETATM    8  C   LIG     1      17.316  38.517  23.549  1.00  0.00     0.032 A 
HETATM    9  C   LIG     1      17.280  37.228  24.078  1.00  0.00     0.062 A 
HETATM   10  N   LIG     1      17.296  36.855  25.362  1.00  0.00    -0.343 N 
HETATM   11  H   LIG     1      17.340  37.463  26.211  1.00  0.00     0.167 HD
ENDROOT
TORSDOF 0
ENDMDL
MODEL 11
REMARK VINA RESULT:      -5.6      1.579      3.772
REMARK  0 active torsions:
REMARK  status: ('A' for Active; 'I' for Inactive)
ROOT
HETATM    1  C   LIG     1      17.335  34.691  26.494  1.00  0.00     0.091 C 
HETATM    2  C   LIG     1      17.329  35.524  25.257  1.00  0.00     0.101 A 
HETATM    3  N   LIG     1      17.466  36.877  25.270  1.00  0.00    -0.234 NA
HETATM    4  C   LIG     1      17.403  37.193  23.964  1.00  0.00     0.085 A 
HETATM    5  C   LIG     1      17.488  38.459  23.388  1.00  0.00     0.034 A 
HETATM    6  C   LIG     1      17.395  38.545  21.985  1.00  0.00     0.002 A 
HETATM    7  C   LIG     1      17.222  37.379  21.205  1.00  0.00     0.002 A 
HETATM    8  C   LIG     1      17.139  36.116  21.821  1.00  0.00     0.032 A 
HETATM    9  C   LIG     1      17.235  36.070  23.211  1.00  0.00     0.062 A 
HETATM   10  N   LIG     1      17.186  35.001  24.013  1.00  0.00    -0.343 N 
HETATM   11  H   LIG     1      17.066  33.998  23.746  1.00  0.00     0.167 HD
ENDROOT
TORSDOF 0
ENDMDL
MODEL 12
REMARK VINA RESULT:      -5.4      2.084      3.812
REMARK  0 active torsions:
REMARK  status: ('A' for Active; 'I' for Inactive)
ROOT
HETATM    1  C   LIG     1      17.353  38.469  26.017  1.00  0.00     0.091 C 
HETATM    2  C   LIG     1      17.301  37.758  24.707  1.00  0.00     0.101 A 
HETATM    3  N   LIG     1      16.956  36.448  24.585  1.00  0.00    -0.234 NA
HETATM    4  C   LIG     1      17.044  36.242  23.259  1.00  0.00     0.085 A 
HETATM    5  C   LIG     1      16.797  35.061  22.561  1.00  0.00     0.034 A 
HETATM    6  C   LIG     1      16.957  35.084  21.162  1.00  0.00     0.002 A 
HETATM    7  C   LIG     1      17.354  36.272  20.505  1.00  0.00     0.002 A 
HETATM    8  C   LIG     1      17.596  37.446  21.242  1.00  0.00     0.032 A 
HETATM    9  C   LIG     1      17.428  37.385  22.624  1.00  0.00     0.062 A 
HETATM   10  N   LIG     1      17.595  38.358  23.527  1.00  0.00    -0.343 N 
HETATM   11  H   LIG     1      17.886  39.348  23.362  1.00  0.00     0.167 HD
ENDROOT
TORSDOF 0
ENDMDL
MODEL 13
REMARK VINA RESULT:      -5.3      9.909     11.050
REMARK  0 active torsions:
REMARK  status: ('A' for Active; 'I' for Inactive)
ROOT
HETATM    1  C   LIG     1      15.254  34.375  17.858  1.00  0.00     0.091 C 
HETATM    2  C   LIG     1      15.007  33.215  16.952  1.00  0.00     0.101 A 
HETATM    3  N   LIG     1      13.889  32.444  17.020  1.00  0.00    -0.234 NA
HETATM    4  C   LIG     1      14.091  31.545  16.040  1.00  0.00     0.085 A 
HETATM    5  C   LIG     1      13.255  30.499  15.655  1.00  0.00     0.034 A 
HETATM    6  C   LIG     1      13.680  29.679  14.593  1.00  0.00     0.002 A 
HETATM    7  C   LIG     1      14.916  29.922  13.950  1.00  0.00     0.002 A 
HETATM    8  C   LIG     1      15.738  30.987  14.366  1.00  0.00     0.032 A 
HETATM    9  C   LIG     1      15.283  31.777  15.420  1.00  0.00     0.062 A 
HETATM   10  N   LIG     1      15.878  32.833  15.985  1.00  0.00    -0.343 N 
HETATM   11  H   LIG     1      16.798  33.263  15.740  1.00  0.00     0.167 HD
ENDROOT
TORSDOF 0
ENDMDL
MODEL 14
REMARK VINA RESULT:      -5.2     10.882     12.024
REMARK  0 active torsions:
REMARK  status: ('A' for Active; 'I' for Inactive)
ROOT
HETATM    1  C   LIG     1      12.703  28.091  13.753  1.00  0.00     0.091 C 
HETATM    2  C   LIG     1      13.301  29.267  14.449  1.00  0.00     0.101 A 
HETATM    3  N   LIG     1      14.495  29.813  14.094  1.00  0.00    -0.234 NA
HETATM    4  C   LIG     1      14.631  30.822  14.973  1.00  0.00     0.085 A 
HETATM    5  C   LIG     1      15.683  31.730  15.074  1.00  0.00     0.034 A 
HETATM    6  C   LIG     1      15.607  32.710  16.082  1.00  0.00     0.002 A 
HETATM    7  C   LIG     1      14.493  32.757  16.953  1.00  0.00     0.002 A 
HETATM    8  C   LIG     1      13.448  31.823  16.822  1.00  0.00     0.032 A 
HETATM    9  C   LIG     1      13.559  30.869  15.813  1.00  0.00     0.062 A 
HETATM   10  N   LIG     1      12.705  29.890  15.496  1.00  0.00    -0.343 N 
HETATM   11  H   LIG     1      11.792  29.658  15.949  1.00  0.00     0.167 HD
ENDROOT
TORSDOF 0
ENDMDL
MODEL 15
REMARK VINA RESULT:      -4.9      6.551      7.915
REMARK  0 active torsions:
REMARK  status: ('A' for Active; 'I' for Inactive)
ROOT
HETATM    1  C   LIG     1      16.250  35.261  21.484  1.00  0.00     0.091 C 
HETATM    2  C   LIG     1      15.780  34.454  20.321  1.00  0.00     0.101 A 
HETATM    3  N   LIG     1      15.348  33.169  20.433  1.00  0.00    -0.234 NA
HETATM    4  C   LIG     1      15.033  32.852  19.164  1.00  0.00     0.085 A 
HETATM    5  C   LIG     1      14.533  31.643  18.686  1.00  0.00     0.034 A 
HETATM    6  C   LIG     1      14.277  31.541  17.305  1.00  0.00     0.002 A 
HETATM    7  C   LIG     1      14.526  32.638  16.448  1.00  0.00     0.002 A 
HETATM    8  C   LIG     1      15.032  33.846  16.965  1.00  0.00     0.032 A 
HETATM    9  C   LIG     1      15.273  33.908  18.336  1.00  0.00     0.062 A 
HETATM   10  N   LIG     1      15.747  34.933  19.052  1.00  0.00    -0.343 N 
HETATM   11  H   LIG     1      16.027  35.882  18.714  1.00  0.00     0.167 HD
ENDROOT
TORSDOF 0
ENDMDL
MODEL 16
REMARK VINA RESULT:      -4.5     13.150     14.299
REMARK  0 active torsions:
REMARK  status: ('A' for Active; 'I' for Inactive)
ROOT
HETATM    1  C   LIG     1      11.901  26.146  12.595  1.00  0.00     0.091 C 
HETATM    2  C   LIG     1      12.698  27.253  13.201  1.00  0.00     0.101 A 
HETATM    3  N   LIG     1      14.057  27.295  13.166  1.00  0.00    -0.234 NA
HETATM    4  C   LIG     1      14.332  28.440  13.817  1.00  0.00     0.085 A 
HETATM    5  C   LIG     1      15.585  28.991  14.082  1.00  0.00     0.034 A 
HETATM    6  C   LIG     1      15.627  30.209  14.786  1.00  0.00     0.002 A 
HETATM    7  C   LIG     1      14.431  30.838  15.203  1.00  0.00     0.002 A 
HETATM    8  C   LIG     1      13.182  30.253  14.919  1.00  0.00     0.032 A 
HETATM    9  C   LIG     1      13.180  29.047  14.220  1.00  0.00     0.062 A 
HETATM   10  N   LIG     1      12.133  28.309  13.837  1.00  0.00    -0.343 N 
HETATM   11  H   LIG     1      11.117  28.499  13.993  1.00  0.00     0.167 HD
ENDROOT
TORSDOF 0
ENDMDL
MODEL 17
REMARK VINA RESULT:      -4.5     12.495     13.601
REMARK  0 active torsions:
REMARK  status: ('A' for Active; 'I' for Inactive)
ROOT
HETATM    1  C   LIG     1      15.859  26.942  12.038  1.00  0.00     0.091 C 
HETATM    2  C   LIG     1      15.312  27.983  12.957  1.00  0.00     0.101 A 
HETATM    3  N   LIG     1      16.043  29.039  13.402  1.00  0.00    -0.234 NA
HETATM    4  C   LIG     1      15.167  29.695  14.185  1.00  0.00     0.085 A 
HETATM    5  C   LIG     1      15.380  30.868  14.906  1.00  0.00     0.034 A 
HETATM    6  C   LIG     1      14.305  31.374  15.662  1.00  0.00     0.002 A 
HETATM    7  C   LIG     1      13.060  30.703  15.677  1.00  0.00     0.002 A 
HETATM    8  C   LIG     1      12.881  29.519  14.936  1.00  0.00     0.032 A 
HETATM    9  C   LIG     1      13.967  29.049  14.200  1.00  0.00     0.062 A 
HETATM   10  N   LIG     1      14.040  27.960  13.427  1.00  0.00    -0.343 N 
HETATM   11  H   LIG     1      13.293  27.257  13.231  1.00  0.00     0.167 HD
ENDROOT
TORSDOF 0
ENDMDL
MODEL 18
REMARK VINA RESULT:      -4.5     10.493     11.897
REMARK  0 active torsions:
REMARK  status: ('A' for Active; 'I' for Inactive)
ROOT
HETATM    1  C   LIG     1      14.026  29.381  14.170  1.00  0.00     0.091 C 
HETATM    2  C   LIG     1      14.898  30.587  14.275  1.00  0.00     0.101 A 
HETATM    3  N   LIG     1      15.726  30.995  13.277  1.00  0.00    -0.234 NA
HETATM    4  C   LIG     1      16.300  32.094  13.800  1.00  0.00     0.085 A 
HETATM    5  C   LIG     1      17.246  32.927  13.206  1.00  0.00     0.034 A 
HETATM    6  C   LIG     1      17.706  34.028  13.953  1.00  0.00     0.002 A 
HETATM    7  C   LIG     1      17.216  34.265  15.258  1.00  0.00     0.002 A 
HETATM    8  C   LIG     1      16.260  33.402  15.827  1.00  0.00     0.032 A 
HETATM    9  C   LIG     1      15.828  32.324  15.058  1.00  0.00     0.062 A 
HETATM   10  N   LIG     1      14.938  31.378  15.376  1.00  0.00    -0.343 N 
HETATM   11  H   LIG     1      14.399  31.272  16.266  1.00  0.00     0.167 HD
ENDROOT
TORSDOF 0
ENDMDL
MODEL 19
REMARK VINA RESULT:      -4.4      9.942     11.136
REMARK  0 active torsions:
REMARK  status: ('A' for Active; 'I' for Inactive)
ROOT
HETATM    1  C   LIG     1      13.748  31.137  17.107  1.00  0.00     0.091 C 
HETATM    2  C   LIG     1      14.751  31.773  16.203  1.00  0.00     0.101 A 
HETATM    3  N   LIG     1      15.554  32.800  16.589  1.00  0.00    -0.234 NA
HETATM    4  C   LIG     1      16.276  33.043  15.480  1.00  0.00     0.085 A 
HETATM    5  C   LIG     1      17.267  34.005  15.301  1.00  0.00     0.034 A 
HETATM    6  C   LIG     1      17.890  34.074  14.040  1.00  0.00     0.002 A 
HETATM    7  C   LIG     1      17.511  33.191  13.003  1.00  0.00     0.002 A 
HETATM    8  C   LIG     1      16.504  32.231  13.219  1.00  0.00     0.032 A 
HETATM    9  C   LIG     1      15.911  32.192  14.479  1.00  0.00     0.062 A 
HETATM   10  N   LIG     1      14.945  31.379  14.920  1.00  0.00    -0.343 N 
HETATM   11  H   LIG     1      14.453  30.618  14.398  1.00  0.00     0.167 HD
ENDROOT
TORSDOF 0
ENDMDL
MODEL 20
REMARK VINA RESULT:      -4.3      3.631      4.269
REMARK  0 active torsions:
REMARK  status: ('A' for Active; 'I' for Inactive)
ROOT
HETATM    1  C   LIG     1      18.974  39.463  21.951  1.00  0.00     0.091 C 
HETATM    2  C   LIG     1      18.016  38.345  21.712  1.00  0.00     0.101 A 
HETATM    3  N   LIG     1      16.838  38.220  22.379  1.00  0.00    -0.234 NA
HETATM    4  C   LIG     1      16.318  37.096  21.852  1.00  0.00     0.085 A 
HETATM    5  C   LIG     1      15.106  36.486  22.169  1.00  0.00     0.034 A 
HETATM    6  C   LIG     1      14.770  35.305  21.480  1.00  0.00     0.002 A 
HETATM    7  C   LIG     1      15.643  34.770  20.505  1.00  0.00     0.002 A 
HETATM    8  C   LIG     1      16.861  35.412  20.210  1.00  0.00     0.032 A 
HETATM    9  C   LIG     1      17.159  36.579  20.912  1.00  0.00     0.062 A 
HETATM   10  N   LIG     1      18.242  37.358  20.809  1.00  0.00    -0.343 N 
HETATM   11  H   LIG     1      19.068  37.235  20.181  1.00  0.00     0.167 HD
ENDROOT
TORSDOF 0
ENDMDL
