MODEL 1
REMARK VINA RESULT:      -4.4      0.000      0.000
REMARK  2 active torsions:
REMARK  status: ('A' for Active; 'I' for Inactive)
REMARK    1  A    between atoms: C_2  and  C_5 
REMARK    2  A    between atoms: C_2  and  C_3 
ROOT
HETATM    1 CL   LIG     1      17.145  35.529  23.825  1.00  0.00    -0.125 Cl
HETATM    2  C   LIG     1      17.296  36.829  25.050  1.00  0.00     0.081 C 
ENDROOT
BRANCH   2   3
HETATM    3  C   LIG     1      18.251  36.386  26.175  1.00  0.00     0.016 C 
HETATM    4  C   LIG     1      18.297  34.866  26.331  1.00  0.00     0.006 C 
ENDBRANCH   2   3
BRANCH   2   5
HETATM    5  C   LIG     1      17.808  38.121  24.388  1.00  0.00     0.016 C 
HETATM    6  C   LIG     1      17.379  38.231  22.925  1.00  0.00     0.006 C 
ENDBRANCH   2   5
TORSDOF 2
ENDMDL
MODEL 2
REMARK VINA RESULT:      -4.3      1.651      3.203
REMARK  2 active torsions:
REMARK  status: ('A' for Active; 'I' for Inactive)
REMARK    1  A    between atoms: C_2  and  C_5 
REMARK    2  A    between atoms: C_2  and  C_3 
ROOT
HETATM    1 CL   LIG     1      17.897  38.079  24.029  1.00  0.00    -0.125 Cl
HETATM    2  C   LIG     1      17.271  36.668  24.942  1.00  0.00     0.081 C 
ENDROOT
BRANCH   2   3
HETATM    3  C   LIG     1      17.170  35.443  24.014  1.00  0.00     0.016 C 
HETATM    4  C   LIG     1      16.826  35.831  22.576  1.00  0.00     0.006 C 
ENDBRANCH   2   3
BRANCH   2   5
HETATM    5  C   LIG     1      18.191  36.362  26.137  1.00  0.00     0.016 C 
HETATM    6  C   LIG     1      18.350  34.861  26.376  1.00  0.00     0.006 C 
ENDBRANCH   2   5
TORSDOF 2
ENDMDL
MODEL 3
REMARK VINA RESULT:      -4.2      1.965      2.071
REMARK  2 active torsions:
REMARK  status: ('A' for Active; 'I' for Inactive)
REMARK    1  A    between atoms: C_2  and  C_5 
REMARK    2  A    between atoms: C_2  and  C_3 
ROOT
HETATM    1 CL   LIG     1      17.334  37.830  25.668  1.00  0.00    -0.125 Cl
HETATM    2  C   LIG     1      17.670  36.466  24.554  1.00  0.00     0.081 C 
ENDROOT
BRANCH   2   3
HETATM    3  C   LIG     1      17.369  35.127  25.254  1.00  0.00     0.016 C 
HETATM    4  C   LIG     1      18.334  34.846  26.406  1.00  0.00     0.006 C 
ENDBRANCH   2   3
BRANCH   2   5
HETATM    5  C   LIG     1      16.824  36.606  23.276  1.00  0.00     0.016 C 
HETATM    6  C   LIG     1      16.896  35.360  22.395  1.00  0.00     0.006 C 
ENDBRANCH   2   5
TORSDOF 2
ENDMDL
MODEL 4
REMARK VINA RESULT:      -3.9      2.894      3.465
REMARK  2 active torsions:
REMARK  status: ('A' for Active; 'I' for Inactive)
REMARK    1  A    between atoms: C_2  and  C_5 
REMARK    2  A    between atoms: C_2  and  C_3 
ROOT
HETATM    1 CL   LIG     1      18.527  36.661  20.064  1.00  0.00    -0.125 Cl
HETATM    2  C   LIG     1      17.129  36.551  21.180  1.00  0.00     0.081 C 
ENDROOT
BRANCH   2   3
HETATM    3  C   LIG     1      17.076  35.152  21.822  1.00  0.00     0.016 C 
HETATM    4  C   LIG     1      17.030  35.216  23.349  1.00  0.00     0.006 C 
ENDBRANCH   2   3
BRANCH   2   5
HETATM    5  C   LIG     1      17.234  37.636  22.267  1.00  0.00     0.016 C 
HETATM    6  C   LIG     1      18.113  38.809  21.831  1.00  0.00     0.006 C 
ENDBRANCH   2   5
TORSDOF 2
ENDMDL
MODEL 5
REMARK VINA RESULT:      -3.9      3.624      4.769
REMARK  2 active torsions:
REMARK  status: ('A' for Active; 'I' for Inactive)
REMARK    1  A    between atoms: C_2  and  C_5 
REMARK    2  A    between atoms: C_2  and  C_3 
ROOT
HETATM    1 CL   LIG     1      17.560  36.076  21.165  1.00  0.00    -0.125 Cl
HETATM    2  C   LIG     1      18.115  37.602  20.406  1.00  0.00     0.081 C 
ENDROOT
BRANCH   2   3
HETATM    3  C   LIG     1      18.353  38.673  21.488  1.00  0.00     0.016 C 
HETATM    4  C   LIG     1      17.138  38.858  22.397  1.00  0.00     0.006 C 
ENDBRANCH   2   3
BRANCH   2   5
HETATM    5  C   LIG     1      19.404  37.354  19.603  1.00  0.00     0.016 C 
HETATM    6  C   LIG     1      20.300  38.591  19.550  1.00  0.00     0.006 C 
ENDBRANCH   2   5
TORSDOF 2
ENDMDL
MODEL 6
REMARK VINA RESULT:      -3.9      1.991      2.518
REMARK  2 active torsions:
REMARK  status: ('A' for Active; 'I' for Inactive)
REMARK    1  A    between atoms: C_2  and  C_5 
REMARK    2  A    between atoms: C_2  and  C_3 
ROOT
HETATM    1 CL   LIG     1      17.259  36.457  21.497  1.00  0.00    -0.125 Cl
HETATM    2  C   LIG     1      16.665  37.525  22.808  1.00  0.00     0.081 C 
ENDROOT
BRANCH   2   3
HETATM    3  C   LIG     1      17.090  36.964  24.178  1.00  0.00     0.016 C 
HETATM    4  C   LIG     1      17.324  38.069  25.209  1.00  0.00     0.006 C 
ENDBRANCH   2   3
BRANCH   2   5
HETATM    5  C   LIG     1      17.213  38.950  22.618  1.00  0.00     0.016 C 
HETATM    6  C   LIG     1      18.165  39.050  21.427  1.00  0.00     0.006 C 
ENDBRANCH   2   5
TORSDOF 2
ENDMDL
MODEL 7
REMARK VINA RESULT:      -3.9      3.362      4.106
REMARK  2 active torsions:
REMARK  status: ('A' for Active; 'I' for Inactive)
REMARK    1  A    between atoms: C_2  and  C_5 
REMARK    2  A    between atoms: C_2  and  C_3 
ROOT
HETATM    1 CL   LIG     1      16.725  38.843  22.302  1.00  0.00    -0.125 Cl
HETATM    2  C   LIG     1      17.813  37.571  21.661  1.00  0.00     0.081 C 
ENDROOT
BRANCH   2   3
HETATM    3  C   LIG     1      16.994  36.327  21.265  1.00  0.00     0.016 C 
HETATM    4  C   LIG     1      16.916  35.301  22.395  1.00  0.00     0.006 C 
ENDBRANCH   2   3
BRANCH   2   5
HETATM    5  C   LIG     1      18.596  38.106  20.449  1.00  0.00     0.016 C 
HETATM    6  C   LIG     1      19.095  36.984  19.540  1.00  0.00     0.006 C 
ENDBRANCH   2   5
TORSDOF 2
ENDMDL
MODEL 8
REMARK VINA RESULT:      -3.9      1.965      2.266
REMARK  2 active torsions:
REMARK  status: ('A' for Active; 'I' for Inactive)
REMARK    1  A    between atoms: C_2  and  C_5 
REMARK    2  A    between atoms: C_2  and  C_3 
ROOT
HETATM    1 CL   LIG     1      18.238  36.280  26.935  1.00  0.00    -0.125 Cl
HETATM    2  C   LIG     1      17.896  36.373  25.178  1.00  0.00     0.081 C 
ENDROOT
BRANCH   2   3
HETATM    3  C   LIG     1      17.260  35.057  24.694  1.00  0.00     0.016 C 
HETATM    4  C   LIG     1      17.009  35.055  23.185  1.00  0.00     0.006 C 
ENDBRANCH   2   3
BRANCH   2   5
HETATM    5  C   LIG     1      16.961  37.561  24.884  1.00  0.00     0.016 C 
HETATM    6  C   LIG     1      17.554  38.522  23.854  1.00  0.00     0.006 C 
ENDBRANCH   2   5
TORSDOF 2
ENDMDL
MODEL 9
REMARK VINA RESULT:      -3.8      3.066      5.021
REMARK  2 active torsions:
REMARK  status: ('A' for Active; 'I' for Inactive)
REMARK    1  A    between atoms: C_2  and  C_5 
REMARK    2  A    between atoms: C_2  and  C_3 
ROOT
HETATM    1 CL   LIG     1      18.070  36.861  20.330  1.00  0.00    -0.125 Cl
HETATM    2  C   LIG     1      18.488  38.339  21.255  1.00  0.00     0.081 C 
ENDROOT
BRANCH   2   3
HETATM    3  C   LIG     1      19.048  39.415  20.305  1.00  0.00     0.016 C 
HETATM    4  C   LIG     1      20.207  38.892  19.456  1.00  0.00     0.006 C 
ENDBRANCH   2   3
BRANCH   2   5
HETATM    5  C   LIG     1      17.247  38.869  21.995  1.00  0.00     0.016 C 
HETATM    6  C   LIG     1      17.218  38.436  23.460  1.00  0.00     0.006 C 
ENDBRANCH   2   5
TORSDOF 2
ENDMDL
MODEL 10
REMARK VINA RESULT:      -3.8      2.306      2.894
REMARK  2 active torsions:
REMARK  status: ('A' for Active; 'I' for Inactive)
REMARK    1  A    between atoms: C_2  and  C_5 
REMARK    2  A    between atoms: C_2  and  C_3 
ROOT
HETATM    1 CL   LIG     1      16.885  39.222  22.480  1.00  0.00    -0.125 Cl
HETATM    2  C   LIG     1      17.188  37.582  23.139  1.00  0.00     0.081 C 
ENDROOT
BRANCH   2   3
HETATM    3  C   LIG     1      16.842  37.545  24.640  1.00  0.00     0.016 C 
HETATM    4  C   LIG     1      18.061  37.230  25.507  1.00  0.00     0.006 C 
ENDBRANCH   2   3
BRANCH   2   5
HETATM    5  C   LIG     1      16.354  36.542  22.370  1.00  0.00     0.016 C 
HETATM    6  C   LIG     1      17.037  35.176  22.320  1.00  0.00     0.006 C 
ENDBRANCH   2   5
TORSDOF 2
ENDMDL
MODEL 11
REMARK VINA RESULT:      -3.8      3.806      4.684
REMARK  2 active torsions:
REMARK  status: ('A' for Active; 'I' for Inactive)
REMARK    1  A    between atoms: C_2  and  C_5 
REMARK    2  A    between atoms: C_2  and  C_3 
ROOT
HETATM    1 CL   LIG     1      18.537  36.845  19.744  1.00  0.00    -0.125 Cl
HETATM    2  C   LIG     1      17.524  36.234  21.091  1.00  0.00     0.081 C 
ENDROOT
BRANCH   2   3
HETATM    3  C   LIG     1      17.021  37.411  21.948  1.00  0.00     0.016 C 
HETATM    4  C   LIG     1      17.837  38.684  21.721  1.00  0.00     0.006 C 
ENDBRANCH   2   3
BRANCH   2   5
HETATM    5  C   LIG     1      16.336  35.429  20.535  1.00  0.00     0.016 C 
HETATM    6  C   LIG     1      15.043  35.697  21.305  1.00  0.00     0.006 C 
ENDBRANCH   2   5
TORSDOF 2
ENDMDL
MODEL 12
REMARK VINA RESULT:      -3.8      3.042      3.918
REMARK  2 active torsions:
REMARK  status: ('A' for Active; 'I' for Inactive)
REMARK    1  A    between atoms: C_2  and  C_5 
REMARK    2  A    between atoms: C_2  and  C_3 
ROOT
HETATM    1 CL   LIG     1      17.100  35.376  23.281  1.00  0.00    -0.125 Cl
HETATM    2  C   LIG     1      16.864  36.583  21.977  1.00  0.00     0.081 C 
ENDROOT
BRANCH   2   3
HETATM    3  C   LIG     1      17.631  37.876  22.310  1.00  0.00     0.016 C 
HETATM    4  C   LIG     1      16.693  39.052  22.584  1.00  0.00     0.006 C 
ENDBRANCH   2   3
BRANCH   2   5
HETATM    5  C   LIG     1      17.341  36.007  20.631  1.00  0.00     0.016 C 
HETATM    6  C   LIG     1      18.475  36.829  20.020  1.00  0.00     0.006 C 
ENDBRANCH   2   5
TORSDOF 2
ENDMDL
MODEL 13
REMARK VINA RESULT:      -3.7      8.481      9.022
REMARK  2 active torsions:
REMARK  status: ('A' for Active; 'I' for Inactive)
REMARK    1  A    between atoms: C_2  and  C_5 
REMARK    2  A    between atoms: C_2  and  C_3 
ROOT
HETATM    1 CL   LIG     1      14.916  34.086  16.951  1.00  0.00    -0.125 Cl
HETATM    2  C   LIG     1      15.076  32.462  17.692  1.00  0.00     0.081 C 
ENDROOT
BRANCH   2   3
HETATM    3  C   LIG     1      15.303  32.595  19.210  1.00  0.00     0.016 C 
HETATM    4  C   LIG     1      14.848  31.352  19.975  1.00  0.00     0.006 C 
ENDBRANCH   2   3
BRANCH   2   5
HETATM    5  C   LIG     1      13.816  31.625  17.409  1.00  0.00     0.016 C 
HETATM    6  C   LIG     1      13.871  30.937  16.045  1.00  0.00     0.006 C 
ENDBRANCH   2   5
TORSDOF 2
ENDMDL
MODEL 14
REMARK VINA RESULT:      -3.7      3.136      4.290
REMARK  2 active torsions:
REMARK  status: ('A' for Active; 'I' for Inactive)
REMARK    1  A    between atoms: C_2  and  C_5 
REMARK    2  A    between atoms: C_2  and  C_3 
ROOT
HETATM    1 CL   LIG     1      18.720  39.510  20.867  1.00  0.00    -0.125 Cl
HETATM    2  C   LIG     1      18.143  38.003  21.649  1.00  0.00     0.081 C 
ENDROOT
BRANCH   2   3
HETATM    3  C   LIG     1      16.801  38.258  22.360  1.00  0.00     0.016 C 
HETATM    4  C   LIG     1      16.861  37.920  23.850  1.00  0.00     0.006 C 
ENDBRANCH   2   3
BRANCH   2   5
HETATM    5  C   LIG     1      17.992  36.888  20.599  1.00  0.00     0.016 C 
HETATM    6  C   LIG     1      19.052  36.978  19.502  1.00  0.00     0.006 C 
ENDBRANCH   2   5
TORSDOF 2
ENDMDL
MODEL 15
REMARK VINA RESULT:      -3.7      4.571      6.776
REMARK  2 active torsions:
REMARK  status: ('A' for Active; 'I' for Inactive)
REMARK    1  A    between atoms: C_2  and  C_5 
REMARK    2  A    between atoms: C_2  and  C_3 
ROOT
HETATM    1 CL   LIG     1      19.261  36.888  19.381  1.00  0.00    -0.125 Cl
HETATM    2  C   LIG     1      19.495  38.656  19.203  1.00  0.00     0.081 C 
ENDROOT
BRANCH   2   3
HETATM    3  C   LIG     1      18.508  39.217  18.162  1.00  0.00     0.016 C 
HETATM    4  C   LIG     1      19.206  39.627  16.865  1.00  0.00     0.006 C 
ENDBRANCH   2   3
BRANCH   2   5
HETATM    5  C   LIG     1      19.296  39.354  20.561  1.00  0.00     0.016 C 
HETATM    6  C   LIG     1      18.160  38.731  21.371  1.00  0.00     0.006 C 
ENDBRANCH   2   5
TORSDOF 2
ENDMDL
MODEL 16
REMARK VINA RESULT:      -3.7      2.105      2.409
REMARK  2 active torsions:
REMARK  status: ('A' for Active; 'I' for Inactive)
REMARK    1  A    between atoms: C_2  and  C_5 
REMARK    2  A    between atoms: C_2  and  C_3 
ROOT
HETATM    1 CL   LIG     1      15.413  37.681  22.755  1.00  0.00    -0.125 Cl
HETATM    2  C   LIG     1      16.698  37.406  23.975  1.00  0.00     0.081 C 
ENDROOT
BRANCH   2   3
HETATM    3  C   LIG     1      17.150  35.934  23.942  1.00  0.00     0.016 C 
HETATM    4  C   LIG     1      16.889  35.278  22.586  1.00  0.00     0.006 C 
ENDBRANCH   2   3
BRANCH   2   5
HETATM    5  C   LIG     1      17.891  38.340  23.705  1.00  0.00     0.016 C 
HETATM    6  C   LIG     1      17.890  38.881  22.275  1.00  0.00     0.006 C 
ENDBRANCH   2   5
TORSDOF 2
ENDMDL
MODEL 17
REMARK VINA RESULT:      -3.6     11.709     12.484
REMARK  2 active torsions:
REMARK  status: ('A' for Active; 'I' for Inactive)
REMARK    1  A    between atoms: C_2  and  C_5 
REMARK    2  A    between atoms: C_2  and  C_3 
ROOT
HETATM    1 CL   LIG     1      15.307  28.440  13.879  1.00  0.00    -0.125 Cl
HETATM    2  C   LIG     1      14.585  30.072  14.051  1.00  0.00     0.081 C 
ENDROOT
BRANCH   2   3
HETATM    3  C   LIG     1      13.365  30.012  14.990  1.00  0.00     0.016 C 
HETATM    4  C   LIG     1      13.526  30.922  16.208  1.00  0.00     0.006 C 
ENDBRANCH   2   3
BRANCH   2   5
HETATM    5  C   LIG     1      15.633  31.058  14.596  1.00  0.00     0.016 C 
HETATM    6  C   LIG     1      16.073  32.075  13.543  1.00  0.00     0.006 C 
ENDBRANCH   2   5
TORSDOF 2
ENDMDL
MODEL 18
REMARK VINA RESULT:      -3.5      3.209      3.805
REMARK  2 active torsions:
REMARK  status: ('A' for Active; 'I' for Inactive)
REMARK    1  A    between atoms: C_2  and  C_5 
REMARK    2  A    between atoms: C_2  and  C_3 
ROOT
HETATM    1 CL   LIG     1      15.712  37.673  22.823  1.00  0.00    -0.125 Cl
HETATM    2  C   LIG     1      16.358  36.264  21.924  1.00  0.00     0.081 C 
ENDROOT
BRANCH   2   3
HETATM    3  C   LIG     1      17.011  35.269  22.902  1.00  0.00     0.016 C 
HETATM    4  C   LIG     1      17.184  35.860  24.301  1.00  0.00     0.006 C 
ENDBRANCH   2   3
BRANCH   2   5
HETATM    5  C   LIG     1      15.229  35.578  21.134  1.00  0.00     0.016 C 
HETATM    6  C   LIG     1      15.586  34.146  20.739  1.00  0.00     0.006 C 
ENDBRANCH   2   5
TORSDOF 2
ENDMDL
MODEL 19
REMARK VINA RESULT:      -3.4      8.537      9.184
REMARK  2 active torsions:
REMARK  status: ('A' for Active; 'I' for Inactive)
REMARK    1  A    between atoms: C_2  and  C_5 
REMARK    2  A    between atoms: C_2  and  C_3 
ROOT
HETATM    1 CL   LIG     1      13.757  30.839  16.300  1.00  0.00    -0.125 Cl
HETATM    2  C   LIG     1      14.058  32.193  17.435  1.00  0.00     0.081 C 
ENDROOT
BRANCH   2   3
HETATM    3  C   LIG     1      14.582  31.649  18.778  1.00  0.00     0.016 C 
HETATM    4  C   LIG     1      15.373  32.698  19.559  1.00  0.00     0.006 C 
ENDBRANCH   2   3
BRANCH   2   5
HETATM    5  C   LIG     1      15.068  33.180  16.824  1.00  0.00     0.016 C 
HETATM    6  C   LIG     1      15.857  32.561  15.671  1.00  0.00     0.006 C 
ENDBRANCH   2   5
TORSDOF 2
ENDMDL
MODEL 20
REMARK VINA RESULT:      -3.4     11.019     11.853
REMARK  2 active torsions:
REMARK  status: ('A' for Active; 'I' for Inactive)
REMARK    1  A    between atoms: C_2  and  C_5 
REMARK    2  A    between atoms: C_2  and  C_3 
ROOT
HETATM    1 CL   LIG     1      12.889  30.651  15.733  1.00  0.00    -0.125 Cl
HETATM    2  C   LIG     1      14.648  30.650  15.387  1.00  0.00     0.081 C 
ENDROOT
BRANCH   2   3
HETATM    3  C   LIG     1      14.899  30.207  13.933  1.00  0.00     0.016 C 
HETATM    4  C   LIG     1      15.232  28.718  13.831  1.00  0.00     0.006 C 
ENDBRANCH   2   3
BRANCH   2   5
HETATM    5  C   LIG     1      15.234  32.052  15.630  1.00  0.00     0.016 C 
HETATM    6  C   LIG     1      14.687  32.696  16.904  1.00  0.00     0.006 C 
ENDBRANCH   2   5
TORSDOF 2
ENDMDL
