MODEL 1
REMARK VINA RESULT:      -4.7      0.000      0.000
REMARK  0 active torsions:
REMARK  status: ('A' for Active; 'I' for Inactive)
ROOT
HETATM    1  O   LIG     1      17.243  38.522  25.394  1.00  0.00    -0.274 OA
HETATM    2  C   LIG     1      17.474  37.288  25.497  1.00  0.00     0.217 A 
HETATM    3  C   LIG     1      18.272  36.686  26.581  1.00  0.00     0.104 A 
HETATM    4  C   LIG     1      18.247  35.185  26.247  1.00  0.00     0.029 A 
HETATM    5  C   LIG     1      17.417  35.013  24.958  1.00  0.00     0.123 A 
HETATM    6  N   LIG     1      16.987  36.342  24.574  1.00  0.00    -0.361 N 
HETATM    7  H   LIG     1      16.403  36.564  23.737  1.00  0.00     0.162 HD
ENDROOT
TORSDOF 0
ENDMDL
MODEL 2
REMARK VINA RESULT:      -4.5      1.166      1.761
REMARK  0 active torsions:
REMARK  status: ('A' for Active; 'I' for Inactive)
ROOT
HETATM    1  O   LIG     1      16.590  38.120  24.292  1.00  0.00    -0.274 OA
HETATM    2  C   LIG     1      17.122  37.219  24.992  1.00  0.00     0.217 A 
HETATM    3  C   LIG     1      17.194  35.800  24.594  1.00  0.00     0.104 A 
HETATM    4  C   LIG     1      17.926  35.139  25.774  1.00  0.00     0.029 A 
HETATM    5  C   LIG     1      18.237  36.245  26.803  1.00  0.00     0.123 A 
HETATM    6  N   LIG     1      17.713  37.475  26.245  1.00  0.00    -0.361 N 
HETATM    7  H   LIG     1      17.766  38.411  26.704  1.00  0.00     0.162 HD
ENDROOT
TORSDOF 0
ENDMDL
MODEL 3
REMARK VINA RESULT:      -4.0      2.049      2.872
REMARK  0 active torsions:
REMARK  status: ('A' for Active; 'I' for Inactive)
ROOT
HETATM    1  O   LIG     1      17.903  34.603  26.382  1.00  0.00    -0.274 OA
HETATM    2  C   LIG     1      17.610  35.624  25.706  1.00  0.00     0.217 A 
HETATM    3  C   LIG     1      17.232  35.588  24.281  1.00  0.00     0.104 A 
HETATM    4  C   LIG     1      16.979  37.067  23.945  1.00  0.00     0.029 A 
HETATM    5  C   LIG     1      17.234  37.883  25.229  1.00  0.00     0.123 A 
HETATM    6  N   LIG     1      17.612  36.924  26.247  1.00  0.00    -0.361 N 
HETATM    7  H   LIG     1      17.850  37.163  27.236  1.00  0.00     0.162 HD
ENDROOT
TORSDOF 0
ENDMDL
MODEL 4
REMARK VINA RESULT:      -3.9      5.452      6.035
REMARK  0 active torsions:
REMARK  status: ('A' for Active; 'I' for Inactive)
ROOT
HETATM    1  O   LIG     1      17.573  35.960  20.353  1.00  0.00    -0.274 OA
HETATM    2  C   LIG     1      18.236  37.030  20.350  1.00  0.00     0.217 A 
HETATM    3  C   LIG     1      19.351  37.306  19.424  1.00  0.00     0.104 A 
HETATM    4  C   LIG     1      19.805  38.718  19.830  1.00  0.00     0.029 A 
HETATM    5  C   LIG     1      18.903  39.178  20.993  1.00  0.00     0.123 A 
HETATM    6  N   LIG     1      17.979  38.090  21.241  1.00  0.00    -0.361 N 
HETATM    7  H   LIG     1      17.234  38.093  21.972  1.00  0.00     0.162 HD
ENDROOT
TORSDOF 0
ENDMDL
MODEL 5
REMARK VINA RESULT:      -3.9      1.961      2.395
REMARK  0 active torsions:
REMARK  status: ('A' for Active; 'I' for Inactive)
ROOT
HETATM    1  O   LIG     1      17.077  38.521  25.545  1.00  0.00    -0.274 OA
HETATM    2  C   LIG     1      16.905  37.729  24.581  1.00  0.00     0.217 A 
HETATM    3  C   LIG     1      17.372  36.330  24.569  1.00  0.00     0.104 A 
HETATM    4  C   LIG     1      16.917  35.817  23.193  1.00  0.00     0.029 A 
HETATM    5  C   LIG     1      16.200  36.982  22.480  1.00  0.00     0.123 A 
HETATM    6  N   LIG     1      16.240  38.102  23.397  1.00  0.00    -0.361 N 
HETATM    7  H   LIG     1      15.834  39.046  23.208  1.00  0.00     0.162 HD
ENDROOT
TORSDOF 0
ENDMDL
MODEL 6
REMARK VINA RESULT:      -3.9      3.003      3.646
REMARK  0 active torsions:
REMARK  status: ('A' for Active; 'I' for Inactive)
ROOT
HETATM    1  O   LIG     1      16.320  38.000  24.648  1.00  0.00    -0.274 OA
HETATM    2  C   LIG     1      16.786  37.886  23.484  1.00  0.00     0.217 A 
HETATM    3  C   LIG     1      17.476  38.972  22.762  1.00  0.00     0.104 A 
HETATM    4  C   LIG     1      17.839  38.325  21.415  1.00  0.00     0.029 A 
HETATM    5  C   LIG     1      17.323  36.872  21.446  1.00  0.00     0.123 A 
HETATM    6  N   LIG     1      16.698  36.693  22.740  1.00  0.00    -0.361 N 
HETATM    7  H   LIG     1      16.250  35.810  23.072  1.00  0.00     0.162 HD
ENDROOT
TORSDOF 0
ENDMDL
MODEL 7
REMARK VINA RESULT:      -3.8      9.890     10.375
REMARK  0 active torsions:
REMARK  status: ('A' for Active; 'I' for Inactive)
ROOT
HETATM    1  O   LIG     1      15.966  34.459  16.376  1.00  0.00    -0.274 OA
HETATM    2  C   LIG     1      15.263  33.415  16.395  1.00  0.00     0.217 A 
HETATM    3  C   LIG     1      15.527  32.227  15.562  1.00  0.00     0.104 A 
HETATM    4  C   LIG     1      14.401  31.259  15.960  1.00  0.00     0.029 A 
HETATM    5  C   LIG     1      13.537  31.966  17.024  1.00  0.00     0.123 A 
HETATM    6  N   LIG     1      14.135  33.270  17.226  1.00  0.00    -0.361 N 
HETATM    7  H   LIG     1      13.781  33.995  17.890  1.00  0.00     0.162 HD
ENDROOT
TORSDOF 0
ENDMDL
MODEL 8
REMARK VINA RESULT:      -3.7      7.402      8.267
REMARK  0 active torsions:
REMARK  status: ('A' for Active; 'I' for Inactive)
ROOT
HETATM    1  O   LIG     1      15.040  34.589  16.634  1.00  0.00    -0.274 OA
HETATM    2  C   LIG     1      15.169  33.965  17.719  1.00  0.00     0.217 A 
HETATM    3  C   LIG     1      15.037  32.502  17.851  1.00  0.00     0.104 A 
HETATM    4  C   LIG     1      15.282  32.258  19.349  1.00  0.00     0.029 A 
HETATM    5  C   LIG     1      15.546  33.630  20.003  1.00  0.00     0.123 A 
HETATM    6  N   LIG     1      15.459  34.608  18.939  1.00  0.00    -0.361 N 
HETATM    7  H   LIG     1      15.590  35.637  19.059  1.00  0.00     0.162 HD
ENDROOT
TORSDOF 0
ENDMDL
MODEL 9
REMARK VINA RESULT:      -3.7     11.799     12.442
REMARK  0 active torsions:
REMARK  status: ('A' for Active; 'I' for Inactive)
ROOT
HETATM    1  O   LIG     1      12.415  31.317  17.011  1.00  0.00    -0.274 OA
HETATM    2  C   LIG     1      13.134  30.861  16.083  1.00  0.00     0.217 A 
HETATM    3  C   LIG     1      14.507  31.320  15.802  1.00  0.00     0.104 A 
HETATM    4  C   LIG     1      14.927  30.461  14.598  1.00  0.00     0.029 A 
HETATM    5  C   LIG     1      13.741  29.539  14.251  1.00  0.00     0.123 A 
HETATM    6  N   LIG     1      12.696  29.850  15.205  1.00  0.00    -0.361 N 
HETATM    7  H   LIG     1      11.758  29.392  15.237  1.00  0.00     0.162 HD
ENDROOT
TORSDOF 0
ENDMDL
MODEL 10
REMARK VINA RESULT:      -3.7      5.034      5.501
REMARK  0 active torsions:
REMARK  status: ('A' for Active; 'I' for Inactive)
ROOT
HETATM    1  O   LIG     1      17.097  37.942  22.201  1.00  0.00    -0.274 OA
HETATM    2  C   LIG     1      17.965  38.043  21.294  1.00  0.00     0.217 A 
HETATM    3  C   LIG     1      18.748  39.265  21.034  1.00  0.00     0.104 A 
HETATM    4  C   LIG     1      19.645  38.865  19.851  1.00  0.00     0.029 A 
HETATM    5  C   LIG     1      19.315  37.401  19.495  1.00  0.00     0.123 A 
HETATM    6  N   LIG     1      18.285  36.983  20.423  1.00  0.00    -0.361 N 
HETATM    7  H   LIG     1      17.845  36.036  20.443  1.00  0.00     0.162 HD
ENDROOT
TORSDOF 0
ENDMDL
MODEL 11
REMARK VINA RESULT:      -3.7      9.813     10.731
REMARK  0 active torsions:
REMARK  status: ('A' for Active; 'I' for Inactive)
ROOT
HETATM    1  O   LIG     1      12.625  30.407  16.775  1.00  0.00    -0.274 OA
HETATM    2  C   LIG     1      13.587  31.213  16.865  1.00  0.00     0.217 A 
HETATM    3  C   LIG     1      14.553  31.470  15.780  1.00  0.00     0.104 A 
HETATM    4  C   LIG     1      15.503  32.512  16.392  1.00  0.00     0.029 A 
HETATM    5  C   LIG     1      15.015  32.796  17.827  1.00  0.00     0.123 A 
HETATM    6  N   LIG     1      13.847  31.964  18.028  1.00  0.00    -0.361 N 
HETATM    7  H   LIG     1      13.282  31.927  18.906  1.00  0.00     0.162 HD
ENDROOT
TORSDOF 0
ENDMDL
MODEL 12
REMARK VINA RESULT:      -3.7      4.755      5.328
REMARK  0 active torsions:
REMARK  status: ('A' for Active; 'I' for Inactive)
ROOT
HETATM    1  O   LIG     1      18.985  36.503  19.232  1.00  0.00    -0.274 OA
HETATM    2  C   LIG     1      18.338  36.913  20.231  1.00  0.00     0.217 A 
HETATM    3  C   LIG     1      17.351  36.099  20.965  1.00  0.00     0.104 A 
HETATM    4  C   LIG     1      16.863  37.048  22.071  1.00  0.00     0.029 A 
HETATM    5  C   LIG     1      17.616  38.383  21.901  1.00  0.00     0.123 A 
HETATM    6  N   LIG     1      18.491  38.210  20.760  1.00  0.00    -0.361 N 
HETATM    7  H   LIG     1      19.139  38.938  20.385  1.00  0.00     0.162 HD
ENDROOT
TORSDOF 0
ENDMDL
MODEL 13
REMARK VINA RESULT:      -3.5     11.188     12.104
REMARK  0 active torsions:
REMARK  status: ('A' for Active; 'I' for Inactive)
ROOT
HETATM    1  O   LIG     1      16.067  31.049  13.766  1.00  0.00    -0.274 OA
HETATM    2  C   LIG     1      15.241  31.139  14.712  1.00  0.00     0.217 A 
HETATM    3  C   LIG     1      14.076  30.249  14.878  1.00  0.00     0.104 A 
HETATM    4  C   LIG     1      13.411  30.774  16.161  1.00  0.00     0.029 A 
HETATM    5  C   LIG     1      14.253  31.964  16.665  1.00  0.00     0.123 A 
HETATM    6  N   LIG     1      15.344  32.113  15.724  1.00  0.00    -0.361 N 
HETATM    7  H   LIG     1      16.095  32.836  15.788  1.00  0.00     0.162 HD
ENDROOT
TORSDOF 0
ENDMDL
MODEL 14
REMARK VINA RESULT:      -3.5     12.048     12.166
REMARK  0 active torsions:
REMARK  status: ('A' for Active; 'I' for Inactive)
ROOT
HETATM    1  O   LIG     1      16.678  43.381  35.501  1.00  0.00    -0.274 OA
HETATM    2  C   LIG     1      16.431  44.226  34.600  1.00  0.00     0.217 A 
HETATM    3  C   LIG     1      17.469  44.943  33.836  1.00  0.00     0.104 A 
HETATM    4  C   LIG     1      16.654  45.835  32.884  1.00  0.00     0.029 A 
HETATM    5  C   LIG     1      15.162  45.570  33.168  1.00  0.00     0.123 A 
HETATM    6  N   LIG     1      15.121  44.579  34.224  1.00  0.00    -0.361 N 
HETATM    7  H   LIG     1      14.249  44.186  34.643  1.00  0.00     0.162 HD
ENDROOT
TORSDOF 0
ENDMDL
MODEL 15
REMARK VINA RESULT:      -3.4     12.705     13.296
REMARK  0 active torsions:
REMARK  status: ('A' for Active; 'I' for Inactive)
ROOT
HETATM    1  O   LIG     1      16.225  30.632  13.668  1.00  0.00    -0.274 OA
HETATM    2  C   LIG     1      15.093  30.365  14.150  1.00  0.00     0.217 A 
HETATM    3  C   LIG     1      14.509  31.056  15.315  1.00  0.00     0.104 A 
HETATM    4  C   LIG     1      13.146  30.367  15.488  1.00  0.00     0.029 A 
HETATM    5  C   LIG     1      13.027  29.294  14.386  1.00  0.00     0.123 A 
HETATM    6  N   LIG     1      14.255  29.365  13.621  1.00  0.00    -0.361 N 
HETATM    7  H   LIG     1      14.483  28.763  12.798  1.00  0.00     0.162 HD
ENDROOT
TORSDOF 0
ENDMDL
MODEL 16
REMARK VINA RESULT:      -3.4     12.664     13.225
REMARK  0 active torsions:
REMARK  status: ('A' for Active; 'I' for Inactive)
ROOT
HETATM    1  O   LIG     1      13.237  28.858  14.360  1.00  0.00    -0.274 OA
HETATM    2  C   LIG     1      14.044  29.823  14.421  1.00  0.00     0.217 A 
HETATM    3  C   LIG     1      14.171  30.720  15.586  1.00  0.00     0.104 A 
HETATM    4  C   LIG     1      15.272  31.703  15.156  1.00  0.00     0.029 A 
HETATM    5  C   LIG     1      15.721  31.302  13.736  1.00  0.00     0.123 A 
HETATM    6  N   LIG     1      14.922  30.151  13.370  1.00  0.00    -0.361 N 
HETATM    7  H   LIG     1      14.988  29.640  12.461  1.00  0.00     0.162 HD
ENDROOT
TORSDOF 0
ENDMDL
MODEL 17
REMARK VINA RESULT:      -3.4     11.254     11.984
REMARK  0 active torsions:
REMARK  status: ('A' for Active; 'I' for Inactive)
ROOT
HETATM    1  O   LIG     1      13.115  29.562  14.643  1.00  0.00    -0.274 OA
HETATM    2  C   LIG     1      13.606  30.449  15.390  1.00  0.00     0.217 A 
HETATM    3  C   LIG     1      14.882  31.139  15.122  1.00  0.00     0.104 A 
HETATM    4  C   LIG     1      15.018  32.103  16.312  1.00  0.00     0.029 A 
HETATM    5  C   LIG     1      13.784  31.902  17.214  1.00  0.00     0.123 A 
HETATM    6  N   LIG     1      12.981  30.879  16.576  1.00  0.00    -0.361 N 
HETATM    7  H   LIG     1      12.073  30.515  16.942  1.00  0.00     0.162 HD
ENDROOT
TORSDOF 0
ENDMDL
MODEL 18
REMARK VINA RESULT:      -3.3     10.799     11.427
REMARK  0 active torsions:
REMARK  status: ('A' for Active; 'I' for Inactive)
ROOT
HETATM    1  O   LIG     1      16.292  33.037  16.018  1.00  0.00    -0.274 OA
HETATM    2  C   LIG     1      15.408  32.160  15.833  1.00  0.00     0.217 A 
HETATM    3  C   LIG     1      14.247  31.959  16.721  1.00  0.00     0.104 A 
HETATM    4  C   LIG     1      13.495  30.792  16.060  1.00  0.00     0.029 A 
HETATM    5  C   LIG     1      14.289  30.382  14.803  1.00  0.00     0.123 A 
HETATM    6  N   LIG     1      15.434  31.267  14.744  1.00  0.00    -0.361 N 
HETATM    7  H   LIG     1      16.170  31.245  14.003  1.00  0.00     0.162 HD
ENDROOT
TORSDOF 0
ENDMDL
MODEL 19
REMARK VINA RESULT:      -3.3      7.018      7.648
REMARK  0 active torsions:
REMARK  status: ('A' for Active; 'I' for Inactive)
ROOT
HETATM    1  O   LIG     1      16.041  35.156  19.769  1.00  0.00    -0.274 OA
HETATM    2  C   LIG     1      15.589  34.065  19.331  1.00  0.00     0.217 A 
HETATM    3  C   LIG     1      15.385  32.864  20.163  1.00  0.00     0.104 A 
HETATM    4  C   LIG     1      14.828  31.834  19.166  1.00  0.00     0.029 A 
HETATM    5  C   LIG     1      14.745  32.523  17.788  1.00  0.00     0.123 A 
HETATM    6  N   LIG     1      15.227  33.875  17.983  1.00  0.00    -0.361 N 
HETATM    7  H   LIG     1      15.296  34.600  17.235  1.00  0.00     0.162 HD
ENDROOT
TORSDOF 0
ENDMDL
MODEL 20
REMARK VINA RESULT:      -3.3     13.693     14.258
REMARK  0 active torsions:
REMARK  status: ('A' for Active; 'I' for Inactive)
ROOT
HETATM    1  O   LIG     1      13.726  30.674  14.923  1.00  0.00    -0.274 OA
HETATM    2  C   LIG     1      13.954  29.543  14.419  1.00  0.00     0.217 A 
HETATM    3  C   LIG     1      15.304  29.038  14.101  1.00  0.00     0.104 A 
HETATM    4  C   LIG     1      15.031  27.641  13.521  1.00  0.00     0.029 A 
HETATM    5  C   LIG     1      13.505  27.422  13.541  1.00  0.00     0.123 A 
HETATM    6  N   LIG     1      12.932  28.628  14.102  1.00  0.00    -0.361 N 
HETATM    7  H   LIG     1      11.911  28.793  14.250  1.00  0.00     0.162 HD
ENDROOT
TORSDOF 0
ENDMDL
