REMARK  0 active torsions:
REMARK  status: ('A' for Active; 'I' for Inactive)
ROOT
HETATM    1  O   LIG     1       2.533   0.546  -0.026  1.00  0.00    -0.274 OA
HETATM    2  C   LIG     1       1.296   0.312  -0.014  1.00  0.00     0.217 A 
HETATM    3  C   LIG     1       0.713  -1.043   0.011  1.00  0.00     0.104 A 
HETATM    4  C   LIG     1      -0.801  -0.776   0.018  1.00  0.00     0.029 A 
HETATM    5  C   LIG     1      -1.001   0.753  -0.005  1.00  0.00     0.123 A 
HETATM    6  N   LIG     1       0.326   1.333  -0.023  1.00  0.00    -0.361 N 
HETATM    7  H   LIG     1       0.532   2.357  -0.040  1.00  0.00     0.162 HD
ENDROOT
TORSDOF 0
