REMARK  2 active torsions:
REMARK  status: ('A' for Active; 'I' for Inactive)
REMARK    1  A    between atoms: C_2  and  C_5 
REMARK    2  A    between atoms: C_2  and  C_3 
ROOT
HETATM    1 CL   LIG     1      -0.258   1.840  -0.810  1.00  0.00    -0.125 Cl
HETATM    2  C   LIG     1      -0.019   0.325   0.118  1.00  0.00     0.081 C 
ENDROOT
BRANCH   2   3
HETATM    3  C   LIG     1      -1.246  -0.592  -0.044  1.00  0.00     0.016 C 
HETATM    4  C   LIG     1      -2.497  -0.007   0.612  1.00  0.00     0.006 C 
ENDBRANCH   2   3
BRANCH   2   5
HETATM    5  C   LIG     1       1.255  -0.393  -0.362  1.00  0.00     0.016 C 
HETATM    6  C   LIG     1       2.523   0.392  -0.027  1.00  0.00     0.006 C 
ENDBRANCH   2   5
TORSDOF 2
