MODEL 1
REMARK VINA RESULT:      -4.5      0.000      0.000
REMARK  0 active torsions:
REMARK  status: ('A' for Active; 'I' for Inactive)
ROOT
HETATM    1  C   LIG     1      18.306  34.799  26.343  1.00  0.00     0.048 C 
HETATM    2  C   LIG     1      17.794  35.973  25.569  1.00  0.00    -0.055 A 
HETATM    3  C   LIG     1      17.206  35.866  24.313  1.00  0.00     0.056 A 
HETATM    4  S   LIG     1      16.779  37.412  23.812  1.00  0.00    -0.113 SA
HETATM    5  C   LIG     1      17.332  38.226  25.175  1.00  0.00     0.050 A 
HETATM    6  C   LIG     1      17.863  37.289  26.049  1.00  0.00     0.014 A 
ENDROOT
TORSDOF 0
ENDMDL
MODEL 2
REMARK VINA RESULT:      -4.0      4.375      5.213
REMARK  0 active torsions:
REMARK  status: ('A' for Active; 'I' for Inactive)
ROOT
HETATM    1  C   LIG     1      17.164  35.799  21.289  1.00  0.00     0.048 C 
HETATM    2  C   LIG     1      17.967  36.970  20.816  1.00  0.00    -0.055 A 
HETATM    3  C   LIG     1      17.922  38.224  21.418  1.00  0.00     0.056 A 
HETATM    4  S   LIG     1      18.968  39.235  20.578  1.00  0.00    -0.113 SA
HETATM    5  C   LIG     1      19.484  38.100  19.451  1.00  0.00     0.050 A 
HETATM    6  C   LIG     1      18.839  36.903  19.720  1.00  0.00     0.014 A 
ENDROOT
TORSDOF 0
ENDMDL
MODEL 3
REMARK VINA RESULT:      -4.0      4.463      5.235
REMARK  0 active torsions:
REMARK  status: ('A' for Active; 'I' for Inactive)
ROOT
HETATM    1  C   LIG     1      17.181  38.970  22.525  1.00  0.00     0.048 C 
HETATM    2  C   LIG     1      18.022  38.520  21.373  1.00  0.00    -0.055 A 
HETATM    3  C   LIG     1      17.946  37.246  20.820  1.00  0.00     0.056 A 
HETATM    4  S   LIG     1      19.053  37.166  19.558  1.00  0.00    -0.113 SA
HETATM    5  C   LIG     1      19.634  38.736  19.700  1.00  0.00     0.050 A 
HETATM    6  C   LIG     1      18.963  39.350  20.747  1.00  0.00     0.014 A 
ENDROOT
TORSDOF 0
ENDMDL
MODEL 4
REMARK VINA RESULT:      -3.9      3.800      4.564
REMARK  0 active torsions:
REMARK  status: ('A' for Active; 'I' for Inactive)
ROOT
HETATM    1  C   LIG     1      19.125  36.988  19.499  1.00  0.00     0.048 C 
HETATM    2  C   LIG     1      18.242  37.385  20.641  1.00  0.00    -0.055 A 
HETATM    3  C   LIG     1      17.342  36.517  21.251  1.00  0.00     0.056 A 
HETATM    4  S   LIG     1      16.563  37.363  22.476  1.00  0.00    -0.113 SA
HETATM    5  C   LIG     1      17.355  38.828  22.245  1.00  0.00     0.050 A 
HETATM    6  C   LIG     1      18.249  38.672  21.196  1.00  0.00     0.014 A 
ENDROOT
TORSDOF 0
ENDMDL
MODEL 5
REMARK VINA RESULT:      -3.9      1.651      2.374
REMARK  0 active torsions:
REMARK  status: ('A' for Active; 'I' for Inactive)
ROOT
HETATM    1  C   LIG     1      16.814  35.193  22.773  1.00  0.00     0.048 C 
HETATM    2  C   LIG     1      17.207  35.767  24.098  1.00  0.00    -0.055 A 
HETATM    3  C   LIG     1      17.591  34.990  25.187  1.00  0.00     0.056 A 
HETATM    4  S   LIG     1      17.945  36.029  26.459  1.00  0.00    -0.113 SA
HETATM    5  C   LIG     1      17.616  37.463  25.647  1.00  0.00     0.050 A 
HETATM    6  C   LIG     1      17.222  37.145  24.356  1.00  0.00     0.014 A 
ENDROOT
TORSDOF 0
ENDMDL
MODEL 6
REMARK VINA RESULT:      -3.7      1.571      2.849
REMARK  0 active torsions:
REMARK  status: ('A' for Active; 'I' for Inactive)
ROOT
HETATM    1  C   LIG     1      16.854  38.840  22.661  1.00  0.00     0.048 C 
HETATM    2  C   LIG     1      17.117  37.860  23.761  1.00  0.00    -0.055 A 
HETATM    3  C   LIG     1      17.022  36.481  23.599  1.00  0.00     0.056 A 
HETATM    4  S   LIG     1      17.397  35.764  25.072  1.00  0.00    -0.113 SA
HETATM    5  C   LIG     1      17.682  37.186  25.922  1.00  0.00     0.050 A 
HETATM    6  C   LIG     1      17.486  38.251  25.056  1.00  0.00     0.014 A 
ENDROOT
TORSDOF 0
ENDMDL
MODEL 7
REMARK VINA RESULT:      -3.7     10.197     11.434
REMARK  0 active torsions:
REMARK  status: ('A' for Active; 'I' for Inactive)
ROOT
HETATM    1  C   LIG     1      14.573  29.776  14.146  1.00  0.00     0.048 C 
HETATM    2  C   LIG     1      14.515  30.822  15.214  1.00  0.00    -0.055 A 
HETATM    3  C   LIG     1      15.447  31.848  15.335  1.00  0.00     0.056 A 
HETATM    4  S   LIG     1      15.010  32.788  16.656  1.00  0.00    -0.113 SA
HETATM    5  C   LIG     1      13.643  31.909  17.085  1.00  0.00     0.050 A 
HETATM    6  C   LIG     1      13.509  30.858  16.191  1.00  0.00     0.014 A 
ENDROOT
TORSDOF 0
ENDMDL
MODEL 8
REMARK VINA RESULT:      -3.7      2.264      3.025
REMARK  0 active torsions:
REMARK  status: ('A' for Active; 'I' for Inactive)
ROOT
HETATM    1  C   LIG     1      17.251  38.055  25.159  1.00  0.00     0.048 C 
HETATM    2  C   LIG     1      17.328  37.750  23.696  1.00  0.00    -0.055 A 
HETATM    3  C   LIG     1      16.888  36.554  23.137  1.00  0.00     0.056 A 
HETATM    4  S   LIG     1      17.158  36.630  21.481  1.00  0.00    -0.113 SA
HETATM    5  C   LIG     1      17.831  38.170  21.457  1.00  0.00     0.050 A 
HETATM    6  C   LIG     1      17.853  38.650  22.757  1.00  0.00     0.014 A 
ENDROOT
TORSDOF 0
ENDMDL
MODEL 9
REMARK VINA RESULT:      -3.6      3.608      3.903
REMARK  0 active torsions:
REMARK  status: ('A' for Active; 'I' for Inactive)
ROOT
HETATM    1  C   LIG     1      16.785  35.293  21.575  1.00  0.00     0.048 C 
HETATM    2  C   LIG     1      17.222  36.723  21.610  1.00  0.00    -0.055 A 
HETATM    3  C   LIG     1      18.156  37.261  20.731  1.00  0.00     0.056 A 
HETATM    4  S   LIG     1      18.351  38.885  21.119  1.00  0.00    -0.113 SA
HETATM    5  C   LIG     1      17.260  38.919  22.397  1.00  0.00     0.050 A 
HETATM    6  C   LIG     1      16.723  37.649  22.538  1.00  0.00     0.014 A 
ENDROOT
TORSDOF 0
ENDMDL
MODEL 10
REMARK VINA RESULT:      -3.5     11.198     12.223
REMARK  0 active torsions:
REMARK  status: ('A' for Active; 'I' for Inactive)
ROOT
HETATM    1  C   LIG     1      13.062  30.639  16.499  1.00  0.00     0.048 C 
HETATM    2  C   LIG     1      14.145  30.912  15.503  1.00  0.00    -0.055 A 
HETATM    3  C   LIG     1      15.067  31.945  15.637  1.00  0.00     0.056 A 
HETATM    4  S   LIG     1      16.095  31.892  14.309  1.00  0.00    -0.113 SA
HETATM    5  C   LIG     1      15.385  30.567  13.557  1.00  0.00     0.050 A 
HETATM    6  C   LIG     1      14.324  30.144  14.343  1.00  0.00     0.014 A 
ENDROOT
TORSDOF 0
ENDMDL
MODEL 11
REMARK VINA RESULT:      -3.4     10.670     11.909
REMARK  0 active torsions:
REMARK  status: ('A' for Active; 'I' for Inactive)
ROOT
HETATM    1  C   LIG     1      15.238  32.929  16.660  1.00  0.00     0.048 C 
HETATM    2  C   LIG     1      15.050  31.854  15.636  1.00  0.00    -0.055 A 
HETATM    3  C   LIG     1      15.828  31.744  14.488  1.00  0.00     0.056 A 
HETATM    4  S   LIG     1      15.284  30.409  13.625  1.00  0.00    -0.113 SA
HETATM    5  C   LIG     1      14.065  29.961  14.692  1.00  0.00     0.050 A 
HETATM    6  C   LIG     1      14.068  30.859  15.749  1.00  0.00     0.014 A 
ENDROOT
TORSDOF 0
ENDMDL
MODEL 12
REMARK VINA RESULT:      -3.4     10.415     11.553
REMARK  0 active torsions:
REMARK  status: ('A' for Active; 'I' for Inactive)
ROOT
HETATM    1  C   LIG     1      16.912  32.840  14.956  1.00  0.00     0.048 C 
HETATM    2  C   LIG     1      15.705  32.025  15.300  1.00  0.00    -0.055 A 
HETATM    3  C   LIG     1      14.917  32.259  16.423  1.00  0.00     0.056 A 
HETATM    4  S   LIG     1      13.678  31.125  16.427  1.00  0.00    -0.113 SA
HETATM    5  C   LIG     1      14.125  30.333  15.014  1.00  0.00     0.050 A 
HETATM    6  C   LIG     1      15.262  30.951  14.515  1.00  0.00     0.014 A 
ENDROOT
TORSDOF 0
ENDMDL
MODEL 13
REMARK VINA RESULT:      -3.3      3.891      4.378
REMARK  0 active torsions:
REMARK  status: ('A' for Active; 'I' for Inactive)
ROOT
HETATM    1  C   LIG     1      17.968  38.442  22.234  1.00  0.00     0.048 C 
HETATM    2  C   LIG     1      17.127  37.295  21.768  1.00  0.00    -0.055 A 
HETATM    3  C   LIG     1      17.536  36.393  20.790  1.00  0.00     0.056 A 
HETATM    4  S   LIG     1      16.300  35.276  20.574  1.00  0.00    -0.113 SA
HETATM    5  C   LIG     1      15.243  35.921  21.710  1.00  0.00     0.050 A 
HETATM    6  C   LIG     1      15.849  37.030  22.280  1.00  0.00     0.014 A 
ENDROOT
TORSDOF 0
ENDMDL
MODEL 14
REMARK VINA RESULT:      -3.3     11.477     12.557
REMARK  0 active torsions:
REMARK  status: ('A' for Active; 'I' for Inactive)
ROOT
HETATM    1  C   LIG     1      13.298  29.089  14.370  1.00  0.00     0.048 C 
HETATM    2  C   LIG     1      14.245  30.229  14.578  1.00  0.00    -0.055 A 
HETATM    3  C   LIG     1      14.263  31.010  15.729  1.00  0.00     0.056 A 
HETATM    4  S   LIG     1      15.469  32.165  15.547  1.00  0.00    -0.113 SA
HETATM    5  C   LIG     1      15.976  31.688  14.017  1.00  0.00     0.050 A 
HETATM    6  C   LIG     1      15.200  30.608  13.625  1.00  0.00     0.014 A 
ENDROOT
TORSDOF 0
ENDMDL
MODEL 15
REMARK VINA RESULT:      -3.3      3.704      4.583
REMARK  0 active torsions:
REMARK  status: ('A' for Active; 'I' for Inactive)
ROOT
HETATM    1  C   LIG     1      15.630  33.590  20.355  1.00  0.00     0.048 C 
HETATM    2  C   LIG     1      15.839  34.813  21.191  1.00  0.00    -0.055 A 
HETATM    3  C   LIG     1      17.008  35.066  21.902  1.00  0.00     0.056 A 
HETATM    4  S   LIG     1      16.820  36.534  22.696  1.00  0.00    -0.113 SA
HETATM    5  C   LIG     1      15.265  36.862  22.150  1.00  0.00     0.050 A 
HETATM    6  C   LIG     1      14.868  35.816  21.330  1.00  0.00     0.014 A 
ENDROOT
TORSDOF 0
ENDMDL
MODEL 16
REMARK VINA RESULT:      -3.2     12.131     12.406
REMARK  0 active torsions:
REMARK  status: ('A' for Active; 'I' for Inactive)
ROOT
HETATM    1  C   LIG     1      14.304  46.057  32.701  1.00  0.00     0.048 C 
HETATM    2  C   LIG     1      15.430  45.368  33.405  1.00  0.00    -0.055 A 
HETATM    3  C   LIG     1      15.242  44.415  34.401  1.00  0.00     0.056 A 
HETATM    4  S   LIG     1      16.758  43.903  34.915  1.00  0.00    -0.113 SA
HETATM    5  C   LIG     1      17.660  44.879  33.885  1.00  0.00     0.050 A 
HETATM    6  C   LIG     1      16.778  45.625  33.118  1.00  0.00     0.014 A 
ENDROOT
TORSDOF 0
ENDMDL
MODEL 17
REMARK VINA RESULT:      -3.1     12.744     13.988
REMARK  0 active torsions:
REMARK  status: ('A' for Active; 'I' for Inactive)
ROOT
HETATM    1  C   LIG     1      14.977  31.122  14.818  1.00  0.00     0.048 C 
HETATM    2  C   LIG     1      14.559  29.754  14.379  1.00  0.00    -0.055 A 
HETATM    3  C   LIG     1      13.236  29.321  14.375  1.00  0.00     0.056 A 
HETATM    4  S   LIG     1      13.216  27.738  13.814  1.00  0.00    -0.113 SA
HETATM    5  C   LIG     1      14.873  27.588  13.573  1.00  0.00     0.050 A 
HETATM    6  C   LIG     1      15.470  28.787  13.931  1.00  0.00     0.014 A 
ENDROOT
TORSDOF 0
ENDMDL
MODEL 18
REMARK VINA RESULT:      -2.9     16.419     16.836
REMARK  0 active torsions:
REMARK  status: ('A' for Active; 'I' for Inactive)
ROOT
HETATM    1  C   LIG     1       3.389  40.036  32.003  1.00  0.00     0.048 C 
HETATM    2  C   LIG     1       3.822  40.387  33.392  1.00  0.00    -0.055 A 
HETATM    3  C   LIG     1       3.910  41.694  33.860  1.00  0.00     0.056 A 
HETATM    4  S   LIG     1       4.431  41.633  35.457  1.00  0.00    -0.113 SA
HETATM    5  C   LIG     1       4.549  39.960  35.567  1.00  0.00     0.050 A 
HETATM    6  C   LIG     1       4.178  39.421  34.344  1.00  0.00     0.014 A 
ENDROOT
TORSDOF 0
ENDMDL
MODEL 19
REMARK VINA RESULT:      -2.8     12.677     13.645
REMARK  0 active torsions:
REMARK  status: ('A' for Active; 'I' for Inactive)
ROOT
HETATM    1  C   LIG     1      18.222  33.605  13.661  1.00  0.00     0.048 C 
HETATM    2  C   LIG     1      19.176  34.000  12.578  1.00  0.00    -0.055 A 
HETATM    3  C   LIG     1      18.771  34.419  11.314  1.00  0.00     0.056 A 
HETATM    4  S   LIG     1      20.152  34.763  10.420  1.00  0.00    -0.113 SA
HETATM    5  C   LIG     1      21.268  34.388  11.620  1.00  0.00     0.050 A 
HETATM    6  C   LIG     1      20.568  33.985  12.747  1.00  0.00     0.014 A 
ENDROOT
TORSDOF 0
ENDMDL
MODEL 20
REMARK VINA RESULT:      -2.8     10.702     11.991
REMARK  0 active torsions:
REMARK  status: ('A' for Active; 'I' for Inactive)
ROOT
HETATM    1  C   LIG     1      17.982  33.514  12.872  1.00  0.00     0.048 C 
HETATM    2  C   LIG     1      17.010  32.916  13.840  1.00  0.00    -0.055 A 
HETATM    3  C   LIG     1      16.898  33.326  15.165  1.00  0.00     0.056 A 
HETATM    4  S   LIG     1      15.696  32.400  15.889  1.00  0.00    -0.113 SA
HETATM    5  C   LIG     1      15.310  31.478  14.537  1.00  0.00     0.050 A 
HETATM    6  C   LIG     1      16.124  31.887  13.491  1.00  0.00     0.014 A 
ENDROOT
TORSDOF 0
ENDMDL
