REMARK  0 active torsions:
REMARK  status: ('A' for Active; 'I' for Inactive)
ROOT
HETATM    1  C   LIG     1      -1.688  -0.290  -0.095  1.00  0.00     0.048 C 
HETATM    2  C   LIG     1      -0.248   0.100   0.019  1.00  0.00    -0.055 A 
HETATM    3  C   LIG     1       0.175   1.390   0.325  1.00  0.00     0.056 A 
HETATM    4  S   LIG     1       1.855   1.387   0.352  1.00  0.00    -0.113 SA
HETATM    5  C   LIG     1       2.060  -0.239  -0.021  1.00  0.00     0.050 A 
HETATM    6  C   LIG     1       0.804  -0.807  -0.173  1.00  0.00     0.014 A 
ENDROOT
TORSDOF 0
