MODEL 1
REMARK VINA RESULT:      -6.7      0.000      0.000
REMARK  2 active torsions:
REMARK  status: ('A' for Active; 'I' for Inactive)
REMARK    1  A    between atoms: C_8  and  N_9 
REMARK    2  A    between atoms: C_10  and  N_11 
ROOT
HETATM    1 CL   LIG     1      20.775  38.596  19.178  1.00  0.00    -0.084 Cl
HETATM    2  C   LIG     1      19.394  38.330  20.228  1.00  0.00     0.034 A 
HETATM    3  C   LIG     1      18.654  37.149  20.124  1.00  0.00     0.033 A 
HETATM    4  C   LIG     1      17.553  36.922  20.967  1.00  0.00    -0.032 A 
HETATM    5  C   LIG     1      16.792  35.630  20.842  1.00  0.00     0.050 C 
HETATM    6  C   LIG     1      19.042  39.296  21.173  1.00  0.00     0.026 A 
HETATM    7  C   LIG     1      17.938  39.092  22.003  1.00  0.00     0.034 A 
HETATM    8  C   LIG     1      17.168  37.928  21.887  1.00  0.00     0.064 A 
ENDROOT
BRANCH   8   9
HETATM    9  N   LIG     1      16.038  37.764  22.755  1.00  0.00    -0.244 NA
HETATM   10  C   LIG     1      16.057  37.242  23.948  1.00  0.00     0.204 C 
BRANCH  10  11
HETATM   11  N   LIG     1      17.233  36.648  24.529  1.00  0.00    -0.384 N 
HETATM   12  C   LIG     1      18.062  37.480  25.398  1.00  0.00     0.149 C 
HETATM   13  C   LIG     1      17.368  35.191  24.612  1.00  0.00     0.149 C 
ENDBRANCH  10  11
ENDBRANCH   8   9
TORSDOF 2
ENDMDL
MODEL 2
REMARK VINA RESULT:      -6.1      2.734      4.603
REMARK  2 active torsions:
REMARK  status: ('A' for Active; 'I' for Inactive)
REMARK    1  A    between atoms: C_8  and  N_9 
REMARK    2  A    between atoms: C_10  and  N_11 
ROOT
HETATM    1 CL   LIG     1      18.719  34.493  26.856  1.00  0.00    -0.084 Cl
HETATM    2  C   LIG     1      17.974  35.593  25.709  1.00  0.00     0.034 A 
HETATM    3  C   LIG     1      17.451  35.103  24.509  1.00  0.00     0.033 A 
HETATM    4  C   LIG     1      16.844  35.974  23.588  1.00  0.00    -0.032 A 
HETATM    5  C   LIG     1      16.274  35.409  22.316  1.00  0.00     0.050 C 
HETATM    6  C   LIG     1      17.895  36.956  26.002  1.00  0.00     0.026 A 
HETATM    7  C   LIG     1      17.312  37.835  25.087  1.00  0.00     0.034 A 
HETATM    8  C   LIG     1      16.814  37.363  23.867  1.00  0.00     0.064 A 
ENDROOT
BRANCH   8   9
HETATM    9  N   LIG     1      16.231  38.302  22.954  1.00  0.00    -0.244 NA
HETATM   10  C   LIG     1      16.797  38.789  21.888  1.00  0.00     0.204 C 
BRANCH  10  11
HETATM   11  N   LIG     1      18.165  38.518  21.529  1.00  0.00    -0.384 N 
HETATM   12  C   LIG     1      18.414  37.655  20.377  1.00  0.00     0.149 C 
HETATM   13  C   LIG     1      19.245  39.389  22.003  1.00  0.00     0.149 C 
ENDBRANCH  10  11
ENDBRANCH   8   9
TORSDOF 2
ENDMDL
MODEL 3
REMARK VINA RESULT:      -4.4      6.798      8.523
REMARK  2 active torsions:
REMARK  status: ('A' for Active; 'I' for Inactive)
REMARK    1  A    between atoms: C_8  and  N_9 
REMARK    2  A    between atoms: C_10  and  N_11 
ROOT
HETATM    1 CL   LIG     1      13.129  29.213  14.521  1.00  0.00    -0.084 Cl
HETATM    2  C   LIG     1      13.767  30.610  15.371  1.00  0.00     0.034 A 
HETATM    3  C   LIG     1      15.034  31.105  15.049  1.00  0.00     0.033 A 
HETATM    4  C   LIG     1      15.550  32.229  15.716  1.00  0.00    -0.032 A 
HETATM    5  C   LIG     1      16.909  32.747  15.330  1.00  0.00     0.050 C 
HETATM    6  C   LIG     1      13.003  31.231  16.362  1.00  0.00     0.026 A 
HETATM    7  C   LIG     1      13.513  32.336  17.046  1.00  0.00     0.034 A 
HETATM    8  C   LIG     1      14.794  32.822  16.757  1.00  0.00     0.064 A 
ENDROOT
BRANCH   8   9
HETATM    9  N   LIG     1      15.279  33.955  17.490  1.00  0.00    -0.244 NA
HETATM   10  C   LIG     1      15.525  33.993  18.768  1.00  0.00     0.204 C 
BRANCH  10  11
HETATM   11  N   LIG     1      15.234  32.899  19.659  1.00  0.00    -0.384 N 
HETATM   12  C   LIG     1      15.964  31.648  19.469  1.00  0.00     0.149 C 
HETATM   13  C   LIG     1      14.578  33.143  20.948  1.00  0.00     0.149 C 
ENDBRANCH  10  11
ENDBRANCH   8   9
TORSDOF 2
ENDMDL
MODEL 4
REMARK VINA RESULT:      -4.2      2.866      4.481
REMARK  2 active torsions:
REMARK  status: ('A' for Active; 'I' for Inactive)
REMARK    1  A    between atoms: C_8  and  N_9 
REMARK    2  A    between atoms: C_10  and  N_11 
ROOT
HETATM    1 CL   LIG     1      17.671  37.446  26.049  1.00  0.00    -0.084 Cl
HETATM    2  C   LIG     1      17.516  37.292  24.308  1.00  0.00     0.034 A 
HETATM    3  C   LIG     1      17.163  36.063  23.744  1.00  0.00     0.033 A 
HETATM    4  C   LIG     1      17.027  35.931  22.351  1.00  0.00    -0.032 A 
HETATM    5  C   LIG     1      16.625  34.599  21.779  1.00  0.00     0.050 C 
HETATM    6  C   LIG     1      17.738  38.401  23.488  1.00  0.00     0.026 A 
HETATM    7  C   LIG     1      17.626  38.278  22.102  1.00  0.00     0.034 A 
HETATM    8  C   LIG     1      17.305  37.045  21.521  1.00  0.00     0.064 A 
ENDROOT
BRANCH   8   9
HETATM    9  N   LIG     1      17.208  36.964  20.093  1.00  0.00    -0.244 NA
HETATM   10  C   LIG     1      18.198  37.045  19.251  1.00  0.00     0.204 C 
BRANCH  10  11
HETATM   11  N   LIG     1      19.550  37.339  19.651  1.00  0.00    -0.384 N 
HETATM   12  C   LIG     1      20.519  36.246  19.647  1.00  0.00     0.149 C 
HETATM   13  C   LIG     1      20.045  38.719  19.643  1.00  0.00     0.149 C 
ENDBRANCH  10  11
ENDBRANCH   8   9
TORSDOF 2
ENDMDL
MODEL 5
REMARK VINA RESULT:      -4.1      8.156     10.237
REMARK  2 active torsions:
REMARK  status: ('A' for Active; 'I' for Inactive)
REMARK    1  A    between atoms: C_8  and  N_9 
REMARK    2  A    between atoms: C_10  and  N_11 
ROOT
HETATM    1 CL   LIG     1      13.729  29.057  14.099  1.00  0.00    -0.084 Cl
HETATM    2  C   LIG     1      14.621  30.503  14.537  1.00  0.00     0.034 A 
HETATM    3  C   LIG     1      14.416  31.100  15.784  1.00  0.00     0.033 A 
HETATM    4  C   LIG     1      15.133  32.253  16.148  1.00  0.00    -0.032 A 
HETATM    5  C   LIG     1      14.901  32.857  17.507  1.00  0.00     0.050 C 
HETATM    6  C   LIG     1      15.543  31.051  13.642  1.00  0.00     0.026 A 
HETATM    7  C   LIG     1      16.246  32.207  13.984  1.00  0.00     0.034 A 
HETATM    8  C   LIG     1      16.026  32.834  15.216  1.00  0.00     0.064 A 
ENDROOT
BRANCH   8   9
HETATM    9  N   LIG     1      16.766  34.024  15.522  1.00  0.00    -0.244 NA
HETATM   10  C   LIG     1      17.562  34.661  14.712  1.00  0.00     0.204 C 
BRANCH  10  11
HETATM   11  N   LIG     1      17.896  34.182  13.396  1.00  0.00    -0.384 N 
HETATM   12  C   LIG     1      17.217  34.788  12.253  1.00  0.00     0.149 C 
HETATM   13  C   LIG     1      19.144  33.448  13.165  1.00  0.00     0.149 C 
ENDBRANCH  10  11
ENDBRANCH   8   9
TORSDOF 2
ENDMDL
