REMARK  2 active torsions:
REMARK  status: ('A' for Active; 'I' for Inactive)
REMARK    1  A    between atoms: C_8  and  N_9 
REMARK    2  A    between atoms: C_10  and  N_11 
ROOT
HETATM    1 CL   LIG     1       3.426   2.893  -1.859  1.00  0.00    -0.084 Cl
HETATM    2  C   LIG     1       2.453   1.922  -0.768  1.00  0.00     0.034 A 
HETATM    3  C   LIG     1       2.214   0.575  -1.056  1.00  0.00     0.033 A 
HETATM    4  C   LIG     1       1.444  -0.214  -0.184  1.00  0.00    -0.032 A 
HETATM    5  C   LIG     1       1.224  -1.665  -0.515  1.00  0.00     0.050 C 
HETATM    6  C   LIG     1       1.926   2.494   0.392  1.00  0.00     0.026 A 
HETATM    7  C   LIG     1       1.143   1.726   1.256  1.00  0.00     0.034 A 
HETATM    8  C   LIG     1       0.868   0.385   0.963  1.00  0.00     0.064 A 
ENDROOT
BRANCH   8   9
HETATM    9  N   LIG     1       0.053  -0.363   1.875  1.00  0.00    -0.244 NA
HETATM   10  C   LIG     1      -1.105  -0.896   1.609  1.00  0.00     0.204 C 
BRANCH  10  11
HETATM   11  N   LIG     1      -1.788  -0.710   0.355  1.00  0.00    -0.384 N 
HETATM   12  C   LIG     1      -2.668  -1.779  -0.111  1.00  0.00     0.149 C 
HETATM   13  C   LIG     1      -1.948   0.632  -0.214  1.00  0.00     0.149 C 
ENDBRANCH  10  11
ENDBRANCH   8   9
TORSDOF 2
