REMARK  2 active torsions:
REMARK  status: ('A' for Active; 'I' for Inactive)
REMARK    1  A    between atoms: C_2  and  C_3 
REMARK    2  A    between atoms: C_2  and  O_10 
ROOT
HETATM    1  C   LIG     1       0.637  -0.122   0.215  1.00  0.00     0.038 A 
HETATM    2  C   LIG     1      -0.057   0.866  -0.507  1.00  0.00     0.036 A 
HETATM    3  C   LIG     1      -1.456   0.865  -0.544  1.00  0.00     0.007 A 
HETATM    4  I   LIG     1      -2.483   2.352  -1.631  1.00  0.00    -0.045 I 
HETATM    5  C   LIG     1      -2.173  -0.121   0.139  1.00  0.00     0.018 A 
HETATM    6  C   LIG     1      -1.494  -1.106   0.859  1.00  0.00     0.002 A 
HETATM    7  C   LIG     1      -0.096  -1.109   0.899  1.00  0.00     0.018 A 
ENDROOT
BRANCH   1   8
HETATM    8  C   LIG     1       2.116  -0.119   0.253  1.00  0.00     0.176 C 
HETATM    9  O   LIG     1       2.741  -1.003   0.899  1.00  0.00    -0.646 OA
BRANCH   8  10
HETATM   10  O   LIG     1       2.834   0.862  -0.427  1.00  0.00    -0.773 OA
HETATM   11  H   LIG     1       3.847   0.873  -0.408  1.00  0.00     0.167 HD
ENDBRANCH   8  10
ENDBRANCH   1   8
TORSDOF 2
