MODEL 1
REMARK VINA RESULT:      -6.3      0.000      0.000
REMARK  2 active torsions:
REMARK  status: ('A' for Active; 'I' for Inactive)
REMARK    1  A    between atoms: C_2  and  C_3 
REMARK    2  A    between atoms: C_2  and  O_10 
ROOT
HETATM    1  C   LIG     1      18.730  38.556  20.215  1.00  0.00     0.038 A 
HETATM    2  C   LIG     1      18.077  37.313  20.296  1.00  0.00     0.036 A 
HETATM    3  C   LIG     1      17.373  36.956  21.451  1.00  0.00     0.007 A 
HETATM    4  I   LIG     1      16.398  35.088  21.557  1.00  0.00    -0.045 I 
HETATM    5  C   LIG     1      17.315  37.836  22.535  1.00  0.00     0.018 A 
HETATM    6  C   LIG     1      17.960  39.072  22.466  1.00  0.00     0.002 A 
HETATM    7  C   LIG     1      18.665  39.434  21.313  1.00  0.00     0.018 A 
ENDROOT
BRANCH   1   8
HETATM    8  C   LIG     1      19.474  38.932  18.993  1.00  0.00     0.176 C 
HETATM    9  O   LIG     1      18.918  38.872  17.863  1.00  0.00    -0.646 OA
BRANCH   8  10
HETATM   10  O   LIG     1      20.797  39.357  19.079  1.00  0.00    -0.773 OA
HETATM   11  H   LIG     1      21.219  39.569  19.975  1.00  0.00     0.167 HD
ENDBRANCH   8  10
ENDBRANCH   1   8
TORSDOF 2
ENDMDL
MODEL 2
REMARK VINA RESULT:      -6.2      3.722      4.748
REMARK  2 active torsions:
REMARK  status: ('A' for Active; 'I' for Inactive)
REMARK    1  A    between atoms: C_2  and  C_3 
REMARK    2  A    between atoms: C_2  and  O_10 
ROOT
HETATM    1  C   LIG     1      16.932  37.420  22.411  1.00  0.00     0.038 A 
HETATM    2  C   LIG     1      17.809  38.240  21.679  1.00  0.00     0.036 A 
HETATM    3  C   LIG     1      18.456  37.746  20.540  1.00  0.00     0.007 A 
HETATM    4  I   LIG     1      19.769  38.987  19.452  1.00  0.00    -0.045 I 
HETATM    5  C   LIG     1      18.233  36.431  20.125  1.00  0.00     0.018 A 
HETATM    6  C   LIG     1      17.364  35.609  20.845  1.00  0.00     0.002 A 
HETATM    7  C   LIG     1      16.715  36.098  21.983  1.00  0.00     0.018 A 
ENDROOT
BRANCH   1   8
HETATM    8  C   LIG     1      16.248  37.945  23.614  1.00  0.00     0.176 C 
HETATM    9  O   LIG     1      16.916  38.361  24.599  1.00  0.00    -0.646 OA
BRANCH   8  10
HETATM   10  O   LIG     1      14.857  37.985  23.670  1.00  0.00    -0.773 OA
HETATM   11  H   LIG     1      14.302  37.997  22.822  1.00  0.00     0.167 HD
ENDBRANCH   8  10
ENDBRANCH   1   8
TORSDOF 2
ENDMDL
MODEL 3
REMARK VINA RESULT:      -6.2      3.598      4.302
REMARK  2 active torsions:
REMARK  status: ('A' for Active; 'I' for Inactive)
REMARK    1  A    between atoms: C_2  and  C_3 
REMARK    2  A    between atoms: C_2  and  O_10 
ROOT
HETATM    1  C   LIG     1      16.431  36.440  22.272  1.00  0.00     0.038 A 
HETATM    2  C   LIG     1      16.809  35.698  23.406  1.00  0.00     0.036 A 
HETATM    3  C   LIG     1      17.412  36.331  24.498  1.00  0.00     0.007 A 
HETATM    4  I   LIG     1      17.973  35.206  26.192  1.00  0.00    -0.045 I 
HETATM    5  C   LIG     1      17.644  37.709  24.468  1.00  0.00     0.018 A 
HETATM    6  C   LIG     1      17.273  38.455  23.347  1.00  0.00     0.002 A 
HETATM    7  C   LIG     1      16.669  37.826  22.253  1.00  0.00     0.018 A 
ENDROOT
BRANCH   1   8
HETATM    8  C   LIG     1      15.793  35.769  21.118  1.00  0.00     0.176 C 
HETATM    9  O   LIG     1      16.494  35.325  20.169  1.00  0.00    -0.646 OA
BRANCH   8  10
HETATM   10  O   LIG     1      14.409  35.619  21.071  1.00  0.00    -0.773 OA
HETATM   11  H   LIG     1      13.850  36.152  20.414  1.00  0.00     0.167 HD
ENDBRANCH   8  10
ENDBRANCH   1   8
TORSDOF 2
ENDMDL
MODEL 4
REMARK VINA RESULT:      -5.9      1.552      2.429
REMARK  2 active torsions:
REMARK  status: ('A' for Active; 'I' for Inactive)
REMARK    1  A    between atoms: C_2  and  C_3 
REMARK    2  A    between atoms: C_2  and  O_10 
ROOT
HETATM    1  C   LIG     1      18.554  38.128  20.320  1.00  0.00     0.038 A 
HETATM    2  C   LIG     1      18.274  38.447  21.662  1.00  0.00     0.036 A 
HETATM    3  C   LIG     1      17.583  37.542  22.475  1.00  0.00     0.007 A 
HETATM    4  I   LIG     1      17.170  38.033  24.484  1.00  0.00    -0.045 I 
HETATM    5  C   LIG     1      17.167  36.312  21.958  1.00  0.00     0.018 A 
HETATM    6  C   LIG     1      17.440  35.986  20.628  1.00  0.00     0.002 A 
HETATM    7  C   LIG     1      18.130  36.887  19.811  1.00  0.00     0.018 A 
ENDROOT
BRANCH   1   8
HETATM    8  C   LIG     1      19.285  39.086  19.462  1.00  0.00     0.176 C 
HETATM    9  O   LIG     1      20.522  39.268  19.616  1.00  0.00    -0.646 OA
BRANCH   8  10
HETATM   10  O   LIG     1      18.611  39.797  18.471  1.00  0.00    -0.773 OA
HETATM   11  H   LIG     1      19.004  39.897  17.543  1.00  0.00     0.167 HD
ENDBRANCH   8  10
ENDBRANCH   1   8
TORSDOF 2
ENDMDL
MODEL 5
REMARK VINA RESULT:      -5.8      8.778     10.004
REMARK  2 active torsions:
REMARK  status: ('A' for Active; 'I' for Inactive)
REMARK    1  A    between atoms: C_2  and  C_3 
REMARK    2  A    between atoms: C_2  and  O_10 
ROOT
HETATM    1  C   LIG     1      14.399  31.462  15.988  1.00  0.00     0.038 A 
HETATM    2  C   LIG     1      15.442  32.346  15.656  1.00  0.00     0.036 A 
HETATM    3  C   LIG     1      16.153  32.185  14.461  1.00  0.00     0.007 A 
HETATM    4  I   LIG     1      17.714  33.518  13.976  1.00  0.00    -0.045 I 
HETATM    5  C   LIG     1      15.830  31.142  13.590  1.00  0.00     0.018 A 
HETATM    6  C   LIG     1      14.796  30.259  13.910  1.00  0.00     0.002 A 
HETATM    7  C   LIG     1      14.082  30.416  15.102  1.00  0.00     0.018 A 
ENDROOT
BRANCH   1   8
HETATM    8  C   LIG     1      13.648  31.635  17.251  1.00  0.00     0.176 C 
HETATM    9  O   LIG     1      14.199  31.398  18.360  1.00  0.00    -0.646 OA
BRANCH   8  10
HETATM   10  O   LIG     1      12.323  32.062  17.228  1.00  0.00    -0.773 OA
HETATM   11  H   LIG     1      11.987  32.754  17.887  1.00  0.00     0.167 HD
ENDBRANCH   8  10
ENDBRANCH   1   8
TORSDOF 2
ENDMDL
MODEL 6
REMARK VINA RESULT:      -5.7      9.501     10.601
REMARK  2 active torsions:
REMARK  status: ('A' for Active; 'I' for Inactive)
REMARK    1  A    between atoms: C_2  and  C_3 
REMARK    2  A    between atoms: C_2  and  O_10 
ROOT
HETATM    1  C   LIG     1      14.221  30.276  14.941  1.00  0.00     0.038 A 
HETATM    2  C   LIG     1      15.341  31.018  14.523  1.00  0.00     0.036 A 
HETATM    3  C   LIG     1      15.739  32.158  15.230  1.00  0.00     0.007 A 
HETATM    4  I   LIG     1      17.419  33.262  14.591  1.00  0.00    -0.045 I 
HETATM    5  C   LIG     1      15.025  32.566  16.359  1.00  0.00     0.018 A 
HETATM    6  C   LIG     1      13.912  31.837  16.783  1.00  0.00     0.002 A 
HETATM    7  C   LIG     1      13.510  30.697  16.080  1.00  0.00     0.018 A 
ENDROOT
BRANCH   1   8
HETATM    8  C   LIG     1      13.802  29.071  14.192  1.00  0.00     0.176 C 
HETATM    9  O   LIG     1      14.656  28.229  13.805  1.00  0.00    -0.646 OA
BRANCH   8  10
HETATM   10  O   LIG     1      12.455  28.855  13.907  1.00  0.00    -0.773 OA
HETATM   11  H   LIG     1      12.174  28.355  13.072  1.00  0.00     0.167 HD
ENDBRANCH   8  10
ENDBRANCH   1   8
TORSDOF 2
ENDMDL
MODEL 7
REMARK VINA RESULT:      -5.6      3.522      4.360
REMARK  2 active torsions:
REMARK  status: ('A' for Active; 'I' for Inactive)
REMARK    1  A    between atoms: C_2  and  C_3 
REMARK    2  A    between atoms: C_2  and  O_10 
ROOT
HETATM    1  C   LIG     1      16.502  36.365  21.544  1.00  0.00     0.038 A 
HETATM    2  C   LIG     1      17.548  36.787  20.704  1.00  0.00     0.036 A 
HETATM    3  C   LIG     1      18.217  37.990  20.954  1.00  0.00     0.007 A 
HETATM    4  I   LIG     1      19.783  38.610  19.686  1.00  0.00    -0.045 I 
HETATM    5  C   LIG     1      17.846  38.782  22.044  1.00  0.00     0.018 A 
HETATM    6  C   LIG     1      16.809  38.373  22.885  1.00  0.00     0.002 A 
HETATM    7  C   LIG     1      16.138  37.170  22.638  1.00  0.00     0.018 A 
ENDROOT
BRANCH   1   8
HETATM    8  C   LIG     1      15.797  35.092  21.277  1.00  0.00     0.176 C 
HETATM    9  O   LIG     1      14.663  34.870  21.783  1.00  0.00    -0.646 OA
BRANCH   8  10
HETATM   10  O   LIG     1      16.379  34.124  20.462  1.00  0.00    -0.773 OA
HETATM   11  H   LIG     1      16.351  33.144  20.716  1.00  0.00     0.167 HD
ENDBRANCH   8  10
ENDBRANCH   1   8
TORSDOF 2
ENDMDL
MODEL 8
REMARK VINA RESULT:      -5.4      4.370      5.444
REMARK  2 active torsions:
REMARK  status: ('A' for Active; 'I' for Inactive)
REMARK    1  A    between atoms: C_2  and  C_3 
REMARK    2  A    between atoms: C_2  and  O_10 
ROOT
HETATM    1  C   LIG     1      17.294  36.204  23.797  1.00  0.00     0.038 A 
HETATM    2  C   LIG     1      17.804  37.357  23.172  1.00  0.00     0.036 A 
HETATM    3  C   LIG     1      17.830  37.452  21.776  1.00  0.00     0.007 A 
HETATM    4  I   LIG     1      18.597  39.186  20.851  1.00  0.00    -0.045 I 
HETATM    5  C   LIG     1      17.348  36.399  20.993  1.00  0.00     0.018 A 
HETATM    6  C   LIG     1      16.841  35.251  21.604  1.00  0.00     0.002 A 
HETATM    7  C   LIG     1      16.812  35.151  22.999  1.00  0.00     0.018 A 
ENDROOT
BRANCH   1   8
HETATM    8  C   LIG     1      17.267  36.106  25.273  1.00  0.00     0.176 C 
HETATM    9  O   LIG     1      17.212  34.980  25.838  1.00  0.00    -0.646 OA
BRANCH   8  10
HETATM   10  O   LIG     1      17.304  37.258  26.055  1.00  0.00    -0.773 OA
HETATM   11  H   LIG     1      18.126  37.492  26.599  1.00  0.00     0.167 HD
ENDBRANCH   8  10
ENDBRANCH   1   8
TORSDOF 2
ENDMDL
MODEL 9
REMARK VINA RESULT:      -5.3      3.103      4.031
REMARK  2 active torsions:
REMARK  status: ('A' for Active; 'I' for Inactive)
REMARK    1  A    between atoms: C_2  and  C_3 
REMARK    2  A    between atoms: C_2  and  O_10 
ROOT
HETATM    1  C   LIG     1      17.064  37.627  22.794  1.00  0.00     0.038 A 
HETATM    2  C   LIG     1      17.389  37.167  24.083  1.00  0.00     0.036 A 
HETATM    3  C   LIG     1      17.376  35.798  24.371  1.00  0.00     0.007 A 
HETATM    4  I   LIG     1      17.864  35.123  26.308  1.00  0.00    -0.045 I 
HETATM    5  C   LIG     1      17.038  34.877  23.375  1.00  0.00     0.018 A 
HETATM    6  C   LIG     1      16.714  35.323  22.092  1.00  0.00     0.002 A 
HETATM    7  C   LIG     1      16.727  36.691  21.800  1.00  0.00     0.018 A 
ENDROOT
BRANCH   1   8
HETATM    8  C   LIG     1      17.079  39.075  22.492  1.00  0.00     0.176 C 
HETATM    9  O   LIG     1      16.109  39.808  22.824  1.00  0.00    -0.646 OA
BRANCH   8  10
HETATM   10  O   LIG     1      18.169  39.645  21.837  1.00  0.00    -0.773 OA
HETATM   11  H   LIG     1      18.944  40.036  22.359  1.00  0.00     0.167 HD
ENDBRANCH   8  10
ENDBRANCH   1   8
TORSDOF 2
ENDMDL
MODEL 10
REMARK VINA RESULT:      -5.3      8.286      9.574
REMARK  2 active torsions:
REMARK  status: ('A' for Active; 'I' for Inactive)
REMARK    1  A    between atoms: C_2  and  C_3 
REMARK    2  A    between atoms: C_2  and  O_10 
ROOT
HETATM    1  C   LIG     1      15.024  31.893  16.081  1.00  0.00     0.038 A 
HETATM    2  C   LIG     1      15.993  32.662  15.410  1.00  0.00     0.036 A 
HETATM    3  C   LIG     1      16.357  32.352  14.095  1.00  0.00     0.007 A 
HETATM    4  I   LIG     1      17.811  33.512  13.102  1.00  0.00    -0.045 I 
HETATM    5  C   LIG     1      15.757  31.273  13.439  1.00  0.00     0.018 A 
HETATM    6  C   LIG     1      14.794  30.504  14.096  1.00  0.00     0.002 A 
HETATM    7  C   LIG     1      14.427  30.810  15.410  1.00  0.00     0.018 A 
ENDROOT
BRANCH   1   8
HETATM    8  C   LIG     1      14.641  32.223  17.472  1.00  0.00     0.176 C 
HETATM    9  O   LIG     1      15.078  33.268  18.025  1.00  0.00    -0.646 OA
BRANCH   8  10
HETATM   10  O   LIG     1      13.790  31.381  18.184  1.00  0.00    -0.773 OA
HETATM   11  H   LIG     1      13.976  31.152  19.153  1.00  0.00     0.167 HD
ENDBRANCH   8  10
ENDBRANCH   1   8
TORSDOF 2
ENDMDL
MODEL 11
REMARK VINA RESULT:      -5.3      7.932      9.019
REMARK  2 active torsions:
REMARK  status: ('A' for Active; 'I' for Inactive)
REMARK    1  A    between atoms: C_2  and  C_3 
REMARK    2  A    between atoms: C_2  and  O_10 
ROOT
HETATM    1  C   LIG     1      16.458  32.490  13.949  1.00  0.00     0.038 A 
HETATM    2  C   LIG     1      16.166  32.759  15.298  1.00  0.00     0.036 A 
HETATM    3  C   LIG     1      15.251  31.964  15.997  1.00  0.00     0.007 A 
HETATM    4  I   LIG     1      14.823  32.379  18.020  1.00  0.00    -0.045 I 
HETATM    5  C   LIG     1      14.621  30.894  15.356  1.00  0.00     0.018 A 
HETATM    6  C   LIG     1      14.903  30.619  14.016  1.00  0.00     0.002 A 
HETATM    7  C   LIG     1      15.817  31.411  13.314  1.00  0.00     0.018 A 
ENDROOT
BRANCH   1   8
HETATM    8  C   LIG     1      17.426  33.332  13.212  1.00  0.00     0.176 C 
HETATM    9  O   LIG     1      17.540  34.559  13.479  1.00  0.00    -0.646 OA
BRANCH   8  10
HETATM   10  O   LIG     1      18.223  32.776  12.213  1.00  0.00    -0.773 OA
HETATM   11  H   LIG     1      19.156  32.441  12.419  1.00  0.00     0.167 HD
ENDBRANCH   8  10
ENDBRANCH   1   8
TORSDOF 2
ENDMDL
MODEL 12
REMARK VINA RESULT:      -5.2      9.789     10.972
REMARK  2 active torsions:
REMARK  status: ('A' for Active; 'I' for Inactive)
REMARK    1  A    between atoms: C_2  and  C_3 
REMARK    2  A    between atoms: C_2  and  O_10 
ROOT
HETATM    1  C   LIG     1      14.493  30.009  14.289  1.00  0.00     0.038 A 
HETATM    2  C   LIG     1      14.349  30.602  15.557  1.00  0.00     0.036 A 
HETATM    3  C   LIG     1      15.043  31.775  15.873  1.00  0.00     0.007 A 
HETATM    4  I   LIG     1      14.819  32.651  17.778  1.00  0.00    -0.045 I 
HETATM    5  C   LIG     1      15.885  32.366  14.928  1.00  0.00     0.018 A 
HETATM    6  C   LIG     1      16.035  31.787  13.666  1.00  0.00     0.002 A 
HETATM    7  C   LIG     1      15.343  30.615  13.345  1.00  0.00     0.018 A 
ENDROOT
BRANCH   1   8
HETATM    8  C   LIG     1      13.758  28.769  13.956  1.00  0.00     0.176 C 
HETATM    9  O   LIG     1      14.380  27.691  13.755  1.00  0.00    -0.646 OA
BRANCH   8  10
HETATM   10  O   LIG     1      12.368  28.780  13.862  1.00  0.00    -0.773 OA
HETATM   11  H   LIG     1      11.880  29.567  13.450  1.00  0.00     0.167 HD
ENDBRANCH   8  10
ENDBRANCH   1   8
TORSDOF 2
ENDMDL
MODEL 13
REMARK VINA RESULT:      -5.1      7.560      8.599
REMARK  2 active torsions:
REMARK  status: ('A' for Active; 'I' for Inactive)
REMARK    1  A    between atoms: C_2  and  C_3 
REMARK    2  A    between atoms: C_2  and  O_10 
ROOT
HETATM    1  C   LIG     1      15.622  32.044  15.312  1.00  0.00     0.038 A 
HETATM    2  C   LIG     1      15.804  32.405  16.660  1.00  0.00     0.036 A 
HETATM    3  C   LIG     1      14.912  31.955  17.640  1.00  0.00     0.007 A 
HETATM    4  I   LIG     1      15.197  32.504  19.656  1.00  0.00    -0.045 I 
HETATM    5  C   LIG     1      13.833  31.142  17.284  1.00  0.00     0.018 A 
HETATM    6  C   LIG     1      13.643  30.778  15.949  1.00  0.00     0.002 A 
HETATM    7  C   LIG     1      14.532  31.225  14.966  1.00  0.00     0.018 A 
ENDROOT
BRANCH   1   8
HETATM    8  C   LIG     1      16.566  32.521  14.277  1.00  0.00     0.176 C 
HETATM    9  O   LIG     1      17.786  32.680  14.550  1.00  0.00    -0.646 OA
BRANCH   8  10
HETATM   10  O   LIG     1      16.114  32.797  12.989  1.00  0.00    -0.773 OA
HETATM   11  H   LIG     1      16.488  32.300  12.189  1.00  0.00     0.167 HD
ENDBRANCH   8  10
ENDBRANCH   1   8
TORSDOF 2
ENDMDL
MODEL 14
REMARK VINA RESULT:      -5.0      8.990     10.066
REMARK  2 active torsions:
REMARK  status: ('A' for Active; 'I' for Inactive)
REMARK    1  A    between atoms: C_2  and  C_3 
REMARK    2  A    between atoms: C_2  and  O_10 
ROOT
HETATM    1  C   LIG     1      14.665  30.698  14.725  1.00  0.00     0.038 A 
HETATM    2  C   LIG     1      15.167  31.810  15.424  1.00  0.00     0.036 A 
HETATM    3  C   LIG     1      14.470  32.333  16.520  1.00  0.00     0.007 A 
HETATM    4  I   LIG     1      15.235  34.001  17.558  1.00  0.00    -0.045 I 
HETATM    5  C   LIG     1      13.267  31.749  16.925  1.00  0.00     0.018 A 
HETATM    6  C   LIG     1      12.759  30.645  16.239  1.00  0.00     0.002 A 
HETATM    7  C   LIG     1      13.452  30.119  15.144  1.00  0.00     0.018 A 
ENDROOT
BRANCH   1   8
HETATM    8  C   LIG     1      15.403  30.147  13.568  1.00  0.00     0.176 C 
HETATM    9  O   LIG     1      16.210  30.869  12.921  1.00  0.00    -0.646 OA
BRANCH   8  10
HETATM   10  O   LIG     1      15.216  28.822  13.181  1.00  0.00    -0.773 OA
HETATM   11  H   LIG     1      14.432  28.556  12.597  1.00  0.00     0.167 HD
ENDBRANCH   8  10
ENDBRANCH   1   8
TORSDOF 2
ENDMDL
MODEL 15
REMARK VINA RESULT:      -4.9      7.886      8.743
REMARK  2 active torsions:
REMARK  status: ('A' for Active; 'I' for Inactive)
REMARK    1  A    between atoms: C_2  and  C_3 
REMARK    2  A    between atoms: C_2  and  O_10 
ROOT
HETATM    1  C   LIG     1      15.788  32.393  15.551  1.00  0.00     0.038 A 
HETATM    2  C   LIG     1      15.368  31.271  14.813  1.00  0.00     0.036 A 
HETATM    3  C   LIG     1      14.247  30.537  15.217  1.00  0.00     0.007 A 
HETATM    4  I   LIG     1      13.629  28.857  14.102  1.00  0.00    -0.045 I 
HETATM    5  C   LIG     1      13.538  30.916  16.360  1.00  0.00     0.018 A 
HETATM    6  C   LIG     1      13.946  32.028  17.099  1.00  0.00     0.002 A 
HETATM    7  C   LIG     1      15.065  32.765  16.699  1.00  0.00     0.018 A 
ENDROOT
BRANCH   1   8
HETATM    8  C   LIG     1      16.973  33.168  15.122  1.00  0.00     0.176 C 
HETATM    9  O   LIG     1      16.849  34.357  14.721  1.00  0.00    -0.646 OA
BRANCH   8  10
HETATM   10  O   LIG     1      18.241  32.591  15.158  1.00  0.00    -0.773 OA
HETATM   11  H   LIG     1      18.547  32.058  15.963  1.00  0.00     0.167 HD
ENDBRANCH   8  10
ENDBRANCH   1   8
TORSDOF 2
ENDMDL
MODEL 16
REMARK VINA RESULT:      -4.6      9.282     10.292
REMARK  2 active torsions:
REMARK  status: ('A' for Active; 'I' for Inactive)
REMARK    1  A    between atoms: C_2  and  C_3 
REMARK    2  A    between atoms: C_2  and  O_10 
ROOT
HETATM    1  C   LIG     1      15.120  31.340  15.044  1.00  0.00     0.038 A 
HETATM    2  C   LIG     1      15.614  30.254  14.298  1.00  0.00     0.036 A 
HETATM    3  C   LIG     1      14.798  29.149  14.031  1.00  0.00     0.007 A 
HETATM    4  I   LIG     1      15.552  27.528  12.913  1.00  0.00    -0.045 I 
HETATM    5  C   LIG     1      13.484  29.119  14.505  1.00  0.00     0.018 A 
HETATM    6  C   LIG     1      12.983  30.191  15.246  1.00  0.00     0.002 A 
HETATM    7  C   LIG     1      13.795  31.298  15.515  1.00  0.00     0.018 A 
ENDROOT
BRANCH   1   8
HETATM    8  C   LIG     1      15.984  32.508  15.325  1.00  0.00     0.176 C 
HETATM    9  O   LIG     1      16.425  33.218  14.382  1.00  0.00    -0.646 OA
BRANCH   8  10
HETATM   10  O   LIG     1      16.317  32.835  16.637  1.00  0.00    -0.773 OA
HETATM   11  H   LIG     1      17.028  33.528  16.836  1.00  0.00     0.167 HD
ENDBRANCH   8  10
ENDBRANCH   1   8
TORSDOF 2
ENDMDL
MODEL 17
REMARK VINA RESULT:      -4.1      8.857     10.192
REMARK  2 active torsions:
REMARK  status: ('A' for Active; 'I' for Inactive)
REMARK    1  A    between atoms: C_2  and  C_3 
REMARK    2  A    between atoms: C_2  and  O_10 
ROOT
HETATM    1  C   LIG     1      18.190  34.139  12.675  1.00  0.00     0.038 A 
HETATM    2  C   LIG     1      19.091  33.197  12.146  1.00  0.00     0.036 A 
HETATM    3  C   LIG     1      19.544  33.314  10.827  1.00  0.00     0.007 A 
HETATM    4  I   LIG     1      20.894  31.894  10.047  1.00  0.00    -0.045 I 
HETATM    5  C   LIG     1      19.104  34.371  10.027  1.00  0.00     0.018 A 
HETATM    6  C   LIG     1      18.210  35.312  10.542  1.00  0.00     0.002 A 
HETATM    7  C   LIG     1      17.754  35.199  11.860  1.00  0.00     0.018 A 
ENDROOT
BRANCH   1   8
HETATM    8  C   LIG     1      17.711  34.014  14.069  1.00  0.00     0.176 C 
HETATM    9  O   LIG     1      17.666  32.886  14.631  1.00  0.00    -0.646 OA
BRANCH   8  10
HETATM   10  O   LIG     1      17.306  35.143  14.777  1.00  0.00    -0.773 OA
HETATM   11  H   LIG     1      16.391  35.186  15.209  1.00  0.00     0.167 HD
ENDBRANCH   8  10
ENDBRANCH   1   8
TORSDOF 2
ENDMDL
MODEL 18
REMARK VINA RESULT:      -3.9     18.802     19.265
REMARK  2 active torsions:
REMARK  status: ('A' for Active; 'I' for Inactive)
REMARK    1  A    between atoms: C_2  and  C_3 
REMARK    2  A    between atoms: C_2  and  O_10 
ROOT
HETATM    1  C   LIG     1      26.845  30.481  35.919  1.00  0.00     0.038 A 
HETATM    2  C   LIG     1      26.505  29.354  35.150  1.00  0.00     0.036 A 
HETATM    3  C   LIG     1      27.209  29.057  33.977  1.00  0.00     0.007 A 
HETATM    4  I   LIG     1      26.688  27.363  32.834  1.00  0.00    -0.045 I 
HETATM    5  C   LIG     1      28.258  29.883  33.563  1.00  0.00     0.018 A 
HETATM    6  C   LIG     1      28.603  31.005  34.319  1.00  0.00     0.002 A 
HETATM    7  C   LIG     1      27.903  31.305  35.492  1.00  0.00     0.018 A 
ENDROOT
BRANCH   1   8
HETATM    8  C   LIG     1      26.099  30.793  37.158  1.00  0.00     0.176 C 
HETATM    9  O   LIG     1      26.197  31.929  37.695  1.00  0.00    -0.646 OA
BRANCH   8  10
HETATM   10  O   LIG     1      25.279  29.832  37.745  1.00  0.00    -0.773 OA
HETATM   11  H   LIG     1      25.267  28.878  37.402  1.00  0.00     0.167 HD
ENDBRANCH   8  10
ENDBRANCH   1   8
TORSDOF 2
ENDMDL
MODEL 19
REMARK VINA RESULT:      -3.7     18.540     19.094
REMARK  2 active torsions:
REMARK  status: ('A' for Active; 'I' for Inactive)
REMARK    1  A    between atoms: C_2  and  C_3 
REMARK    2  A    between atoms: C_2  and  O_10 
ROOT
HETATM    1  C   LIG     1      27.079  28.794  34.189  1.00  0.00     0.038 A 
HETATM    2  C   LIG     1      26.685  29.418  35.387  1.00  0.00     0.036 A 
HETATM    3  C   LIG     1      27.277  30.621  35.787  1.00  0.00     0.007 A 
HETATM    4  I   LIG     1      26.677  31.544  37.585  1.00  0.00    -0.045 I 
HETATM    5  C   LIG     1      28.265  31.212  34.995  1.00  0.00     0.018 A 
HETATM    6  C   LIG     1      28.664  30.601  33.804  1.00  0.00     0.002 A 
HETATM    7  C   LIG     1      28.075  29.399  33.400  1.00  0.00     0.018 A 
ENDROOT
BRANCH   1   8
HETATM    8  C   LIG     1      26.453  27.522  33.768  1.00  0.00     0.176 C 
HETATM    9  O   LIG     1      26.508  26.505  34.510  1.00  0.00    -0.646 OA
BRANCH   8  10
HETATM   10  O   LIG     1      25.792  27.435  32.544  1.00  0.00    -0.773 OA
HETATM   11  H   LIG     1      25.117  28.138  32.266  1.00  0.00     0.167 HD
ENDBRANCH   8  10
ENDBRANCH   1   8
TORSDOF 2
ENDMDL
MODEL 20
REMARK VINA RESULT:      -3.6     19.104     19.835
REMARK  2 active torsions:
REMARK  status: ('A' for Active; 'I' for Inactive)
REMARK    1  A    between atoms: C_2  and  C_3 
REMARK    2  A    between atoms: C_2  and  O_10 
ROOT
HETATM    1  C   LIG     1      21.621  18.802  17.424  1.00  0.00     0.038 A 
HETATM    2  C   LIG     1      22.459  19.930  17.496  1.00  0.00     0.036 A 
HETATM    3  C   LIG     1      23.209  20.183  18.650  1.00  0.00     0.007 A 
HETATM    4  I   LIG     1      24.460  21.878  18.744  1.00  0.00    -0.045 I 
HETATM    5  C   LIG     1      23.129  19.313  19.741  1.00  0.00     0.018 A 
HETATM    6  C   LIG     1      22.301  18.190  19.680  1.00  0.00     0.002 A 
HETATM    7  C   LIG     1      21.550  17.933  18.529  1.00  0.00     0.018 A 
ENDROOT
BRANCH   1   8
HETATM    8  C   LIG     1      20.830  18.536  16.203  1.00  0.00     0.176 C 
HETATM    9  O   LIG     1      19.610  18.228  16.286  1.00  0.00    -0.646 OA
BRANCH   8  10
HETATM   10  O   LIG     1      21.425  18.624  14.947  1.00  0.00    -0.773 OA
HETATM   11  H   LIG     1      21.295  17.893  14.257  1.00  0.00     0.167 HD
ENDBRANCH   8  10
ENDBRANCH   1   8
TORSDOF 2
ENDMDL
