MODEL 1
REMARK VINA RESULT:      -6.6      0.000      0.000
REMARK  3 active torsions:
REMARK  status: ('A' for Active; 'I' for Inactive)
REMARK    1  A    between atoms: C_2  and  C_3 
REMARK    2  A    between atoms: C_2  and  O_10 
REMARK    3  A    between atoms: C_6  and  N_7 
ROOT
HETATM    1  C   LIG     1      17.523  37.710  21.528  1.00  0.00     0.039 A 
HETATM    2  C   LIG     1      18.103  36.883  20.549  1.00  0.00     0.020 A 
HETATM    3  C   LIG     1      19.089  37.383  19.694  1.00  0.00     0.030 A 
HETATM    4  C   LIG     1      19.510  38.714  19.802  1.00  0.00     0.025 A 
HETATM    5  C   LIG     1      18.937  39.543  20.775  1.00  0.00     0.030 A 
HETATM    6  C   LIG     1      17.950  39.045  21.633  1.00  0.00     0.020 A 
ENDROOT
BRANCH   1   7
HETATM    7  C   LIG     1      16.478  37.187  22.437  1.00  0.00     0.292 C 
HETATM    8  O   LIG     1      15.804  36.171  22.110  1.00  0.00    -0.259 OA
BRANCH   7   9
HETATM    9  O   LIG     1      16.238  37.821  23.661  1.00  0.00    -0.323 OA
HETATM   10  C   LIG     1      16.990  37.535  24.835  1.00  0.00     0.213 C 
ENDBRANCH   7   9
ENDBRANCH   1   7
BRANCH   4  11
HETATM   11  N   LIG     1      20.520  39.224  18.927  1.00  0.00    -0.399 N 
HETATM   12  H   LIG     1      20.731  40.246  18.894  1.00  0.00     0.156 HD
HETATM   13  H   LIG     1      21.063  38.585  18.306  1.00  0.00     0.156 HD
ENDBRANCH   4  11
TORSDOF 3
ENDMDL
MODEL 2
REMARK VINA RESULT:      -6.6      0.581      1.569
REMARK  3 active torsions:
REMARK  status: ('A' for Active; 'I' for Inactive)
REMARK    1  A    between atoms: C_2  and  C_3 
REMARK    2  A    between atoms: C_2  and  O_10 
REMARK    3  A    between atoms: C_6  and  N_7 
ROOT
HETATM    1  C   LIG     1      17.648  37.449  21.393  1.00  0.00     0.039 A 
HETATM    2  C   LIG     1      17.972  38.806  21.572  1.00  0.00     0.020 A 
HETATM    3  C   LIG     1      18.890  39.434  20.725  1.00  0.00     0.030 A 
HETATM    4  C   LIG     1      19.499  38.716  19.688  1.00  0.00     0.025 A 
HETATM    5  C   LIG     1      19.182  37.364  19.503  1.00  0.00     0.030 A 
HETATM    6  C   LIG     1      18.262  36.734  20.350  1.00  0.00     0.020 A 
ENDROOT
BRANCH   1   7
HETATM    7  C   LIG     1      16.677  36.779  22.287  1.00  0.00     0.292 C 
HETATM    8  O   LIG     1      15.499  36.558  21.889  1.00  0.00    -0.259 OA
BRANCH   7   9
HETATM    9  O   LIG     1      17.066  36.392  23.574  1.00  0.00    -0.323 OA
HETATM   10  C   LIG     1      16.996  37.267  24.693  1.00  0.00     0.213 C 
ENDBRANCH   7   9
ENDBRANCH   1   7
BRANCH   4  11
HETATM   11  N   LIG     1      20.438  39.359  18.821  1.00  0.00    -0.399 N 
HETATM   12  H   LIG     1      20.286  40.342  18.504  1.00  0.00     0.156 HD
HETATM   13  H   LIG     1      21.292  38.856  18.490  1.00  0.00     0.156 HD
ENDBRANCH   4  11
TORSDOF 3
ENDMDL
MODEL 3
REMARK VINA RESULT:      -6.1      3.530      4.983
REMARK  3 active torsions:
REMARK  status: ('A' for Active; 'I' for Inactive)
REMARK    1  A    between atoms: C_2  and  C_3 
REMARK    2  A    between atoms: C_2  and  O_10 
REMARK    3  A    between atoms: C_6  and  N_7 
ROOT
HETATM    1  C   LIG     1      18.663  38.350  20.083  1.00  0.00     0.039 A 
HETATM    2  C   LIG     1      18.160  38.886  21.283  1.00  0.00     0.020 A 
HETATM    3  C   LIG     1      17.473  38.072  22.189  1.00  0.00     0.030 A 
HETATM    4  C   LIG     1      17.278  36.713  21.911  1.00  0.00     0.025 A 
HETATM    5  C   LIG     1      17.777  36.173  20.718  1.00  0.00     0.030 A 
HETATM    6  C   LIG     1      18.465  36.985  19.811  1.00  0.00     0.020 A 
ENDROOT
BRANCH   1   7
HETATM    7  C   LIG     1      19.391  39.206  19.120  1.00  0.00     0.292 C 
HETATM    8  O   LIG     1      20.646  39.321  19.198  1.00  0.00    -0.259 OA
BRANCH   7   9
HETATM    9  O   LIG     1      18.686  39.889  18.123  1.00  0.00    -0.323 OA
HETATM   10  C   LIG     1      18.829  39.589  16.739  1.00  0.00     0.213 C 
ENDBRANCH   7   9
ENDBRANCH   1   7
BRANCH   4  11
HETATM   11  N   LIG     1      16.575  35.881  22.838  1.00  0.00    -0.399 N 
HETATM   12  H   LIG     1      17.057  35.497  23.681  1.00  0.00     0.156 HD
HETATM   13  H   LIG     1      15.570  35.644  22.689  1.00  0.00     0.156 HD
ENDBRANCH   4  11
TORSDOF 3
ENDMDL
MODEL 4
REMARK VINA RESULT:      -6.0      3.556      4.747
REMARK  3 active torsions:
REMARK  status: ('A' for Active; 'I' for Inactive)
REMARK    1  A    between atoms: C_2  and  C_3 
REMARK    2  A    between atoms: C_2  and  O_10 
REMARK    3  A    between atoms: C_6  and  N_7 
ROOT
HETATM    1  C   LIG     1      16.666  35.902  22.298  1.00  0.00     0.039 A 
HETATM    2  C   LIG     1      16.622  37.307  22.343  1.00  0.00     0.020 A 
HETATM    3  C   LIG     1      16.922  37.988  23.527  1.00  0.00     0.030 A 
HETATM    4  C   LIG     1      17.269  37.277  24.682  1.00  0.00     0.025 A 
HETATM    5  C   LIG     1      17.315  35.877  24.645  1.00  0.00     0.030 A 
HETATM    6  C   LIG     1      17.016  35.194  23.461  1.00  0.00     0.020 A 
ENDROOT
BRANCH   1   7
HETATM    7  C   LIG     1      16.351  35.175  21.048  1.00  0.00     0.292 C 
HETATM    8  O   LIG     1      16.874  35.533  19.957  1.00  0.00    -0.259 OA
BRANCH   7   9
HETATM    9  O   LIG     1      15.469  34.088  21.077  1.00  0.00    -0.323 OA
HETATM   10  C   LIG     1      15.469  33.073  20.081  1.00  0.00     0.213 C 
ENDBRANCH   7   9
ENDBRANCH   1   7
BRANCH   4  11
HETATM   11  N   LIG     1      17.576  37.974  25.893  1.00  0.00    -0.399 N 
HETATM   12  H   LIG     1      16.819  38.413  26.463  1.00  0.00     0.156 HD
HETATM   13  H   LIG     1      18.561  38.057  26.228  1.00  0.00     0.156 HD
ENDBRANCH   4  11
TORSDOF 3
ENDMDL
MODEL 5
REMARK VINA RESULT:      -6.0      8.333      9.441
REMARK  3 active torsions:
REMARK  status: ('A' for Active; 'I' for Inactive)
REMARK    1  A    between atoms: C_2  and  C_3 
REMARK    2  A    between atoms: C_2  and  O_10 
REMARK    3  A    between atoms: C_6  and  N_7 
ROOT
HETATM    1  C   LIG     1      14.532  32.189  16.369  1.00  0.00     0.039 A 
HETATM    2  C   LIG     1      13.268  31.643  16.658  1.00  0.00     0.020 A 
HETATM    3  C   LIG     1      12.776  30.565  15.918  1.00  0.00     0.030 A 
HETATM    4  C   LIG     1      13.537  30.016  14.878  1.00  0.00     0.025 A 
HETATM    5  C   LIG     1      14.796  30.554  14.584  1.00  0.00     0.030 A 
HETATM    6  C   LIG     1      15.291  31.633  15.324  1.00  0.00     0.020 A 
ENDROOT
BRANCH   1   7
HETATM    7  C   LIG     1      15.059  33.331  17.149  1.00  0.00     0.292 C 
HETATM    8  O   LIG     1      14.924  34.510  16.717  1.00  0.00    -0.259 OA
BRANCH   7   9
HETATM    9  O   LIG     1      15.707  33.103  18.368  1.00  0.00    -0.323 OA
HETATM   10  C   LIG     1      15.158  32.276  19.387  1.00  0.00     0.213 C 
ENDBRANCH   7   9
ENDBRANCH   1   7
BRANCH   4  11
HETATM   11  N   LIG     1      13.032  28.912  14.121  1.00  0.00    -0.399 N 
HETATM   12  H   LIG     1      12.993  28.953  13.078  1.00  0.00     0.156 HD
HETATM   13  H   LIG     1      12.695  28.046  14.597  1.00  0.00     0.156 HD
ENDBRANCH   4  11
TORSDOF 3
ENDMDL
MODEL 6
REMARK VINA RESULT:      -5.9      9.089     10.434
REMARK  3 active torsions:
REMARK  status: ('A' for Active; 'I' for Inactive)
REMARK    1  A    between atoms: C_2  and  C_3 
REMARK    2  A    between atoms: C_2  and  O_10 
REMARK    3  A    between atoms: C_6  and  N_7 
ROOT
HETATM    1  C   LIG     1      15.277  31.702  15.247  1.00  0.00     0.039 A 
HETATM    2  C   LIG     1      15.615  30.887  14.151  1.00  0.00     0.020 A 
HETATM    3  C   LIG     1      14.774  29.841  13.760  1.00  0.00     0.030 A 
HETATM    4  C   LIG     1      13.585  29.592  14.457  1.00  0.00     0.025 A 
HETATM    5  C   LIG     1      13.242  30.400  15.549  1.00  0.00     0.030 A 
HETATM    6  C   LIG     1      14.082  31.448  15.942  1.00  0.00     0.020 A 
ENDROOT
BRANCH   1   7
HETATM    7  C   LIG     1      16.163  32.812  15.666  1.00  0.00     0.292 C 
HETATM    8  O   LIG     1      15.693  33.786  16.317  1.00  0.00    -0.259 OA
BRANCH   7   9
HETATM    9  O   LIG     1      17.523  32.780  15.338  1.00  0.00    -0.323 OA
HETATM   10  C   LIG     1      18.078  33.564  14.288  1.00  0.00     0.213 C 
ENDBRANCH   7   9
ENDBRANCH   1   7
BRANCH   4  11
HETATM   11  N   LIG     1      12.725  28.522  14.056  1.00  0.00    -0.399 N 
HETATM   12  H   LIG     1      13.114  27.578  13.838  1.00  0.00     0.156 HD
HETATM   13  H   LIG     1      11.694  28.665  13.975  1.00  0.00     0.156 HD
ENDBRANCH   4  11
TORSDOF 3
ENDMDL
MODEL 7
REMARK VINA RESULT:      -5.9      8.820     10.144
REMARK  3 active torsions:
REMARK  status: ('A' for Active; 'I' for Inactive)
REMARK    1  A    between atoms: C_2  and  C_3 
REMARK    2  A    between atoms: C_2  and  O_10 
REMARK    3  A    between atoms: C_6  and  N_7 
ROOT
HETATM    1  C   LIG     1      15.805  32.152  15.185  1.00  0.00     0.039 A 
HETATM    2  C   LIG     1      15.184  32.628  16.354  1.00  0.00     0.020 A 
HETATM    3  C   LIG     1      14.039  32.000  16.854  1.00  0.00     0.030 A 
HETATM    4  C   LIG     1      13.497  30.890  16.193  1.00  0.00     0.025 A 
HETATM    5  C   LIG     1      14.110  30.411  15.029  1.00  0.00     0.030 A 
HETATM    6  C   LIG     1      15.257  31.037  14.527  1.00  0.00     0.020 A 
ENDROOT
BRANCH   1   7
HETATM    7  C   LIG     1      17.017  32.812  14.651  1.00  0.00     0.292 C 
HETATM    8  O   LIG     1      18.133  32.639  15.215  1.00  0.00    -0.259 OA
BRANCH   7   9
HETATM    9  O   LIG     1      16.925  33.630  13.519  1.00  0.00    -0.323 OA
HETATM   10  C   LIG     1      18.057  33.989  12.736  1.00  0.00     0.213 C 
ENDBRANCH   7   9
ENDBRANCH   1   7
BRANCH   4  11
HETATM   11  N   LIG     1      12.326  30.248  16.705  1.00  0.00    -0.399 N 
HETATM   12  H   LIG     1      12.201  30.103  17.732  1.00  0.00     0.156 HD
HETATM   13  H   LIG     1      11.574  29.913  16.062  1.00  0.00     0.156 HD
ENDBRANCH   4  11
TORSDOF 3
ENDMDL
MODEL 8
REMARK VINA RESULT:      -5.8      9.066     10.413
REMARK  3 active torsions:
REMARK  status: ('A' for Active; 'I' for Inactive)
REMARK    1  A    between atoms: C_2  and  C_3 
REMARK    2  A    between atoms: C_2  and  O_10 
REMARK    3  A    between atoms: C_6  and  N_7 
ROOT
HETATM    1  C   LIG     1      14.457  30.751  15.209  1.00  0.00     0.039 A 
HETATM    2  C   LIG     1      15.546  31.608  14.964  1.00  0.00     0.020 A 
HETATM    3  C   LIG     1      15.779  32.711  15.790  1.00  0.00     0.030 A 
HETATM    4  C   LIG     1      14.929  32.977  16.871  1.00  0.00     0.025 A 
HETATM    5  C   LIG     1      13.842  32.129  17.120  1.00  0.00     0.030 A 
HETATM    6  C   LIG     1      13.608  31.023  16.296  1.00  0.00     0.020 A 
ENDROOT
BRANCH   1   7
HETATM    7  C   LIG     1      14.205  29.581  14.338  1.00  0.00     0.292 C 
HETATM    8  O   LIG     1      13.031  29.137  14.198  1.00  0.00    -0.259 OA
BRANCH   7   9
HETATM    9  O   LIG     1      15.270  28.967  13.670  1.00  0.00    -0.323 OA
HETATM   10  C   LIG     1      15.400  27.554  13.569  1.00  0.00     0.213 C 
ENDBRANCH   7   9
ENDBRANCH   1   7
BRANCH   4  11
HETATM   11  N   LIG     1      15.168  34.107  17.715  1.00  0.00    -0.399 N 
HETATM   12  H   LIG     1      15.888  34.065  18.470  1.00  0.00     0.156 HD
HETATM   13  H   LIG     1      14.628  34.991  17.592  1.00  0.00     0.156 HD
ENDBRANCH   4  11
TORSDOF 3
ENDMDL
MODEL 9
REMARK VINA RESULT:      -5.8      3.157      4.431
REMARK  3 active torsions:
REMARK  status: ('A' for Active; 'I' for Inactive)
REMARK    1  A    between atoms: C_2  and  C_3 
REMARK    2  A    between atoms: C_2  and  O_10 
REMARK    3  A    between atoms: C_6  and  N_7 
ROOT
HETATM    1  C   LIG     1      18.158  37.658  20.745  1.00  0.00     0.039 A 
HETATM    2  C   LIG     1      17.379  36.637  21.321  1.00  0.00     0.020 A 
HETATM    3  C   LIG     1      16.897  36.765  22.626  1.00  0.00     0.030 A 
HETATM    4  C   LIG     1      17.184  37.912  23.376  1.00  0.00     0.025 A 
HETATM    5  C   LIG     1      17.958  38.933  22.810  1.00  0.00     0.030 A 
HETATM    6  C   LIG     1      18.442  38.807  21.503  1.00  0.00     0.020 A 
ENDROOT
BRANCH   1   7
HETATM    7  C   LIG     1      18.672  37.528  19.363  1.00  0.00     0.292 C 
HETATM    8  O   LIG     1      18.498  36.456  18.720  1.00  0.00    -0.259 OA
BRANCH   7   9
HETATM    9  O   LIG     1      19.352  38.598  18.769  1.00  0.00    -0.323 OA
HETATM   10  C   LIG     1      18.851  39.289  17.632  1.00  0.00     0.213 C 
ENDBRANCH   7   9
ENDBRANCH   1   7
BRANCH   4  11
HETATM   11  N   LIG     1      16.689  38.043  24.712  1.00  0.00    -0.399 N 
HETATM   12  H   LIG     1      16.920  37.330  25.439  1.00  0.00     0.156 HD
HETATM   13  H   LIG     1      16.090  38.853  24.984  1.00  0.00     0.156 HD
ENDBRANCH   4  11
TORSDOF 3
ENDMDL
MODEL 10
REMARK VINA RESULT:      -5.7      2.845      3.600
REMARK  3 active torsions:
REMARK  status: ('A' for Active; 'I' for Inactive)
REMARK    1  A    between atoms: C_2  and  C_3 
REMARK    2  A    between atoms: C_2  and  O_10 
REMARK    3  A    between atoms: C_6  and  N_7 
ROOT
HETATM    1  C   LIG     1      16.818  37.394  22.086  1.00  0.00     0.039 A 
HETATM    2  C   LIG     1      17.664  36.888  21.082  1.00  0.00     0.020 A 
HETATM    3  C   LIG     1      17.236  35.849  20.251  1.00  0.00     0.030 A 
HETATM    4  C   LIG     1      15.957  35.300  20.409  1.00  0.00     0.025 A 
HETATM    5  C   LIG     1      15.109  35.798  21.406  1.00  0.00     0.030 A 
HETATM    6  C   LIG     1      15.536  36.838  22.239  1.00  0.00     0.020 A 
ENDROOT
BRANCH   1   7
HETATM    7  C   LIG     1      17.266  38.493  22.970  1.00  0.00     0.292 C 
HETATM    8  O   LIG     1      18.118  39.330  22.558  1.00  0.00    -0.259 OA
BRANCH   7   9
HETATM    9  O   LIG     1      16.744  38.605  24.263  1.00  0.00    -0.323 OA
HETATM   10  C   LIG     1      17.327  37.953  25.385  1.00  0.00     0.213 C 
ENDBRANCH   7   9
ENDBRANCH   1   7
BRANCH   4  11
HETATM   11  N   LIG     1      15.519  34.237  19.558  1.00  0.00    -0.399 N 
HETATM   12  H   LIG     1      14.946  34.436  18.708  1.00  0.00     0.156 HD
HETATM   13  H   LIG     1      15.764  33.245  19.771  1.00  0.00     0.156 HD
ENDBRANCH   4  11
TORSDOF 3
ENDMDL
MODEL 11
REMARK VINA RESULT:      -5.7      3.130      4.632
REMARK  3 active torsions:
REMARK  status: ('A' for Active; 'I' for Inactive)
REMARK    1  A    between atoms: C_2  and  C_3 
REMARK    2  A    between atoms: C_2  and  O_10 
REMARK    3  A    between atoms: C_6  and  N_7 
ROOT
HETATM    1  C   LIG     1      17.467  37.663  21.513  1.00  0.00     0.039 A 
HETATM    2  C   LIG     1      16.303  37.826  22.286  1.00  0.00     0.020 A 
HETATM    3  C   LIG     1      15.307  36.845  22.283  1.00  0.00     0.030 A 
HETATM    4  C   LIG     1      15.458  35.687  21.509  1.00  0.00     0.025 A 
HETATM    5  C   LIG     1      16.614  35.518  20.737  1.00  0.00     0.030 A 
HETATM    6  C   LIG     1      17.613  36.498  20.739  1.00  0.00     0.020 A 
ENDROOT
BRANCH   1   7
HETATM    7  C   LIG     1      18.525  38.697  21.512  1.00  0.00     0.292 C 
HETATM    8  O   LIG     1      19.049  39.069  22.599  1.00  0.00    -0.259 OA
BRANCH   7   9
HETATM    9  O   LIG     1      18.944  39.265  20.303  1.00  0.00    -0.323 OA
HETATM   10  C   LIG     1      20.159  38.896  19.662  1.00  0.00     0.213 C 
ENDBRANCH   7   9
ENDBRANCH   1   7
BRANCH   4  11
HETATM   11  N   LIG     1      14.438  34.684  21.507  1.00  0.00    -0.399 N 
HETATM   12  H   LIG     1      13.441  34.935  21.687  1.00  0.00     0.156 HD
HETATM   13  H   LIG     1      14.673  33.683  21.324  1.00  0.00     0.156 HD
ENDBRANCH   4  11
TORSDOF 3
ENDMDL
MODEL 12
REMARK VINA RESULT:      -5.2      7.596      8.637
REMARK  3 active torsions:
REMARK  status: ('A' for Active; 'I' for Inactive)
REMARK    1  A    between atoms: C_2  and  C_3 
REMARK    2  A    between atoms: C_2  and  O_10 
REMARK    3  A    between atoms: C_6  and  N_7 
ROOT
HETATM    1  C   LIG     1      14.971  31.865  16.182  1.00  0.00     0.039 A 
HETATM    2  C   LIG     1      15.848  32.966  16.165  1.00  0.00     0.020 A 
HETATM    3  C   LIG     1      16.594  33.260  15.021  1.00  0.00     0.030 A 
HETATM    4  C   LIG     1      16.477  32.461  13.877  1.00  0.00     0.025 A 
HETATM    5  C   LIG     1      15.607  31.364  13.885  1.00  0.00     0.030 A 
HETATM    6  C   LIG     1      14.858  31.068  15.030  1.00  0.00     0.020 A 
ENDROOT
BRANCH   1   7
HETATM    7  C   LIG     1      14.178  31.548  17.390  1.00  0.00     0.292 C 
HETATM    8  O   LIG     1      13.231  30.715  17.326  1.00  0.00    -0.259 OA
BRANCH   7   9
HETATM    9  O   LIG     1      14.478  32.174  18.606  1.00  0.00    -0.323 OA
HETATM   10  C   LIG     1      14.847  31.448  19.772  1.00  0.00     0.213 C 
ENDBRANCH   7   9
ENDBRANCH   1   7
BRANCH   4  11
HETATM   11  N   LIG     1      17.241  32.763  12.706  1.00  0.00    -0.399 N 
HETATM   12  H   LIG     1      18.252  33.015  12.778  1.00  0.00     0.156 HD
HETATM   13  H   LIG     1      16.802  32.737  11.759  1.00  0.00     0.156 HD
ENDBRANCH   4  11
TORSDOF 3
ENDMDL
MODEL 13
REMARK VINA RESULT:      -5.0      8.868     10.315
REMARK  3 active torsions:
REMARK  status: ('A' for Active; 'I' for Inactive)
REMARK    1  A    between atoms: C_2  and  C_3 
REMARK    2  A    between atoms: C_2  and  O_10 
REMARK    3  A    between atoms: C_6  and  N_7 
ROOT
HETATM    1  C   LIG     1      16.529  32.675  14.222  1.00  0.00     0.039 A 
HETATM    2  C   LIG     1      15.963  31.600  13.513  1.00  0.00     0.020 A 
HETATM    3  C   LIG     1      14.974  30.806  14.100  1.00  0.00     0.030 A 
HETATM    4  C   LIG     1      14.536  31.072  15.404  1.00  0.00     0.025 A 
HETATM    5  C   LIG     1      15.096  32.141  16.116  1.00  0.00     0.030 A 
HETATM    6  C   LIG     1      16.085  32.938  15.530  1.00  0.00     0.020 A 
ENDROOT
BRANCH   1   7
HETATM    7  C   LIG     1      17.577  33.520  13.605  1.00  0.00     0.292 C 
HETATM    8  O   LIG     1      17.637  34.752  13.875  1.00  0.00    -0.259 OA
BRANCH   7   9
HETATM    9  O   LIG     1      18.500  32.951  12.722  1.00  0.00    -0.323 OA
HETATM   10  C   LIG     1      19.083  33.678  11.647  1.00  0.00     0.213 C 
ENDBRANCH   7   9
ENDBRANCH   1   7
BRANCH   4  11
HETATM   11  N   LIG     1      13.524  30.259  16.005  1.00  0.00    -0.399 N 
HETATM   12  H   LIG     1      12.899  29.664  15.417  1.00  0.00     0.156 HD
HETATM   13  H   LIG     1      13.392  30.247  17.040  1.00  0.00     0.156 HD
ENDBRANCH   4  11
TORSDOF 3
ENDMDL
MODEL 14
REMARK VINA RESULT:      -5.0      9.149     10.220
REMARK  3 active torsions:
REMARK  status: ('A' for Active; 'I' for Inactive)
REMARK    1  A    between atoms: C_2  and  C_3 
REMARK    2  A    between atoms: C_2  and  O_10 
REMARK    3  A    between atoms: C_6  and  N_7 
ROOT
HETATM    1  C   LIG     1      13.978  31.156  15.805  1.00  0.00     0.039 A 
HETATM    2  C   LIG     1      15.258  31.277  15.235  1.00  0.00     0.020 A 
HETATM    3  C   LIG     1      15.694  30.362  14.271  1.00  0.00     0.030 A 
HETATM    4  C   LIG     1      14.859  29.315  13.863  1.00  0.00     0.025 A 
HETATM    5  C   LIG     1      13.582  29.188  14.426  1.00  0.00     0.030 A 
HETATM    6  C   LIG     1      13.144  30.103  15.390  1.00  0.00     0.020 A 
ENDROOT
BRANCH   1   7
HETATM    7  C   LIG     1      13.511  32.121  16.825  1.00  0.00     0.292 C 
HETATM    8  O   LIG     1      12.323  32.548  16.797  1.00  0.00    -0.259 OA
BRANCH   7   9
HETATM    9  O   LIG     1      14.388  32.561  17.823  1.00  0.00    -0.323 OA
HETATM   10  C   LIG     1      14.752  31.754  18.936  1.00  0.00     0.213 C 
ENDBRANCH   7   9
ENDBRANCH   1   7
BRANCH   4  11
HETATM   11  N   LIG     1      15.305  28.379  12.877  1.00  0.00    -0.399 N 
HETATM   12  H   LIG     1      14.624  27.767  12.376  1.00  0.00     0.156 HD
HETATM   13  H   LIG     1      16.318  28.294  12.641  1.00  0.00     0.156 HD
ENDBRANCH   4  11
TORSDOF 3
ENDMDL
MODEL 15
REMARK VINA RESULT:      -4.6      2.914      3.742
REMARK  3 active torsions:
REMARK  status: ('A' for Active; 'I' for Inactive)
REMARK    1  A    between atoms: C_2  and  C_3 
REMARK    2  A    between atoms: C_2  and  O_10 
REMARK    3  A    between atoms: C_6  and  N_7 
ROOT
HETATM    1  C   LIG     1      17.057  35.971  23.106  1.00  0.00     0.039 A 
HETATM    2  C   LIG     1      17.446  36.840  22.070  1.00  0.00     0.020 A 
HETATM    3  C   LIG     1      17.113  36.554  20.743  1.00  0.00     0.030 A 
HETATM    4  C   LIG     1      16.388  35.397  20.430  1.00  0.00     0.025 A 
HETATM    5  C   LIG     1      15.998  34.527  21.456  1.00  0.00     0.030 A 
HETATM    6  C   LIG     1      16.330  34.811  22.785  1.00  0.00     0.020 A 
ENDROOT
BRANCH   1   7
HETATM    7  C   LIG     1      17.407  36.268  24.513  1.00  0.00     0.292 C 
HETATM    8  O   LIG     1      17.202  35.405  25.412  1.00  0.00    -0.259 OA
BRANCH   7   9
HETATM    9  O   LIG     1      17.965  37.507  24.846  1.00  0.00    -0.323 OA
HETATM   10  C   LIG     1      17.271  38.477  25.622  1.00  0.00     0.213 C 
ENDBRANCH   7   9
ENDBRANCH   1   7
BRANCH   4  11
HETATM   11  N   LIG     1      16.047  35.105  19.071  1.00  0.00    -0.399 N 
HETATM   12  H   LIG     1      16.562  34.370  18.538  1.00  0.00     0.156 HD
HETATM   13  H   LIG     1      15.278  35.621  18.590  1.00  0.00     0.156 HD
ENDBRANCH   4  11
TORSDOF 3
ENDMDL
MODEL 16
REMARK VINA RESULT:      -4.5      6.356      7.816
REMARK  3 active torsions:
REMARK  status: ('A' for Active; 'I' for Inactive)
REMARK    1  A    between atoms: C_2  and  C_3 
REMARK    2  A    between atoms: C_2  and  O_10 
REMARK    3  A    between atoms: C_6  and  N_7 
ROOT
HETATM    1  C   LIG     1      15.156  32.975  17.718  1.00  0.00     0.039 A 
HETATM    2  C   LIG     1      15.399  34.348  17.908  1.00  0.00     0.020 A 
HETATM    3  C   LIG     1      15.573  34.865  19.194  1.00  0.00     0.030 A 
HETATM    4  C   LIG     1      15.508  34.021  20.310  1.00  0.00     0.025 A 
HETATM    5  C   LIG     1      15.266  32.654  20.129  1.00  0.00     0.030 A 
HETATM    6  C   LIG     1      15.092  32.133  18.842  1.00  0.00     0.020 A 
ENDROOT
BRANCH   1   7
HETATM    7  C   LIG     1      14.970  32.421  16.359  1.00  0.00     0.292 C 
HETATM    8  O   LIG     1      15.587  32.925  15.379  1.00  0.00    -0.259 OA
BRANCH   7   9
HETATM    9  O   LIG     1      14.107  31.337  16.159  1.00  0.00    -0.323 OA
HETATM   10  C   LIG     1      14.260  30.422  15.080  1.00  0.00     0.213 C 
ENDBRANCH   7   9
ENDBRANCH   1   7
BRANCH   4  11
HETATM   11  N   LIG     1      15.687  34.552  21.627  1.00  0.00    -0.399 N 
HETATM   12  H   LIG     1      16.413  35.278  21.815  1.00  0.00     0.156 HD
HETATM   13  H   LIG     1      15.095  34.223  22.421  1.00  0.00     0.156 HD
ENDBRANCH   4  11
TORSDOF 3
ENDMDL
MODEL 17
REMARK VINA RESULT:      -4.4      8.449      9.729
REMARK  3 active torsions:
REMARK  status: ('A' for Active; 'I' for Inactive)
REMARK    1  A    between atoms: C_2  and  C_3 
REMARK    2  A    between atoms: C_2  and  O_10 
REMARK    3  A    between atoms: C_6  and  N_7 
ROOT
HETATM    1  C   LIG     1      14.955  31.543  15.266  1.00  0.00     0.039 A 
HETATM    2  C   LIG     1      15.583  32.535  16.042  1.00  0.00     0.020 A 
HETATM    3  C   LIG     1      16.646  33.276  15.519  1.00  0.00     0.030 A 
HETATM    4  C   LIG     1      17.099  33.039  14.215  1.00  0.00     0.025 A 
HETATM    5  C   LIG     1      16.479  32.053  13.437  1.00  0.00     0.030 A 
HETATM    6  C   LIG     1      15.414  31.310  13.958  1.00  0.00     0.020 A 
ENDROOT
BRANCH   1   7
HETATM    7  C   LIG     1      13.829  30.754  15.814  1.00  0.00     0.292 C 
HETATM    8  O   LIG     1      13.681  30.644  17.063  1.00  0.00    -0.259 OA
BRANCH   7   9
HETATM    9  O   LIG     1      12.927  30.130  14.944  1.00  0.00    -0.323 OA
HETATM   10  C   LIG     1      13.209  28.890  14.306  1.00  0.00     0.213 C 
ENDBRANCH   7   9
ENDBRANCH   1   7
BRANCH   4  11
HETATM   11  N   LIG     1      18.187  33.798  13.681  1.00  0.00    -0.399 N 
HETATM   12  H   LIG     1      19.071  33.329  13.385  1.00  0.00     0.156 HD
HETATM   13  H   LIG     1      18.116  34.835  13.577  1.00  0.00     0.156 HD
ENDBRANCH   4  11
TORSDOF 3
ENDMDL
MODEL 18
REMARK VINA RESULT:      -3.6     17.688     18.168
REMARK  3 active torsions:
REMARK  status: ('A' for Active; 'I' for Inactive)
REMARK    1  A    between atoms: C_2  and  C_3 
REMARK    2  A    between atoms: C_2  and  O_10 
REMARK    3  A    between atoms: C_6  and  N_7 
ROOT
HETATM    1  C   LIG     1      26.801  30.228  34.871  1.00  0.00     0.039 A 
HETATM    2  C   LIG     1      27.865  31.001  34.371  1.00  0.00     0.020 A 
HETATM    3  C   LIG     1      28.723  30.480  33.398  1.00  0.00     0.030 A 
HETATM    4  C   LIG     1      28.532  29.180  32.911  1.00  0.00     0.025 A 
HETATM    5  C   LIG     1      27.476  28.405  33.405  1.00  0.00     0.030 A 
HETATM    6  C   LIG     1      26.615  28.924  34.378  1.00  0.00     0.020 A 
ENDROOT
BRANCH   1   7
HETATM    7  C   LIG     1      25.889  30.773  35.902  1.00  0.00     0.292 C 
HETATM    8  O   LIG     1      25.383  31.921  35.756  1.00  0.00    -0.259 OA
BRANCH   7   9
HETATM    9  O   LIG     1      25.589  30.015  37.039  1.00  0.00    -0.323 OA
HETATM   10  C   LIG     1      26.557  29.708  38.035  1.00  0.00     0.213 C 
ENDBRANCH   7   9
ENDBRANCH   1   7
BRANCH   4  11
HETATM   11  N   LIG     1      29.411  28.648  31.915  1.00  0.00    -0.399 N 
HETATM   12  H   LIG     1      30.188  29.225  31.525  1.00  0.00     0.156 HD
HETATM   13  H   LIG     1      29.289  27.674  31.560  1.00  0.00     0.156 HD
ENDBRANCH   4  11
TORSDOF 3
ENDMDL
