MODEL 1
REMARK VINA RESULT:      -7.2      0.000      0.000
REMARK  1 active torsions:
REMARK  status: ('A' for Active; 'I' for Inactive)
REMARK    1  A    between atoms: C_4  and  C_5 
ROOT
HETATM    1  O   LIG     1      18.376  36.803  18.517  1.00  0.00    -0.298 OA
HETATM    2  C   LIG     1      18.472  37.284  19.638  1.00  0.00     0.131 C 
HETATM    3  C   LIG     1      18.078  36.472  20.839  1.00  0.00     0.087 C 
HETATM    4  C   LIG     1      17.151  37.297  21.760  1.00  0.00     0.020 C 
HETATM    5  C   LIG     1      17.619  38.772  21.967  1.00  0.00     0.010 C 
HETATM    6  C   LIG     1      18.971  39.091  21.308  1.00  0.00     0.012 C 
HETATM    7  C   LIG     1      18.976  38.697  19.818  1.00  0.00     0.051 C 
HETATM    8  C   LIG     1      20.383  38.849  19.230  1.00  0.00     0.018 C 
ENDROOT
BRANCH   4   9
HETATM    9  C   LIG     1      16.956  36.583  23.090  1.00  0.00    -0.089 C 
HETATM   10  C   LIG     1      16.786  37.364  24.368  1.00  0.00     0.043 C 
HETATM   11  C   LIG     1      16.932  35.241  23.144  1.00  0.00     0.014 C 
ENDBRANCH   4   9
TORSDOF 1
ENDMDL
MODEL 2
REMARK VINA RESULT:      -7.1      2.452      4.929
REMARK  1 active torsions:
REMARK  status: ('A' for Active; 'I' for Inactive)
REMARK    1  A    between atoms: C_4  and  C_5 
ROOT
HETATM    1  O   LIG     1      16.851  38.163  25.375  1.00  0.00    -0.298 OA
HETATM    2  C   LIG     1      17.192  37.464  24.431  1.00  0.00     0.131 C 
HETATM    3  C   LIG     1      17.979  38.064  23.300  1.00  0.00     0.087 C 
HETATM    4  C   LIG     1      17.350  37.669  21.944  1.00  0.00     0.020 C 
HETATM    5  C   LIG     1      16.928  36.169  21.858  1.00  0.00     0.010 C 
HETATM    6  C   LIG     1      17.322  35.343  23.093  1.00  0.00     0.012 C 
HETATM    7  C   LIG     1      16.817  36.001  24.393  1.00  0.00     0.051 C 
HETATM    8  C   LIG     1      17.376  35.267  25.616  1.00  0.00     0.018 C 
ENDROOT
BRANCH   4   9
HETATM    9  C   LIG     1      18.276  38.055  20.800  1.00  0.00    -0.089 C 
HETATM   10  C   LIG     1      18.709  37.033  19.779  1.00  0.00     0.043 C 
HETATM   11  C   LIG     1      18.724  39.315  20.682  1.00  0.00     0.014 C 
ENDBRANCH   4   9
TORSDOF 1
ENDMDL
MODEL 3
REMARK VINA RESULT:      -7.0      1.983      2.890
REMARK  1 active torsions:
REMARK  status: ('A' for Active; 'I' for Inactive)
REMARK    1  A    between atoms: C_4  and  C_5 
ROOT
HETATM    1  O   LIG     1      16.161  36.312  21.276  1.00  0.00    -0.298 OA
HETATM    2  C   LIG     1      16.886  36.770  22.149  1.00  0.00     0.131 C 
HETATM    3  C   LIG     1      17.275  35.917  23.323  1.00  0.00     0.087 C 
HETATM    4  C   LIG     1      17.048  36.690  24.642  1.00  0.00     0.020 C 
HETATM    5  C   LIG     1      17.530  38.174  24.594  1.00  0.00     0.010 C 
HETATM    6  C   LIG     1      18.241  38.552  23.285  1.00  0.00     0.012 C 
HETATM    7  C   LIG     1      17.383  38.194  22.056  1.00  0.00     0.051 C 
HETATM    8  C   LIG     1      18.182  38.404  20.766  1.00  0.00     0.018 C 
ENDROOT
BRANCH   4   9
HETATM    9  C   LIG     1      17.673  35.938  25.809  1.00  0.00    -0.089 C 
HETATM   10  C   LIG     1      18.697  36.602  26.695  1.00  0.00     0.043 C 
HETATM   11  C   LIG     1      17.320  34.669  26.068  1.00  0.00     0.014 C 
ENDBRANCH   4   9
TORSDOF 1
ENDMDL
MODEL 4
REMARK VINA RESULT:      -6.0      8.279      9.657
REMARK  1 active torsions:
REMARK  status: ('A' for Active; 'I' for Inactive)
REMARK    1  A    between atoms: C_4  and  C_5 
ROOT
HETATM    1  O   LIG     1      15.968  33.685  16.017  1.00  0.00    -0.298 OA
HETATM    2  C   LIG     1      15.366  32.648  16.257  1.00  0.00     0.131 C 
HETATM    3  C   LIG     1      15.496  31.473  15.330  1.00  0.00     0.087 C 
HETATM    4  C   LIG     1      14.098  30.912  14.982  1.00  0.00     0.020 C 
HETATM    5  C   LIG     1      13.139  30.802  16.209  1.00  0.00     0.010 C 
HETATM    6  C   LIG     1      13.803  31.165  17.547  1.00  0.00     0.012 C 
HETATM    7  C   LIG     1      14.483  32.547  17.480  1.00  0.00     0.051 C 
HETATM    8  C   LIG     1      15.293  32.807  18.755  1.00  0.00     0.018 C 
ENDROOT
BRANCH   4   9
HETATM    9  C   LIG     1      14.230  29.580  14.256  1.00  0.00    -0.089 C 
HETATM   10  C   LIG     1      13.037  28.673  14.085  1.00  0.00     0.043 C 
HETATM   11  C   LIG     1      15.414  29.192  13.756  1.00  0.00     0.014 C 
ENDBRANCH   4   9
TORSDOF 1
ENDMDL
MODEL 5
REMARK VINA RESULT:      -5.7      2.725      3.915
REMARK  1 active torsions:
REMARK  status: ('A' for Active; 'I' for Inactive)
REMARK    1  A    between atoms: C_4  and  C_5 
ROOT
HETATM    1  O   LIG     1      15.727  37.911  23.917  1.00  0.00    -0.298 OA
HETATM    2  C   LIG     1      16.189  37.524  22.853  1.00  0.00     0.131 C 
HETATM    3  C   LIG     1      15.410  36.561  22.003  1.00  0.00     0.087 C 
HETATM    4  C   LIG     1      16.314  35.386  21.563  1.00  0.00     0.020 C 
HETATM    5  C   LIG     1      17.736  35.827  21.094  1.00  0.00     0.010 C 
HETATM    6  C   LIG     1      17.930  37.351  21.051  1.00  0.00     0.012 C 
HETATM    7  C   LIG     1      17.547  38.004  22.394  1.00  0.00     0.051 C 
HETATM    8  C   LIG     1      17.568  39.531  22.272  1.00  0.00     0.018 C 
ENDROOT
BRANCH   4   9
HETATM    9  C   LIG     1      15.612  34.549  20.503  1.00  0.00    -0.089 C 
HETATM   10  C   LIG     1      14.881  33.284  20.878  1.00  0.00     0.043 C 
HETATM   11  C   LIG     1      15.634  34.924  19.214  1.00  0.00     0.014 C 
ENDBRANCH   4   9
TORSDOF 1
ENDMDL
MODEL 6
REMARK VINA RESULT:      -5.7      7.413      8.486
REMARK  1 active torsions:
REMARK  status: ('A' for Active; 'I' for Inactive)
REMARK    1  A    between atoms: C_4  and  C_5 
ROOT
HETATM    1  O   LIG     1      12.694  30.327  15.278  1.00  0.00    -0.298 OA
HETATM    2  C   LIG     1      13.750  30.780  15.697  1.00  0.00     0.131 C 
HETATM    3  C   LIG     1      13.959  30.947  17.175  1.00  0.00     0.087 C 
HETATM    4  C   LIG     1      14.501  32.363  17.480  1.00  0.00     0.020 C 
HETATM    5  C   LIG     1      15.622  32.833  16.501  1.00  0.00     0.010 C 
HETATM    6  C   LIG     1      16.054  31.757  15.491  1.00  0.00     0.012 C 
HETATM    7  C   LIG     1      14.842  31.180  14.732  1.00  0.00     0.051 C 
HETATM    8  C   LIG     1      15.268  29.987  13.872  1.00  0.00     0.018 C 
ENDROOT
BRANCH   4   9
HETATM    9  C   LIG     1      14.953  32.454  18.931  1.00  0.00    -0.089 C 
HETATM   10  C   LIG     1      14.833  31.267  19.852  1.00  0.00     0.043 C 
HETATM   11  C   LIG     1      15.467  33.597  19.412  1.00  0.00     0.014 C 
ENDBRANCH   4   9
TORSDOF 1
ENDMDL
MODEL 7
REMARK VINA RESULT:      -5.5      1.081      1.636
REMARK  1 active torsions:
REMARK  status: ('A' for Active; 'I' for Inactive)
REMARK    1  A    between atoms: C_4  and  C_5 
ROOT
HETATM    1  O   LIG     1      18.701  37.315  18.474  1.00  0.00    -0.298 OA
HETATM    2  C   LIG     1      18.434  37.348  19.667  1.00  0.00     0.131 C 
HETATM    3  C   LIG     1      17.930  36.112  20.357  1.00  0.00     0.087 C 
HETATM    4  C   LIG     1      16.670  36.442  21.189  1.00  0.00     0.020 C 
HETATM    5  C   LIG     1      16.782  37.769  22.004  1.00  0.00     0.010 C 
HETATM    6  C   LIG     1      18.164  38.436  21.914  1.00  0.00     0.012 C 
HETATM    7  C   LIG     1      18.599  38.631  20.448  1.00  0.00     0.051 C 
HETATM    8  C   LIG     1      20.049  39.122  20.381  1.00  0.00     0.018 C 
ENDROOT
BRANCH   4   9
HETATM    9  C   LIG     1      16.306  35.266  22.086  1.00  0.00    -0.089 C 
HETATM   10  C   LIG     1      15.208  34.309  21.695  1.00  0.00     0.043 C 
HETATM   11  C   LIG     1      16.960  35.064  23.241  1.00  0.00     0.014 C 
ENDBRANCH   4   9
TORSDOF 1
ENDMDL
MODEL 8
REMARK VINA RESULT:      -5.4      8.699      9.848
REMARK  1 active torsions:
REMARK  status: ('A' for Active; 'I' for Inactive)
REMARK    1  A    between atoms: C_4  and  C_5 
ROOT
HETATM    1  O   LIG     1      12.598  29.273  14.277  1.00  0.00    -0.298 OA
HETATM    2  C   LIG     1      13.639  29.791  14.657  1.00  0.00     0.131 C 
HETATM    3  C   LIG     1      13.663  30.573  15.940  1.00  0.00     0.087 C 
HETATM    4  C   LIG     1      14.352  31.939  15.718  1.00  0.00     0.020 C 
HETATM    5  C   LIG     1      15.653  31.857  14.860  1.00  0.00     0.010 C 
HETATM    6  C   LIG     1      16.064  30.422  14.494  1.00  0.00     0.012 C 
HETATM    7  C   LIG     1      14.900  29.655  13.836  1.00  0.00     0.051 C 
HETATM    8  C   LIG     1      15.269  28.179  13.650  1.00  0.00     0.018 C 
ENDROOT
BRANCH   4   9
HETATM    9  C   LIG     1      14.606  32.624  17.054  1.00  0.00    -0.089 C 
HETATM   10  C   LIG     1      15.043  34.067  17.110  1.00  0.00     0.043 C 
HETATM   11  C   LIG     1      14.446  31.952  18.205  1.00  0.00     0.014 C 
ENDBRANCH   4   9
TORSDOF 1
ENDMDL
MODEL 9
REMARK VINA RESULT:      -5.3      4.522      5.843
REMARK  1 active torsions:
REMARK  status: ('A' for Active; 'I' for Inactive)
REMARK    1  A    between atoms: C_4  and  C_5 
ROOT
HETATM    1  O   LIG     1      15.619  34.257  16.393  1.00  0.00    -0.298 OA
HETATM    2  C   LIG     1      15.308  33.839  17.499  1.00  0.00     0.131 C 
HETATM    3  C   LIG     1      15.274  34.777  18.673  1.00  0.00     0.087 C 
HETATM    4  C   LIG     1      16.040  34.164  19.868  1.00  0.00     0.020 C 
HETATM    5  C   LIG     1      15.736  32.651  20.102  1.00  0.00     0.010 C 
HETATM    6  C   LIG     1      14.649  32.086  19.172  1.00  0.00     0.012 C 
HETATM    7  C   LIG     1      14.968  32.379  17.693  1.00  0.00     0.051 C 
HETATM    8  C   LIG     1      13.788  31.976  16.802  1.00  0.00     0.018 C 
ENDROOT
BRANCH   4   9
HETATM    9  C   LIG     1      15.796  34.983  21.127  1.00  0.00    -0.089 C 
HETATM   10  C   LIG     1      16.840  35.060  22.212  1.00  0.00     0.043 C 
HETATM   11  C   LIG     1      14.642  35.651  21.291  1.00  0.00     0.014 C 
ENDBRANCH   4   9
TORSDOF 1
ENDMDL
MODEL 10
REMARK VINA RESULT:      -5.3      7.961      9.718
REMARK  1 active torsions:
REMARK  status: ('A' for Active; 'I' for Inactive)
REMARK    1  A    between atoms: C_4  and  C_5 
ROOT
HETATM    1  O   LIG     1      15.011  29.403  13.713  1.00  0.00    -0.298 OA
HETATM    2  C   LIG     1      15.083  30.486  14.277  1.00  0.00     0.131 C 
HETATM    3  C   LIG     1      15.865  31.606  13.652  1.00  0.00     0.087 C 
HETATM    4  C   LIG     1      16.816  32.238  14.694  1.00  0.00     0.020 C 
HETATM    5  C   LIG     1      16.159  32.465  16.092  1.00  0.00     0.010 C 
HETATM    6  C   LIG     1      14.661  32.122  16.135  1.00  0.00     0.012 C 
HETATM    7  C   LIG     1      14.395  30.698  15.606  1.00  0.00     0.051 C 
HETATM    8  C   LIG     1      12.889  30.446  15.482  1.00  0.00     0.018 C 
ENDROOT
BRANCH   4   9
HETATM    9  C   LIG     1      17.419  33.524  14.146  1.00  0.00    -0.089 C 
HETATM   10  C   LIG     1      17.370  34.802  14.946  1.00  0.00     0.043 C 
HETATM   11  C   LIG     1      18.004  33.540  12.938  1.00  0.00     0.014 C 
ENDBRANCH   4   9
TORSDOF 1
ENDMDL
MODEL 11
REMARK VINA RESULT:      -5.1      3.211      5.447
REMARK  1 active torsions:
REMARK  status: ('A' for Active; 'I' for Inactive)
REMARK    1  A    between atoms: C_4  and  C_5 
ROOT
HETATM    1  O   LIG     1      18.048  37.162  27.181  1.00  0.00    -0.298 OA
HETATM    2  C   LIG     1      17.885  36.807  26.022  1.00  0.00     0.131 C 
HETATM    3  C   LIG     1      17.975  37.814  24.910  1.00  0.00     0.087 C 
HETATM    4  C   LIG     1      16.758  37.677  23.967  1.00  0.00     0.020 C 
HETATM    5  C   LIG     1      16.393  36.199  23.619  1.00  0.00     0.010 C 
HETATM    6  C   LIG     1      17.380  35.167  24.188  1.00  0.00     0.012 C 
HETATM    7  C   LIG     1      17.583  35.361  25.704  1.00  0.00     0.051 C 
HETATM    8  C   LIG     1      18.704  34.450  26.214  1.00  0.00     0.018 C 
ENDROOT
BRANCH   4   9
HETATM    9  C   LIG     1      16.968  38.510  22.710  1.00  0.00    -0.089 C 
HETATM   10  C   LIG     1      18.328  38.608  22.067  1.00  0.00     0.043 C 
HETATM   11  C   LIG     1      15.941  39.172  22.154  1.00  0.00     0.014 C 
ENDBRANCH   4   9
TORSDOF 1
ENDMDL
MODEL 12
REMARK VINA RESULT:      -5.0      8.370      9.587
REMARK  1 active torsions:
REMARK  status: ('A' for Active; 'I' for Inactive)
REMARK    1  A    between atoms: C_4  and  C_5 
ROOT
HETATM    1  O   LIG     1      17.178  33.350  15.950  1.00  0.00    -0.298 OA
HETATM    2  C   LIG     1      16.476  32.747  15.150  1.00  0.00     0.131 C 
HETATM    3  C   LIG     1      15.112  32.269  15.562  1.00  0.00     0.087 C 
HETATM    4  C   LIG     1      14.925  30.786  15.167  1.00  0.00     0.020 C 
HETATM    5  C   LIG     1      15.444  30.445  13.735  1.00  0.00     0.010 C 
HETATM    6  C   LIG     1      15.938  31.669  12.947  1.00  0.00     0.012 C 
HETATM    7  C   LIG     1      16.978  32.473  13.752  1.00  0.00     0.051 C 
HETATM    8  C   LIG     1      17.317  33.782  13.032  1.00  0.00     0.018 C 
ENDROOT
BRANCH   4   9
HETATM    9  C   LIG     1      13.471  30.371  15.347  1.00  0.00    -0.089 C 
HETATM   10  C   LIG     1      12.850  29.329  14.452  1.00  0.00     0.043 C 
HETATM   11  C   LIG     1      12.719  30.929  16.308  1.00  0.00     0.014 C 
ENDBRANCH   4   9
TORSDOF 1
ENDMDL
MODEL 13
REMARK VINA RESULT:      -4.6      9.402     10.747
REMARK  1 active torsions:
REMARK  status: ('A' for Active; 'I' for Inactive)
REMARK    1  A    between atoms: C_4  and  C_5 
ROOT
HETATM    1  O   LIG     1      15.974  32.739  15.075  1.00  0.00    -0.298 OA
HETATM    2  C   LIG     1      15.204  31.818  15.305  1.00  0.00     0.131 C 
HETATM    3  C   LIG     1      15.464  30.459  14.718  1.00  0.00     0.087 C 
HETATM    4  C   LIG     1      14.182  29.911  14.052  1.00  0.00     0.020 C 
HETATM    5  C   LIG     1      12.888  30.132  14.898  1.00  0.00     0.010 C 
HETATM    6  C   LIG     1      13.150  30.751  16.281  1.00  0.00     0.012 C 
HETATM    7  C   LIG     1      13.985  32.043  16.169  1.00  0.00     0.051 C 
HETATM    8  C   LIG     1      14.392  32.539  17.560  1.00  0.00     0.018 C 
ENDROOT
BRANCH   4   9
HETATM    9  C   LIG     1      14.363  28.444  13.685  1.00  0.00    -0.089 C 
HETATM   10  C   LIG     1      15.490  28.009  12.783  1.00  0.00     0.043 C 
HETATM   11  C   LIG     1      13.519  27.515  14.160  1.00  0.00     0.014 C 
ENDBRANCH   4   9
TORSDOF 1
ENDMDL
MODEL 14
REMARK VINA RESULT:      -4.2      6.783      7.712
REMARK  1 active torsions:
REMARK  status: ('A' for Active; 'I' for Inactive)
REMARK    1  A    between atoms: C_4  and  C_5 
ROOT
HETATM    1  O   LIG     1      16.334  31.804  12.971  1.00  0.00    -0.298 OA
HETATM    2  C   LIG     1      16.421  32.324  14.075  1.00  0.00     0.131 C 
HETATM    3  C   LIG     1      15.824  31.643  15.274  1.00  0.00     0.087 C 
HETATM    4  C   LIG     1      14.970  32.644  16.085  1.00  0.00     0.020 C 
HETATM    5  C   LIG     1      15.640  34.042  16.268  1.00  0.00     0.010 C 
HETATM    6  C   LIG     1      17.069  34.122  15.705  1.00  0.00     0.012 C 
HETATM    7  C   LIG     1      17.121  33.654  14.237  1.00  0.00     0.051 C 
HETATM    8  C   LIG     1      18.572  33.564  13.755  1.00  0.00     0.018 C 
ENDROOT
BRANCH   4   9
HETATM    9  C   LIG     1      14.574  32.036  17.424  1.00  0.00    -0.089 C 
HETATM   10  C   LIG     1      15.214  32.509  18.705  1.00  0.00     0.043 C 
HETATM   11  C   LIG     1      13.647  31.067  17.483  1.00  0.00     0.014 C 
ENDBRANCH   4   9
TORSDOF 1
ENDMDL
