REMARK  3 active torsions:
REMARK  status: ('A' for Active; 'I' for Inactive)
REMARK    1  A    between atoms: C_2  and  C_3 
REMARK    2  A    between atoms: C_2  and  O_10 
REMARK    3  A    between atoms: C_6  and  N_7 
ROOT
HETATM    1  C   LIG     1      -0.260  -0.342  -0.260  1.00  0.00     0.039 A 
HETATM    2  C   LIG     1       0.714  -1.349  -0.390  1.00  0.00     0.020 A 
HETATM    3  C   LIG     1       2.063  -1.015  -0.539  1.00  0.00     0.030 A 
HETATM    4  C   LIG     1       2.460   0.328  -0.561  1.00  0.00     0.025 A 
HETATM    5  C   LIG     1       1.496   1.336  -0.432  1.00  0.00     0.030 A 
HETATM    6  C   LIG     1       0.145   1.004  -0.282  1.00  0.00     0.020 A 
ENDROOT
BRANCH   1   7
HETATM    7  C   LIG     1      -1.690  -0.689  -0.102  1.00  0.00     0.292 C 
HETATM    8  O   LIG     1      -2.050  -1.899  -0.083  1.00  0.00    -0.259 OA
BRANCH   7   9
HETATM    9  O   LIG     1      -2.644   0.327   0.026  1.00  0.00    -0.323 OA
HETATM   10  C   LIG     1      -4.033   0.061   0.180  1.00  0.00     0.213 C 
ENDBRANCH   7   9
ENDBRANCH   1   7
BRANCH   4  11
HETATM   11  N   LIG     1       3.841   0.669  -0.713  1.00  0.00    -0.399 N 
HETATM   12  H   LIG     1       4.567  -0.075  -0.810  1.00  0.00     0.156 HD
HETATM   13  H   LIG     1       4.147   1.667  -0.730  1.00  0.00     0.156 HD
ENDBRANCH   4  11
TORSDOF 3
