REMARK  1 active torsions:
REMARK  status: ('A' for Active; 'I' for Inactive)
REMARK    1  A    between atoms: C_4  and  C_5 
ROOT
HETATM    1  O   LIG     1       2.285  -2.089  -0.533  1.00  0.00    -0.298 OA
HETATM    2  C   LIG     1       1.569  -1.110  -0.376  1.00  0.00     0.131 C 
HETATM    3  C   LIG     1       0.193  -1.273   0.205  1.00  0.00     0.087 C 
HETATM    4  C   LIG     1      -0.844  -0.523  -0.662  1.00  0.00     0.020 C 
HETATM    5  C   LIG     1      -0.379   0.897  -1.114  1.00  0.00     0.010 C 
HETATM    6  C   LIG     1       0.972   1.325  -0.518  1.00  0.00     0.012 C 
HETATM    7  C   LIG     1       2.060   0.263  -0.773  1.00  0.00     0.051 C 
HETATM    8  C   LIG     1       3.343   0.619  -0.015  1.00  0.00     0.018 C 
ENDROOT
BRANCH   4   9
HETATM    9  C   LIG     1      -2.188  -0.469   0.051  1.00  0.00    -0.089 C 
HETATM   10  C   LIG     1      -2.356   0.325   1.322  1.00  0.00     0.043 C 
HETATM   11  C   LIG     1      -3.247  -1.130  -0.443  1.00  0.00     0.014 C 
ENDBRANCH   4   9
TORSDOF 1
