MODEL 1
REMARK VINA RESULT:      -6.4      0.000      0.000
REMARK  3 active torsions:
REMARK  status: ('A' for Active; 'I' for Inactive)
REMARK    1  A    between atoms: C_2  and  O_3 
REMARK    2  A    between atoms: O_3  and  C_4 
REMARK    3  A    between atoms: C_7  and  N_8 
REMARK       I    between atoms: N_8  and  C_9 
ROOT
HETATM    1  C   LIG     1      17.428  37.346  24.116  1.00  0.00     0.068 A 
HETATM    2  C   LIG     1      18.257  38.481  24.014  1.00  0.00     0.039 A 
HETATM    3  C   LIG     1      18.530  39.043  22.764  1.00  0.00     0.032 A 
HETATM    4  C   LIG     1      17.994  38.482  21.596  1.00  0.00     0.034 A 
HETATM    5  C   LIG     1      17.144  37.368  21.702  1.00  0.00     0.032 A 
HETATM    6  C   LIG     1      16.872  36.805  22.953  1.00  0.00     0.039 A 
ENDROOT
BRANCH   4   7
HETATM    7  N   LIG     1      18.273  39.096  20.326  1.00  0.00    -0.328 N 
HETATM    8  C   LIG     1      19.022  38.467  19.274  1.00  0.00     0.218 C 
HETATM    9  C   LIG     1      19.089  39.107  17.926  1.00  0.00     0.117 C 
HETATM   10  O   LIG     1      19.693  37.423  19.497  1.00  0.00    -0.274 OA
HETATM   11  H   LIG     1      17.986  40.092  20.188  1.00  0.00     0.169 HD
ENDBRANCH   4   7
BRANCH   1  12
HETATM   12  O   LIG     1      17.119  36.738  25.345  1.00  0.00    -0.352 OA
BRANCH  12  13
HETATM   13  C   LIG     1      18.065  36.339  26.336  1.00  0.00     0.171 C 
HETATM   14  C   LIG     1      18.278  34.829  26.309  1.00  0.00     0.034 C 
ENDBRANCH  12  13
ENDBRANCH   1  12
TORSDOF 3
ENDMDL
MODEL 2
REMARK VINA RESULT:      -6.2      8.753     10.482
REMARK  3 active torsions:
REMARK  status: ('A' for Active; 'I' for Inactive)
REMARK    1  A    between atoms: C_2  and  O_3 
REMARK    2  A    between atoms: O_3  and  C_4 
REMARK    3  A    between atoms: C_7  and  N_8 
REMARK       I    between atoms: N_8  and  C_9 
ROOT
HETATM    1  C   LIG     1      14.639  30.748  14.928  1.00  0.00     0.068 A 
HETATM    2  C   LIG     1      13.684  30.723  15.964  1.00  0.00     0.039 A 
HETATM    3  C   LIG     1      13.808  31.586  17.056  1.00  0.00     0.032 A 
HETATM    4  C   LIG     1      14.887  32.477  17.143  1.00  0.00     0.034 A 
HETATM    5  C   LIG     1      15.823  32.520  16.095  1.00  0.00     0.032 A 
HETATM    6  C   LIG     1      15.699  31.657  15.002  1.00  0.00     0.039 A 
ENDROOT
BRANCH   4   7
HETATM    7  N   LIG     1      14.976  33.368  18.268  1.00  0.00    -0.328 N 
HETATM    8  C   LIG     1      15.482  32.990  19.558  1.00  0.00     0.218 C 
HETATM    9  C   LIG     1      15.717  34.035  20.599  1.00  0.00     0.117 C 
HETATM   10  O   LIG     1      15.651  31.775  19.852  1.00  0.00    -0.274 OA
HETATM   11  H   LIG     1      14.575  34.328  18.168  1.00  0.00     0.169 HD
ENDBRANCH   4   7
BRANCH   1  12
HETATM   12  O   LIG     1      14.565  29.905  13.806  1.00  0.00    -0.352 OA
BRANCH  12  13
HETATM   13  C   LIG     1      14.185  28.529  13.823  1.00  0.00     0.171 C 
HETATM   14  C   LIG     1      15.399  27.626  13.632  1.00  0.00     0.034 C 
ENDBRANCH  12  13
ENDBRANCH   1  12
TORSDOF 3
ENDMDL
MODEL 3
REMARK VINA RESULT:      -6.1      3.608      4.459
REMARK  3 active torsions:
REMARK  status: ('A' for Active; 'I' for Inactive)
REMARK    1  A    between atoms: C_2  and  O_3 
REMARK    2  A    between atoms: O_3  and  C_4 
REMARK    3  A    between atoms: C_7  and  N_8 
REMARK       I    between atoms: N_8  and  C_9 
ROOT
HETATM    1  C   LIG     1      16.155  37.095  22.680  1.00  0.00     0.068 A 
HETATM    2  C   LIG     1      14.886  36.640  22.273  1.00  0.00     0.039 A 
HETATM    3  C   LIG     1      14.760  35.824  21.145  1.00  0.00     0.032 A 
HETATM    4  C   LIG     1      15.890  35.457  20.399  1.00  0.00     0.034 A 
HETATM    5  C   LIG     1      17.158  35.889  20.824  1.00  0.00     0.032 A 
HETATM    6  C   LIG     1      17.284  36.705  21.952  1.00  0.00     0.039 A 
ENDROOT
BRANCH   4   7
HETATM    7  N   LIG     1      15.732  34.598  19.256  1.00  0.00    -0.328 N 
HETATM    8  C   LIG     1      15.307  33.228  19.331  1.00  0.00     0.218 C 
HETATM    9  C   LIG     1      14.985  32.481  18.078  1.00  0.00     0.117 C 
HETATM   10  O   LIG     1      15.283  32.621  20.436  1.00  0.00    -0.274 OA
HETATM   11  H   LIG     1      16.020  34.966  18.321  1.00  0.00     0.169 HD
ENDBRANCH   4   7
BRANCH   1  12
HETATM   12  O   LIG     1      16.343  37.916  23.806  1.00  0.00    -0.352 OA
BRANCH  12  13
HETATM   13  C   LIG     1      17.580  38.122  24.487  1.00  0.00     0.171 C 
HETATM   14  C   LIG     1      17.716  37.167  25.668  1.00  0.00     0.034 C 
ENDBRANCH  12  13
ENDBRANCH   1  12
TORSDOF 3
ENDMDL
MODEL 4
REMARK VINA RESULT:      -6.0      3.851      5.165
REMARK  3 active torsions:
REMARK  status: ('A' for Active; 'I' for Inactive)
REMARK    1  A    between atoms: C_2  and  O_3 
REMARK    2  A    between atoms: O_3  and  C_4 
REMARK    3  A    between atoms: C_7  and  N_8 
REMARK       I    between atoms: N_8  and  C_9 
ROOT
HETATM    1  C   LIG     1      16.464  36.761  22.531  1.00  0.00     0.068 A 
HETATM    2  C   LIG     1      15.169  36.801  21.977  1.00  0.00     0.039 A 
HETATM    3  C   LIG     1      14.650  35.681  21.321  1.00  0.00     0.032 A 
HETATM    4  C   LIG     1      15.412  34.511  21.193  1.00  0.00     0.034 A 
HETATM    5  C   LIG     1      16.692  34.464  21.771  1.00  0.00     0.032 A 
HETATM    6  C   LIG     1      17.211  35.584  22.428  1.00  0.00     0.039 A 
ENDROOT
BRANCH   4   7
HETATM    7  N   LIG     1      14.842  33.368  20.532  1.00  0.00    -0.328 N 
HETATM    8  C   LIG     1      15.087  33.026  19.159  1.00  0.00     0.218 C 
HETATM    9  C   LIG     1      14.610  31.716  18.623  1.00  0.00     0.117 C 
HETATM   10  O   LIG     1      15.628  33.854  18.377  1.00  0.00    -0.274 OA
HETATM   11  H   LIG     1      14.143  32.794  21.057  1.00  0.00     0.169 HD
ENDBRANCH   4   7
BRANCH   1  12
HETATM   12  O   LIG     1      17.037  37.855  23.202  1.00  0.00    -0.352 OA
BRANCH  12  13
HETATM   13  C   LIG     1      17.262  39.148  22.643  1.00  0.00     0.171 C 
HETATM   14  C   LIG     1      18.227  39.072  21.464  1.00  0.00     0.034 C 
ENDBRANCH  12  13
ENDBRANCH   1  12
TORSDOF 3
ENDMDL
MODEL 5
REMARK VINA RESULT:      -5.9      1.808      6.062
REMARK  3 active torsions:
REMARK  status: ('A' for Active; 'I' for Inactive)
REMARK    1  A    between atoms: C_2  and  O_3 
REMARK    2  A    between atoms: O_3  and  C_4 
REMARK    3  A    between atoms: C_7  and  N_8 
REMARK       I    between atoms: N_8  and  C_9 
ROOT
HETATM    1  C   LIG     1      19.095  38.848  19.248  1.00  0.00     0.068 A 
HETATM    2  C   LIG     1      18.802  39.699  20.332  1.00  0.00     0.039 A 
HETATM    3  C   LIG     1      18.226  39.183  21.496  1.00  0.00     0.032 A 
HETATM    4  C   LIG     1      17.921  37.819  21.598  1.00  0.00     0.034 A 
HETATM    5  C   LIG     1      18.240  36.966  20.527  1.00  0.00     0.032 A 
HETATM    6  C   LIG     1      18.816  37.482  19.362  1.00  0.00     0.039 A 
ENDROOT
BRANCH   4   7
HETATM    7  N   LIG     1      17.349  37.313  22.817  1.00  0.00    -0.328 N 
HETATM    8  C   LIG     1      17.803  37.675  24.130  1.00  0.00     0.218 C 
HETATM    9  C   LIG     1      17.020  37.251  25.329  1.00  0.00     0.117 C 
HETATM   10  O   LIG     1      18.900  38.275  24.289  1.00  0.00    -0.274 OA
HETATM   11  H   LIG     1      16.612  36.575  22.745  1.00  0.00     0.169 HD
ENDBRANCH   4   7
BRANCH   1  12
HETATM   12  O   LIG     1      19.675  39.310  18.054  1.00  0.00    -0.352 OA
BRANCH  12  13
HETATM   13  C   LIG     1      19.008  39.427  16.797  1.00  0.00     0.171 C 
HETATM   14  C   LIG     1      17.896  40.468  16.865  1.00  0.00     0.034 C 
ENDBRANCH  12  13
ENDBRANCH   1  12
TORSDOF 3
ENDMDL
MODEL 6
REMARK VINA RESULT:      -5.9      1.469      2.086
REMARK  3 active torsions:
REMARK  status: ('A' for Active; 'I' for Inactive)
REMARK    1  A    between atoms: C_2  and  O_3 
REMARK    2  A    between atoms: O_3  and  C_4 
REMARK    3  A    between atoms: C_7  and  N_8 
REMARK       I    between atoms: N_8  and  C_9 
ROOT
HETATM    1  C   LIG     1      17.264  37.973  23.148  1.00  0.00     0.068 A 
HETATM    2  C   LIG     1      17.098  36.929  22.216  1.00  0.00     0.039 A 
HETATM    3  C   LIG     1      17.699  37.008  20.957  1.00  0.00     0.032 A 
HETATM    4  C   LIG     1      18.464  38.128  20.600  1.00  0.00     0.034 A 
HETATM    5  C   LIG     1      18.652  39.155  21.541  1.00  0.00     0.032 A 
HETATM    6  C   LIG     1      18.051  39.075  22.801  1.00  0.00     0.039 A 
ENDROOT
BRANCH   4   7
HETATM    7  N   LIG     1      19.089  38.171  19.305  1.00  0.00    -0.328 N 
HETATM    8  C   LIG     1      18.937  39.253  18.373  1.00  0.00     0.218 C 
HETATM    9  C   LIG     1      19.781  39.296  17.141  1.00  0.00     0.117 C 
HETATM   10  O   LIG     1      18.041  40.125  18.539  1.00  0.00    -0.274 OA
HETATM   11  H   LIG     1      19.620  37.329  18.987  1.00  0.00     0.169 HD
ENDBRANCH   4   7
BRANCH   1  12
HETATM   12  O   LIG     1      16.685  37.947  24.428  1.00  0.00    -0.352 OA
BRANCH  12  13
HETATM   13  C   LIG     1      17.394  38.046  25.663  1.00  0.00     0.171 C 
HETATM   14  C   LIG     1      18.341  36.865  25.844  1.00  0.00     0.034 C 
ENDBRANCH  12  13
ENDBRANCH   1  12
TORSDOF 3
ENDMDL
MODEL 7
REMARK VINA RESULT:      -5.9     10.327     11.411
REMARK  3 active torsions:
REMARK  status: ('A' for Active; 'I' for Inactive)
REMARK    1  A    between atoms: C_2  and  O_3 
REMARK    2  A    between atoms: O_3  and  C_4 
REMARK    3  A    between atoms: C_7  and  N_8 
REMARK       I    between atoms: N_8  and  C_9 
ROOT
HETATM    1  C   LIG     1      14.854  31.744  16.355  1.00  0.00     0.068 A 
HETATM    2  C   LIG     1      15.329  31.315  15.100  1.00  0.00     0.039 A 
HETATM    3  C   LIG     1      14.579  30.419  14.333  1.00  0.00     0.032 A 
HETATM    4  C   LIG     1      13.353  29.928  14.804  1.00  0.00     0.034 A 
HETATM    5  C   LIG     1      12.867  30.380  16.043  1.00  0.00     0.032 A 
HETATM    6  C   LIG     1      13.618  31.275  16.811  1.00  0.00     0.039 A 
ENDROOT
BRANCH   4   7
HETATM    7  N   LIG     1      12.593  29.025  13.983  1.00  0.00    -0.328 N 
HETATM    8  C   LIG     1      13.017  27.696  13.640  1.00  0.00     0.218 C 
HETATM    9  C   LIG     1      12.071  26.770  12.948  1.00  0.00     0.117 C 
HETATM   10  O   LIG     1      14.206  27.328  13.841  1.00  0.00    -0.274 OA
HETATM   11  H   LIG     1      11.716  29.382  13.540  1.00  0.00     0.169 HD
ENDBRANCH   4   7
BRANCH   1  12
HETATM   12  O   LIG     1      15.564  32.644  17.169  1.00  0.00    -0.352 OA
BRANCH  12  13
HETATM   13  C   LIG     1      15.133  33.132  18.439  1.00  0.00     0.171 C 
HETATM   14  C   LIG     1      15.559  32.190  19.559  1.00  0.00     0.034 C 
ENDBRANCH  12  13
ENDBRANCH   1  12
TORSDOF 3
ENDMDL
MODEL 8
REMARK VINA RESULT:      -5.8      6.465      8.146
REMARK  3 active torsions:
REMARK  status: ('A' for Active; 'I' for Inactive)
REMARK    1  A    between atoms: C_2  and  O_3 
REMARK    2  A    between atoms: O_3  and  C_4 
REMARK    3  A    between atoms: C_7  and  N_8 
REMARK       I    between atoms: N_8  and  C_9 
ROOT
HETATM    1  C   LIG     1      14.323  31.857  17.982  1.00  0.00     0.068 A 
HETATM    2  C   LIG     1      14.573  33.086  17.339  1.00  0.00     0.039 A 
HETATM    3  C   LIG     1      15.233  34.114  18.018  1.00  0.00     0.032 A 
HETATM    4  C   LIG     1      15.645  33.943  19.348  1.00  0.00     0.034 A 
HETATM    5  C   LIG     1      15.421  32.707  19.978  1.00  0.00     0.032 A 
HETATM    6  C   LIG     1      14.760  31.678  19.299  1.00  0.00     0.039 A 
ENDROOT
BRANCH   4   7
HETATM    7  N   LIG     1      16.341  35.011  20.013  1.00  0.00    -0.328 N 
HETATM    8  C   LIG     1      15.795  35.777  21.098  1.00  0.00     0.218 C 
HETATM    9  C   LIG     1      16.668  36.728  21.849  1.00  0.00     0.117 C 
HETATM   10  O   LIG     1      14.565  35.718  21.372  1.00  0.00    -0.274 OA
HETATM   11  H   LIG     1      17.270  35.303  19.634  1.00  0.00     0.169 HD
ENDBRANCH   4   7
BRANCH   1  12
HETATM   12  O   LIG     1      13.666  30.788  17.350  1.00  0.00    -0.352 OA
BRANCH  12  13
HETATM   13  C   LIG     1      13.181  30.788  16.008  1.00  0.00     0.171 C 
HETATM   14  C   LIG     1      14.251  30.292  15.042  1.00  0.00     0.034 C 
ENDBRANCH  12  13
ENDBRANCH   1  12
TORSDOF 3
ENDMDL
MODEL 9
REMARK VINA RESULT:      -5.8      3.390      5.889
REMARK  3 active torsions:
REMARK  status: ('A' for Active; 'I' for Inactive)
REMARK    1  A    between atoms: C_2  and  O_3 
REMARK    2  A    between atoms: O_3  and  C_4 
REMARK    3  A    between atoms: C_7  and  N_8 
REMARK       I    between atoms: N_8  and  C_9 
ROOT
HETATM    1  C   LIG     1      15.838  35.179  20.134  1.00  0.00     0.068 A 
HETATM    2  C   LIG     1      14.786  35.479  21.021  1.00  0.00     0.039 A 
HETATM    3  C   LIG     1      15.006  36.322  22.115  1.00  0.00     0.032 A 
HETATM    4  C   LIG     1      16.275  36.868  22.351  1.00  0.00     0.034 A 
HETATM    5  C   LIG     1      17.316  36.590  21.449  1.00  0.00     0.032 A 
HETATM    6  C   LIG     1      17.096  35.748  20.355  1.00  0.00     0.039 A 
ENDROOT
BRANCH   4   7
HETATM    7  N   LIG     1      16.466  37.749  23.472  1.00  0.00    -0.328 N 
HETATM    8  C   LIG     1      17.071  37.355  24.713  1.00  0.00     0.218 C 
HETATM    9  C   LIG     1      17.402  38.388  25.739  1.00  0.00     0.117 C 
HETATM   10  O   LIG     1      17.251  36.136  24.983  1.00  0.00    -0.274 OA
HETATM   11  H   LIG     1      16.068  38.714  23.412  1.00  0.00     0.169 HD
ENDBRANCH   4   7
BRANCH   1  12
HETATM   12  O   LIG     1      15.676  34.340  19.018  1.00  0.00    -0.352 OA
BRANCH  12  13
HETATM   13  C   LIG     1      15.313  32.961  19.062  1.00  0.00     0.171 C 
HETATM   14  C   LIG     1      14.935  32.453  17.675  1.00  0.00     0.034 C 
ENDBRANCH  12  13
ENDBRANCH   1  12
TORSDOF 3
ENDMDL
MODEL 10
REMARK VINA RESULT:      -5.6      3.401      4.030
REMARK  3 active torsions:
REMARK  status: ('A' for Active; 'I' for Inactive)
REMARK    1  A    between atoms: C_2  and  O_3 
REMARK    2  A    between atoms: O_3  and  C_4 
REMARK    3  A    between atoms: C_7  and  N_8 
REMARK       I    between atoms: N_8  and  C_9 
ROOT
HETATM    1  C   LIG     1      16.718  37.076  23.429  1.00  0.00     0.068 A 
HETATM    2  C   LIG     1      15.559  37.308  22.662  1.00  0.00     0.039 A 
HETATM    3  C   LIG     1      15.079  36.321  21.795  1.00  0.00     0.032 A 
HETATM    4  C   LIG     1      15.750  35.096  21.668  1.00  0.00     0.034 A 
HETATM    5  C   LIG     1      16.889  34.856  22.454  1.00  0.00     0.032 A 
HETATM    6  C   LIG     1      17.369  35.843  23.321  1.00  0.00     0.039 A 
ENDROOT
BRANCH   4   7
HETATM    7  N   LIG     1      15.220  34.092  20.784  1.00  0.00    -0.328 N 
HETATM    8  C   LIG     1      15.485  34.039  19.374  1.00  0.00     0.218 C 
HETATM    9  C   LIG     1      15.052  32.849  18.581  1.00  0.00     0.117 C 
HETATM   10  O   LIG     1      16.005  35.021  18.779  1.00  0.00    -0.274 OA
HETATM   11  H   LIG     1      14.536  33.405  21.175  1.00  0.00     0.169 HD
ENDBRANCH   4   7
BRANCH   1  12
HETATM   12  O   LIG     1      17.245  38.029  24.317  1.00  0.00    -0.352 OA
BRANCH  12  13
HETATM   13  C   LIG     1      17.310  37.896  25.736  1.00  0.00     0.171 C 
HETATM   14  C   LIG     1      18.621  37.245  26.163  1.00  0.00     0.034 C 
ENDBRANCH  12  13
ENDBRANCH   1  12
TORSDOF 3
ENDMDL
MODEL 11
REMARK VINA RESULT:      -5.5      1.953      5.792
REMARK  3 active torsions:
REMARK  status: ('A' for Active; 'I' for Inactive)
REMARK    1  A    between atoms: C_2  and  O_3 
REMARK    2  A    between atoms: O_3  and  C_4 
REMARK    3  A    between atoms: C_7  and  N_8 
REMARK       I    between atoms: N_8  and  C_9 
ROOT
HETATM    1  C   LIG     1      17.955  38.292  21.115  1.00  0.00     0.068 A 
HETATM    2  C   LIG     1      17.803  36.921  20.829  1.00  0.00     0.039 A 
HETATM    3  C   LIG     1      17.475  36.022  21.848  1.00  0.00     0.032 A 
HETATM    4  C   LIG     1      17.306  36.468  23.167  1.00  0.00     0.034 A 
HETATM    5  C   LIG     1      17.430  37.841  23.444  1.00  0.00     0.032 A 
HETATM    6  C   LIG     1      17.757  38.740  22.425  1.00  0.00     0.039 A 
ENDROOT
BRANCH   4   7
HETATM    7  N   LIG     1      16.948  35.524  24.190  1.00  0.00    -0.328 N 
HETATM    8  C   LIG     1      17.534  35.494  25.501  1.00  0.00     0.218 C 
HETATM    9  C   LIG     1      16.957  34.605  26.553  1.00  0.00     0.117 C 
HETATM   10  O   LIG     1      18.583  36.148  25.752  1.00  0.00    -0.274 OA
HETATM   11  H   LIG     1      16.279  34.760  23.942  1.00  0.00     0.169 HD
ENDBRANCH   4   7
BRANCH   1  12
HETATM   12  O   LIG     1      18.282  39.242  20.132  1.00  0.00    -0.352 OA
BRANCH  12  13
HETATM   13  C   LIG     1      19.080  38.998  18.974  1.00  0.00     0.171 C 
HETATM   14  C   LIG     1      20.545  38.804  19.353  1.00  0.00     0.034 C 
ENDBRANCH  12  13
ENDBRANCH   1  12
TORSDOF 3
ENDMDL
MODEL 12
REMARK VINA RESULT:      -5.4      5.971      6.653
REMARK  3 active torsions:
REMARK  status: ('A' for Active; 'I' for Inactive)
REMARK    1  A    between atoms: C_2  and  O_3 
REMARK    2  A    between atoms: O_3  and  C_4 
REMARK    3  A    between atoms: C_7  and  N_8 
REMARK       I    between atoms: N_8  and  C_9 
ROOT
HETATM    1  C   LIG     1      15.631  33.995  20.306  1.00  0.00     0.068 A 
HETATM    2  C   LIG     1      15.613  34.843  19.181  1.00  0.00     0.039 A 
HETATM    3  C   LIG     1      15.347  34.323  17.911  1.00  0.00     0.032 A 
HETATM    4  C   LIG     1      15.107  32.952  17.737  1.00  0.00     0.034 A 
HETATM    5  C   LIG     1      15.097  32.113  18.864  1.00  0.00     0.032 A 
HETATM    6  C   LIG     1      15.363  32.633  20.134  1.00  0.00     0.039 A 
ENDROOT
BRANCH   4   7
HETATM    7  N   LIG     1      14.814  32.450  16.422  1.00  0.00    -0.328 N 
HETATM    8  C   LIG     1      15.812  32.028  15.480  1.00  0.00     0.218 C 
HETATM    9  C   LIG     1      15.400  31.339  14.220  1.00  0.00     0.117 C 
HETATM   10  O   LIG     1      17.028  32.305  15.663  1.00  0.00    -0.274 OA
HETATM   11  H   LIG     1      13.820  32.467  16.099  1.00  0.00     0.169 HD
ENDBRANCH   4   7
BRANCH   1  12
HETATM   12  O   LIG     1      15.891  34.461  21.606  1.00  0.00    -0.352 OA
BRANCH  12  13
HETATM   13  C   LIG     1      17.078  35.134  22.025  1.00  0.00     0.171 C 
HETATM   14  C   LIG     1      16.925  35.677  23.442  1.00  0.00     0.034 C 
ENDBRANCH  12  13
ENDBRANCH   1  12
TORSDOF 3
ENDMDL
MODEL 13
REMARK VINA RESULT:      -5.1     11.398     12.744
REMARK  3 active torsions:
REMARK  status: ('A' for Active; 'I' for Inactive)
REMARK    1  A    between atoms: C_2  and  O_3 
REMARK    2  A    between atoms: O_3  and  C_4 
REMARK    3  A    between atoms: C_7  and  N_8 
REMARK       I    between atoms: N_8  and  C_9 
ROOT
HETATM    1  C   LIG     1      13.325  28.333  14.138  1.00  0.00     0.068 A 
HETATM    2  C   LIG     1      12.778  29.458  14.786  1.00  0.00     0.039 A 
HETATM    3  C   LIG     1      13.597  30.536  15.136  1.00  0.00     0.032 A 
HETATM    4  C   LIG     1      14.971  30.508  14.860  1.00  0.00     0.034 A 
HETATM    5  C   LIG     1      15.510  29.397  14.189  1.00  0.00     0.032 A 
HETATM    6  C   LIG     1      14.691  28.319  13.838  1.00  0.00     0.039 A 
ENDROOT
BRANCH   4   7
HETATM    7  N   LIG     1      15.784  31.641  15.213  1.00  0.00    -0.328 N 
HETATM    8  C   LIG     1      16.543  32.412  14.269  1.00  0.00     0.218 C 
HETATM    9  C   LIG     1      17.195  33.684  14.703  1.00  0.00     0.117 C 
HETATM   10  O   LIG     1      16.737  31.987  13.098  1.00  0.00    -0.274 OA
HETATM   11  H   LIG     1      15.896  31.870  16.226  1.00  0.00     0.169 HD
ENDBRANCH   4   7
BRANCH   1  12
HETATM   12  O   LIG     1      12.552  27.222  13.762  1.00  0.00    -0.352 OA
BRANCH  12  13
HETATM   13  C   LIG     1      11.531  27.220  12.764  1.00  0.00     0.171 C 
HETATM   14  C   LIG     1      11.244  25.803  12.281  1.00  0.00     0.034 C 
ENDBRANCH  12  13
ENDBRANCH   1  12
TORSDOF 3
ENDMDL
MODEL 14
REMARK VINA RESULT:      -5.0     11.665     13.105
REMARK  3 active torsions:
REMARK  status: ('A' for Active; 'I' for Inactive)
REMARK    1  A    between atoms: C_2  and  O_3 
REMARK    2  A    between atoms: O_3  and  C_4 
REMARK    3  A    between atoms: C_7  and  N_8 
REMARK       I    between atoms: N_8  and  C_9 
ROOT
HETATM    1  C   LIG     1      13.514  27.992  13.694  1.00  0.00     0.068 A 
HETATM    2  C   LIG     1      12.577  28.888  14.246  1.00  0.00     0.039 A 
HETATM    3  C   LIG     1      13.009  30.062  14.870  1.00  0.00     0.032 A 
HETATM    4  C   LIG     1      14.376  30.357  14.966  1.00  0.00     0.034 A 
HETATM    5  C   LIG     1      15.307  29.476  14.390  1.00  0.00     0.032 A 
HETATM    6  C   LIG     1      14.875  28.303  13.765  1.00  0.00     0.039 A 
ENDROOT
BRANCH   4   7
HETATM    7  N   LIG     1      14.790  31.583  15.594  1.00  0.00    -0.328 N 
HETATM    8  C   LIG     1      14.522  31.916  16.965  1.00  0.00     0.218 C 
HETATM    9  C   LIG     1      15.161  33.120  17.576  1.00  0.00     0.117 C 
HETATM   10  O   LIG     1      13.687  31.252  17.638  1.00  0.00    -0.274 OA
HETATM   11  H   LIG     1      15.242  32.313  14.998  1.00  0.00     0.169 HD
ENDBRANCH   4   7
BRANCH   1  12
HETATM   12  O   LIG     1      13.138  26.798  13.054  1.00  0.00    -0.352 OA
BRANCH  12  13
HETATM   13  C   LIG     1      11.803  26.418  12.722  1.00  0.00     0.171 C 
HETATM   14  C   LIG     1      11.791  25.423  11.567  1.00  0.00     0.034 C 
ENDBRANCH  12  13
ENDBRANCH   1  12
TORSDOF 3
ENDMDL
MODEL 15
REMARK VINA RESULT:      -5.0      9.292     11.068
REMARK  3 active torsions:
REMARK  status: ('A' for Active; 'I' for Inactive)
REMARK    1  A    between atoms: C_2  and  O_3 
REMARK    2  A    between atoms: O_3  and  C_4 
REMARK    3  A    between atoms: C_7  and  N_8 
REMARK       I    between atoms: N_8  and  C_9 
ROOT
HETATM    1  C   LIG     1      18.100  33.566  13.631  1.00  0.00     0.068 A 
HETATM    2  C   LIG     1      17.088  33.089  12.775  1.00  0.00     0.039 A 
HETATM    3  C   LIG     1      16.093  32.238  13.266  1.00  0.00     0.032 A 
HETATM    4  C   LIG     1      16.095  31.840  14.611  1.00  0.00     0.034 A 
HETATM    5  C   LIG     1      17.088  32.340  15.470  1.00  0.00     0.032 A 
HETATM    6  C   LIG     1      18.083  33.191  14.978  1.00  0.00     0.039 A 
ENDROOT
BRANCH   4   7
HETATM    7  N   LIG     1      15.046  30.983  15.093  1.00  0.00    -0.328 N 
HETATM    8  C   LIG     1      14.049  31.386  16.045  1.00  0.00     0.218 C 
HETATM    9  C   LIG     1      12.890  30.488  16.332  1.00  0.00     0.117 C 
HETATM   10  O   LIG     1      14.184  32.452  16.705  1.00  0.00    -0.274 OA
HETATM   11  H   LIG     1      15.054  29.980  14.796  1.00  0.00     0.169 HD
ENDBRANCH   4   7
BRANCH   1  12
HETATM   12  O   LIG     1      19.124  34.423  13.193  1.00  0.00    -0.352 OA
BRANCH  12  13
HETATM   13  C   LIG     1      20.056  34.140  12.151  1.00  0.00     0.171 C 
HETATM   14  C   LIG     1      21.460  33.944  12.713  1.00  0.00     0.034 C 
ENDBRANCH  12  13
ENDBRANCH   1  12
TORSDOF 3
ENDMDL
MODEL 16
REMARK VINA RESULT:      -4.9      8.148      9.825
REMARK  3 active torsions:
REMARK  status: ('A' for Active; 'I' for Inactive)
REMARK    1  A    between atoms: C_2  and  O_3 
REMARK    2  A    between atoms: O_3  and  C_4 
REMARK    3  A    between atoms: C_7  and  N_8 
REMARK       I    between atoms: N_8  and  C_9 
ROOT
HETATM    1  C   LIG     1      14.270  31.118  15.630  1.00  0.00     0.068 A 
HETATM    2  C   LIG     1      15.413  31.939  15.705  1.00  0.00     0.039 A 
HETATM    3  C   LIG     1      15.790  32.511  16.923  1.00  0.00     0.032 A 
HETATM    4  C   LIG     1      15.033  32.288  18.082  1.00  0.00     0.034 A 
HETATM    5  C   LIG     1      13.910  31.446  18.011  1.00  0.00     0.032 A 
HETATM    6  C   LIG     1      13.533  30.873  16.793  1.00  0.00     0.039 A 
ENDROOT
BRANCH   4   7
HETATM    7  N   LIG     1      15.458  32.872  19.325  1.00  0.00    -0.328 N 
HETATM    8  C   LIG     1      15.708  34.273  19.513  1.00  0.00     0.218 C 
HETATM    9  C   LIG     1      15.954  34.806  20.887  1.00  0.00     0.117 C 
HETATM   10  O   LIG     1      15.805  35.048  18.524  1.00  0.00    -0.274 OA
HETATM   11  H   LIG     1      15.678  32.230  20.120  1.00  0.00     0.169 HD
ENDBRANCH   4   7
BRANCH   1  12
HETATM   12  O   LIG     1      13.844  30.516  14.434  1.00  0.00    -0.352 OA
BRANCH  12  13
HETATM   13  C   LIG     1      13.799  29.112  14.182  1.00  0.00     0.171 C 
HETATM   14  C   LIG     1      15.177  28.583  13.798  1.00  0.00     0.034 C 
ENDBRANCH  12  13
ENDBRANCH   1  12
TORSDOF 3
ENDMDL
MODEL 17
REMARK VINA RESULT:      -4.8      6.875      7.719
REMARK  3 active torsions:
REMARK  status: ('A' for Active; 'I' for Inactive)
REMARK    1  A    between atoms: C_2  and  O_3 
REMARK    2  A    between atoms: O_3  and  C_4 
REMARK    3  A    between atoms: C_7  and  N_8 
REMARK       I    between atoms: N_8  and  C_9 
ROOT
HETATM    1  C   LIG     1      15.368  33.775  19.995  1.00  0.00     0.068 A 
HETATM    2  C   LIG     1      15.416  34.400  18.734  1.00  0.00     0.039 A 
HETATM    3  C   LIG     1      15.212  33.654  17.569  1.00  0.00     0.032 A 
HETATM    4  C   LIG     1      14.968  32.275  17.639  1.00  0.00     0.034 A 
HETATM    5  C   LIG     1      14.892  31.658  18.900  1.00  0.00     0.032 A 
HETATM    6  C   LIG     1      15.096  32.405  20.064  1.00  0.00     0.039 A 
ENDROOT
BRANCH   4   7
HETATM    7  N   LIG     1      14.739  31.537  16.426  1.00  0.00    -0.328 N 
HETATM    8  C   LIG     1      13.539  30.800  16.145  1.00  0.00     0.218 C 
HETATM    9  C   LIG     1      13.318  30.233  14.781  1.00  0.00     0.117 C 
HETATM   10  O   LIG     1      12.707  30.553  17.060  1.00  0.00    -0.274 OA
HETATM   11  H   LIG     1      15.524  31.465  15.739  1.00  0.00     0.169 HD
ENDBRANCH   4   7
BRANCH   1  12
HETATM   12  O   LIG     1      15.564  34.474  21.198  1.00  0.00    -0.352 OA
BRANCH  12  13
HETATM   13  C   LIG     1      15.809  35.875  21.314  1.00  0.00     0.171 C 
HETATM   14  C   LIG     1      16.649  36.181  22.550  1.00  0.00     0.034 C 
ENDBRANCH  12  13
ENDBRANCH   1  12
TORSDOF 3
ENDMDL
MODEL 18
REMARK VINA RESULT:      -4.7      7.617     10.244
REMARK  3 active torsions:
REMARK  status: ('A' for Active; 'I' for Inactive)
REMARK    1  A    between atoms: C_2  and  O_3 
REMARK    2  A    between atoms: O_3  and  C_4 
REMARK    3  A    between atoms: C_7  and  N_8 
REMARK       I    between atoms: N_8  and  C_9 
ROOT
HETATM    1  C   LIG     1      16.025  32.263  14.596  1.00  0.00     0.068 A 
HETATM    2  C   LIG     1      15.153  31.207  14.925  1.00  0.00     0.039 A 
HETATM    3  C   LIG     1      14.554  31.156  16.187  1.00  0.00     0.032 A 
HETATM    4  C   LIG     1      14.820  32.146  17.144  1.00  0.00     0.034 A 
HETATM    5  C   LIG     1      15.667  33.214  16.803  1.00  0.00     0.032 A 
HETATM    6  C   LIG     1      16.267  33.265  15.541  1.00  0.00     0.039 A 
ENDROOT
BRANCH   4   7
HETATM    7  N   LIG     1      14.171  32.080  18.425  1.00  0.00    -0.328 N 
HETATM    8  C   LIG     1      14.865  31.927  19.673  1.00  0.00     0.218 C 
HETATM    9  C   LIG     1      14.119  32.067  20.960  1.00  0.00     0.117 C 
HETATM   10  O   LIG     1      16.081  31.594  19.697  1.00  0.00    -0.274 OA
HETATM   11  H   LIG     1      13.126  32.060  18.447  1.00  0.00     0.169 HD
ENDBRANCH   4   7
BRANCH   1  12
HETATM   12  O   LIG     1      16.655  32.366  13.344  1.00  0.00    -0.352 OA
BRANCH  12  13
HETATM   13  C   LIG     1      17.259  33.545  12.812  1.00  0.00     0.171 C 
HETATM   14  C   LIG     1      18.780  33.452  12.867  1.00  0.00     0.034 C 
ENDBRANCH  12  13
ENDBRANCH   1  12
TORSDOF 3
ENDMDL
MODEL 19
REMARK VINA RESULT:      -4.2      4.282      5.887
REMARK  3 active torsions:
REMARK  status: ('A' for Active; 'I' for Inactive)
REMARK    1  A    between atoms: C_2  and  O_3 
REMARK    2  A    between atoms: O_3  and  C_4 
REMARK    3  A    between atoms: C_7  and  N_8 
REMARK       I    between atoms: N_8  and  C_9 
ROOT
HETATM    1  C   LIG     1      15.309  33.658  19.839  1.00  0.00     0.068 A 
HETATM    2  C   LIG     1      15.214  33.744  21.242  1.00  0.00     0.039 A 
HETATM    3  C   LIG     1      15.714  34.863  21.914  1.00  0.00     0.032 A 
HETATM    4  C   LIG     1      16.325  35.907  21.206  1.00  0.00     0.034 A 
HETATM    5  C   LIG     1      16.392  35.833  19.804  1.00  0.00     0.032 A 
HETATM    6  C   LIG     1      15.893  34.714  19.132  1.00  0.00     0.039 A 
ENDROOT
BRANCH   4   7
HETATM    7  N   LIG     1      16.810  37.056  21.923  1.00  0.00    -0.328 N 
HETATM    8  C   LIG     1      17.871  37.905  21.460  1.00  0.00     0.218 C 
HETATM    9  C   LIG     1      18.167  39.182  22.178  1.00  0.00     0.117 C 
HETATM   10  O   LIG     1      18.612  37.547  20.505  1.00  0.00    -0.274 OA
HETATM   11  H   LIG     1      16.423  37.240  22.876  1.00  0.00     0.169 HD
ENDBRANCH   4   7
BRANCH   1  12
HETATM   12  O   LIG     1      14.823  32.559  19.110  1.00  0.00    -0.352 OA
BRANCH  12  13
HETATM   13  C   LIG     1      14.877  32.414  17.691  1.00  0.00     0.171 C 
HETATM   14  C   LIG     1      13.813  31.438  17.202  1.00  0.00     0.034 C 
ENDBRANCH  12  13
ENDBRANCH   1  12
TORSDOF 3
ENDMDL
