REMARK  3 active torsions:
REMARK  status: ('A' for Active; 'I' for Inactive)
REMARK    1  A    between atoms: C_2  and  O_3 
REMARK    2  A    between atoms: O_3  and  C_4 
REMARK    3  A    between atoms: C_7  and  N_8 
REMARK       I    between atoms: N_8  and  C_9 
ROOT
HETATM    1  C   LIG     1      -1.525  -0.598   0.386  1.00  0.00     0.068 A 
HETATM    2  C   LIG     1      -1.129   0.019  -0.817  1.00  0.00     0.039 A 
HETATM    3  C   LIG     1       0.228   0.176  -1.114  1.00  0.00     0.032 A 
HETATM    4  C   LIG     1       1.211  -0.266  -0.217  1.00  0.00     0.034 A 
HETATM    5  C   LIG     1       0.814  -0.907   0.969  1.00  0.00     0.032 A 
HETATM    6  C   LIG     1      -0.543  -1.064   1.266  1.00  0.00     0.039 A 
ENDROOT
BRANCH   4   7
HETATM    7  N   LIG     1       2.599  -0.111  -0.560  1.00  0.00    -0.328 N 
HETATM    8  C   LIG     1       3.646   0.108   0.398  1.00  0.00     0.218 C 
HETATM    9  C   LIG     1       5.074   0.059  -0.038  1.00  0.00     0.117 C 
HETATM   10  O   LIG     1       3.374   0.424   1.588  1.00  0.00    -0.274 OA
HETATM   11  H   LIG     1       2.854  -0.074  -1.573  1.00  0.00     0.169 HD
ENDBRANCH   4   7
BRANCH   1  12
HETATM   12  O   LIG     1      -2.873  -0.784   0.737  1.00  0.00    -0.352 OA
BRANCH  12  13
HETATM   13  C   LIG     1      -3.995  -0.241   0.042  1.00  0.00     0.171 C 
HETATM   14  C   LIG     1      -4.115   1.259   0.288  1.00  0.00     0.034 C 
ENDBRANCH  12  13
ENDBRANCH   1  12
TORSDOF 3
