REMARK  2 active torsions:
REMARK  status: ('A' for Active; 'I' for Inactive)
REMARK    1  A    between atoms: N_1  and  C_2 
REMARK    2  A    between atoms: C_2  and  N_3 
ROOT
HETATM    1  C   LIG     1       0.172   0.418  -0.102  1.00  0.00     0.163 C 
HETATM    2  S   LIG     1       0.778   1.895  -0.460  1.00  0.00    -0.042 SA
ENDROOT
BRANCH   1   3
HETATM    3  N   LIG     1      -1.241   0.225  -0.036  1.00  0.00    -0.377 N 
HETATM    4  H   LIG     1      -1.897   1.017  -0.216  1.00  0.00     0.158 HD
HETATM    5  H   LIG     1      -1.636  -0.715   0.192  1.00  0.00     0.158 HD
ENDBRANCH   1   3
BRANCH   1   6
HETATM    6  N   LIG     1       1.056  -0.675   0.146  1.00  0.00    -0.377 N 
HETATM    7  H   LIG     1       0.677  -1.620   0.375  1.00  0.00     0.158 HD
HETATM    8  H   LIG     1       2.091  -0.545   0.101  1.00  0.00     0.158 HD
ENDBRANCH   1   6
TORSDOF 2
