REMARK  1 active torsions:
REMARK  status: ('A' for Active; 'I' for Inactive)
REMARK    1  A    between atoms: N_1  and  C_2 
ROOT
HETATM    1  C   LIG     1       0.887  -0.109   0.108  1.00  0.00     0.025 A 
HETATM    2  C   LIG     1      -0.011  -1.038   0.656  1.00  0.00     0.029 A 
HETATM    3  C   LIG     1      -1.389  -0.867   0.487  1.00  0.00     0.002 A 
HETATM    4  C   LIG     1      -1.877   0.230  -0.229  1.00  0.00     0.000 A 
HETATM    5  C   LIG     1      -0.987   1.159  -0.777  1.00  0.00     0.002 A 
HETATM    6  C   LIG     1       0.392   0.991  -0.610  1.00  0.00     0.029 A 
ENDROOT
BRANCH   1   7
HETATM    7  N   LIG     1       2.296  -0.281   0.280  1.00  0.00    -0.399 N 
HETATM    8  H   LIG     1       2.674  -1.097   0.812  1.00  0.00     0.156 HD
HETATM    9  H   LIG     1       2.972   0.405  -0.125  1.00  0.00     0.156 HD
ENDBRANCH   1   7
TORSDOF 1
