MODEL 1
REMARK VINA RESULT:      -5.7      0.000      0.000
REMARK  1 active torsions:
REMARK  status: ('A' for Active; 'I' for Inactive)
REMARK    1  A    between atoms: N_1  and  C_2 
ROOT
HETATM    1  C   LIG     1      17.259  37.273  24.895  1.00  0.00     0.025 A 
HETATM    2  C   LIG     1      17.928  37.356  26.126  1.00  0.00     0.029 A 
HETATM    3  C   LIG     1      18.351  36.192  26.776  1.00  0.00     0.002 A 
HETATM    4  C   LIG     1      18.110  34.941  26.201  1.00  0.00     0.000 A 
HETATM    5  C   LIG     1      17.443  34.852  24.975  1.00  0.00     0.002 A 
HETATM    6  C   LIG     1      17.019  36.015  24.322  1.00  0.00     0.029 A 
ENDROOT
BRANCH   1   7
HETATM    7  N   LIG     1      16.825  38.462  24.230  1.00  0.00    -0.399 N 
HETATM    8  H   LIG     1      17.152  39.402  24.547  1.00  0.00     0.156 HD
HETATM    9  H   LIG     1      16.175  38.411  23.413  1.00  0.00     0.156 HD
ENDBRANCH   1   7
TORSDOF 1
ENDMDL
MODEL 2
REMARK VINA RESULT:      -5.4      0.944      2.034
REMARK  1 active torsions:
REMARK  status: ('A' for Active; 'I' for Inactive)
REMARK    1  A    between atoms: N_1  and  C_2 
ROOT
HETATM    1  C   LIG     1      17.224  36.341  24.212  1.00  0.00     0.025 A 
HETATM    2  C   LIG     1      17.282  35.041  24.738  1.00  0.00     0.029 A 
HETATM    3  C   LIG     1      17.846  34.817  25.998  1.00  0.00     0.002 A 
HETATM    4  C   LIG     1      18.354  35.887  26.739  1.00  0.00     0.000 A 
HETATM    5  C   LIG     1      18.300  37.185  26.221  1.00  0.00     0.002 A 
HETATM    6  C   LIG     1      17.737  37.413  24.960  1.00  0.00     0.029 A 
ENDROOT
BRANCH   1   7
HETATM    7  N   LIG     1      16.649  36.572  22.924  1.00  0.00    -0.399 N 
HETATM    8  H   LIG     1      15.735  37.070  22.828  1.00  0.00     0.156 HD
HETATM    9  H   LIG     1      17.134  36.250  22.056  1.00  0.00     0.156 HD
ENDBRANCH   1   7
TORSDOF 1
ENDMDL
MODEL 3
REMARK VINA RESULT:      -5.1      1.233      2.370
REMARK  1 active torsions:
REMARK  status: ('A' for Active; 'I' for Inactive)
REMARK    1  A    between atoms: N_1  and  C_2 
ROOT
HETATM    1  C   LIG     1      17.225  37.423  24.915  1.00  0.00     0.025 A 
HETATM    2  C   LIG     1      16.893  37.497  23.554  1.00  0.00     0.029 A 
HETATM    3  C   LIG     1      16.806  36.330  22.787  1.00  0.00     0.002 A 
HETATM    4  C   LIG     1      17.050  35.085  23.375  1.00  0.00     0.000 A 
HETATM    5  C   LIG     1      17.381  35.005  24.731  1.00  0.00     0.002 A 
HETATM    6  C   LIG     1      17.468  36.171  25.501  1.00  0.00     0.029 A 
ENDROOT
BRANCH   1   7
HETATM    7  N   LIG     1      17.315  38.614  25.701  1.00  0.00    -0.399 N 
HETATM    8  H   LIG     1      17.502  38.565  26.728  1.00  0.00     0.156 HD
HETATM    9  H   LIG     1      17.197  39.555  25.262  1.00  0.00     0.156 HD
ENDBRANCH   1   7
TORSDOF 1
ENDMDL
MODEL 4
REMARK VINA RESULT:      -5.0      4.476      5.654
REMARK  1 active torsions:
REMARK  status: ('A' for Active; 'I' for Inactive)
REMARK    1  A    between atoms: N_1  and  C_2 
ROOT
HETATM    1  C   LIG     1      17.676  37.591  21.375  1.00  0.00     0.025 A 
HETATM    2  C   LIG     1      18.108  36.656  20.421  1.00  0.00     0.029 A 
HETATM    3  C   LIG     1      19.107  36.999  19.504  1.00  0.00     0.002 A 
HETATM    4  C   LIG     1      19.678  38.275  19.533  1.00  0.00     0.000 A 
HETATM    5  C   LIG     1      19.250  39.211  20.480  1.00  0.00     0.002 A 
HETATM    6  C   LIG     1      18.252  38.871  21.400  1.00  0.00     0.029 A 
ENDROOT
BRANCH   1   7
HETATM    7  N   LIG     1      16.655  37.243  22.313  1.00  0.00    -0.399 N 
HETATM    8  H   LIG     1      15.704  37.673  22.254  1.00  0.00     0.156 HD
HETATM    9  H   LIG     1      16.841  36.551  23.074  1.00  0.00     0.156 HD
ENDBRANCH   1   7
TORSDOF 1
ENDMDL
MODEL 5
REMARK VINA RESULT:      -5.0      4.489      5.416
REMARK  1 active torsions:
REMARK  status: ('A' for Active; 'I' for Inactive)
REMARK    1  A    between atoms: N_1  and  C_2 
ROOT
HETATM    1  C   LIG     1      17.678  37.568  21.353  1.00  0.00     0.025 A 
HETATM    2  C   LIG     1      18.228  38.858  21.398  1.00  0.00     0.029 A 
HETATM    3  C   LIG     1      19.230  39.226  20.494  1.00  0.00     0.002 A 
HETATM    4  C   LIG     1      19.687  38.310  19.542  1.00  0.00     0.000 A 
HETATM    5  C   LIG     1      19.143  37.023  19.493  1.00  0.00     0.002 A 
HETATM    6  C   LIG     1      18.140  36.651  20.396  1.00  0.00     0.029 A 
ENDROOT
BRANCH   1   7
HETATM    7  N   LIG     1      16.654  37.189  22.276  1.00  0.00    -0.399 N 
HETATM    8  H   LIG     1      15.657  37.117  21.970  1.00  0.00     0.156 HD
HETATM    9  H   LIG     1      16.884  36.977  23.273  1.00  0.00     0.156 HD
ENDBRANCH   1   7
TORSDOF 1
ENDMDL
MODEL 6
REMARK VINA RESULT:      -4.9      4.113      5.062
REMARK  1 active torsions:
REMARK  status: ('A' for Active; 'I' for Inactive)
REMARK    1  A    between atoms: N_1  and  C_2 
ROOT
HETATM    1  C   LIG     1      18.699  38.587  20.663  1.00  0.00     0.025 A 
HETATM    2  C   LIG     1      18.649  37.325  20.052  1.00  0.00     0.029 A 
HETATM    3  C   LIG     1      17.808  36.330  20.562  1.00  0.00     0.002 A 
HETATM    4  C   LIG     1      17.014  36.590  21.683  1.00  0.00     0.000 A 
HETATM    5  C   LIG     1      17.060  37.846  22.296  1.00  0.00     0.002 A 
HETATM    6  C   LIG     1      17.900  38.843  21.788  1.00  0.00     0.029 A 
ENDROOT
BRANCH   1   7
HETATM    7  N   LIG     1      19.558  39.605  20.144  1.00  0.00    -0.399 N 
HETATM    8  H   LIG     1      19.814  40.436  20.724  1.00  0.00     0.156 HD
HETATM    9  H   LIG     1      19.947  39.535  19.177  1.00  0.00     0.156 HD
ENDBRANCH   1   7
TORSDOF 1
ENDMDL
MODEL 7
REMARK VINA RESULT:      -4.8      1.713      3.048
REMARK  1 active torsions:
REMARK  status: ('A' for Active; 'I' for Inactive)
REMARK    1  A    between atoms: N_1  and  C_2 
ROOT
HETATM    1  C   LIG     1      17.489  36.430  25.294  1.00  0.00     0.025 A 
HETATM    2  C   LIG     1      17.314  35.210  24.622  1.00  0.00     0.029 A 
HETATM    3  C   LIG     1      17.007  35.196  23.258  1.00  0.00     0.002 A 
HETATM    4  C   LIG     1      16.874  36.399  22.557  1.00  0.00     0.000 A 
HETATM    5  C   LIG     1      17.048  37.617  23.221  1.00  0.00     0.002 A 
HETATM    6  C   LIG     1      17.355  37.634  24.586  1.00  0.00     0.029 A 
ENDROOT
BRANCH   1   7
HETATM    7  N   LIG     1      17.802  36.446  26.689  1.00  0.00    -0.399 N 
HETATM    8  H   LIG     1      17.604  35.615  27.291  1.00  0.00     0.156 HD
HETATM    9  H   LIG     1      18.236  37.288  27.130  1.00  0.00     0.156 HD
ENDBRANCH   1   7
TORSDOF 1
ENDMDL
MODEL 8
REMARK VINA RESULT:      -4.7      3.224      4.117
REMARK  1 active torsions:
REMARK  status: ('A' for Active; 'I' for Inactive)
REMARK    1  A    between atoms: N_1  and  C_2 
ROOT
HETATM    1  C   LIG     1      16.808  37.608  22.767  1.00  0.00     0.025 A 
HETATM    2  C   LIG     1      17.636  38.527  22.105  1.00  0.00     0.029 A 
HETATM    3  C   LIG     1      18.320  38.148  20.945  1.00  0.00     0.002 A 
HETATM    4  C   LIG     1      18.180  36.851  20.441  1.00  0.00     0.000 A 
HETATM    5  C   LIG     1      17.357  35.931  21.097  1.00  0.00     0.002 A 
HETATM    6  C   LIG     1      16.671  36.307  22.257  1.00  0.00     0.029 A 
ENDROOT
BRANCH   1   7
HETATM    7  N   LIG     1      16.108  37.993  23.953  1.00  0.00    -0.399 N 
HETATM    8  H   LIG     1      15.099  37.754  24.080  1.00  0.00     0.156 HD
HETATM    9  H   LIG     1      16.595  38.518  24.715  1.00  0.00     0.156 HD
ENDBRANCH   1   7
TORSDOF 1
ENDMDL
MODEL 9
REMARK VINA RESULT:      -4.7     11.684     12.684
REMARK  1 active torsions:
REMARK  status: ('A' for Active; 'I' for Inactive)
REMARK    1  A    between atoms: N_1  and  C_2 
ROOT
HETATM    1  C   LIG     1      13.574  29.770  14.571  1.00  0.00     0.025 A 
HETATM    2  C   LIG     1      13.173  30.450  15.731  1.00  0.00     0.029 A 
HETATM    3  C   LIG     1      13.983  31.455  16.271  1.00  0.00     0.002 A 
HETATM    4  C   LIG     1      15.194  31.785  15.657  1.00  0.00     0.000 A 
HETATM    5  C   LIG     1      15.599  31.110  14.501  1.00  0.00     0.002 A 
HETATM    6  C   LIG     1      14.791  30.105  13.958  1.00  0.00     0.029 A 
ENDROOT
BRANCH   1   7
HETATM    7  N   LIG     1      12.748  28.742  14.017  1.00  0.00    -0.399 N 
HETATM    8  H   LIG     1      13.136  28.057  13.330  1.00  0.00     0.156 HD
HETATM    9  H   LIG     1      11.744  28.657  14.292  1.00  0.00     0.156 HD
ENDBRANCH   1   7
TORSDOF 1
ENDMDL
MODEL 10
REMARK VINA RESULT:      -4.7     11.654     12.707
REMARK  1 active torsions:
REMARK  status: ('A' for Active; 'I' for Inactive)
REMARK    1  A    between atoms: N_1  and  C_2 
ROOT
HETATM    1  C   LIG     1      13.582  29.796  14.585  1.00  0.00     0.025 A 
HETATM    2  C   LIG     1      14.794  30.140  13.965  1.00  0.00     0.029 A 
HETATM    3  C   LIG     1      15.600  31.145  14.508  1.00  0.00     0.002 A 
HETATM    4  C   LIG     1      15.203  31.811  15.671  1.00  0.00     0.000 A 
HETATM    5  C   LIG     1      13.997  31.473  16.293  1.00  0.00     0.002 A 
HETATM    6  C   LIG     1      13.187  30.468  15.752  1.00  0.00     0.029 A 
ENDROOT
BRANCH   1   7
HETATM    7  N   LIG     1      12.755  28.770  14.031  1.00  0.00    -0.399 N 
HETATM    8  H   LIG     1      12.207  28.938  13.158  1.00  0.00     0.156 HD
HETATM    9  H   LIG     1      12.687  27.833  14.488  1.00  0.00     0.156 HD
ENDBRANCH   1   7
TORSDOF 1
ENDMDL
MODEL 11
REMARK VINA RESULT:      -4.7     10.723     11.858
REMARK  1 active torsions:
REMARK  status: ('A' for Active; 'I' for Inactive)
REMARK    1  A    between atoms: N_1  and  C_2 
ROOT
HETATM    1  C   LIG     1      13.984  31.465  16.454  1.00  0.00     0.025 A 
HETATM    2  C   LIG     1      13.318  30.429  15.782  1.00  0.00     0.029 A 
HETATM    3  C   LIG     1      13.829  29.928  14.580  1.00  0.00     0.002 A 
HETATM    4  C   LIG     1      15.006  30.458  14.043  1.00  0.00     0.000 A 
HETATM    5  C   LIG     1      15.674  31.491  14.708  1.00  0.00     0.002 A 
HETATM    6  C   LIG     1      15.165  31.994  15.911  1.00  0.00     0.029 A 
ENDROOT
BRANCH   1   7
HETATM    7  N   LIG     1      13.463  31.979  17.682  1.00  0.00    -0.399 N 
HETATM    8  H   LIG     1      14.102  32.356  18.418  1.00  0.00     0.156 HD
HETATM    9  H   LIG     1      12.434  31.990  17.864  1.00  0.00     0.156 HD
ENDBRANCH   1   7
TORSDOF 1
ENDMDL
MODEL 12
REMARK VINA RESULT:      -4.7     10.763     11.797
REMARK  1 active torsions:
REMARK  status: ('A' for Active; 'I' for Inactive)
REMARK    1  A    between atoms: N_1  and  C_2 
ROOT
HETATM    1  C   LIG     1      13.973  31.450  16.424  1.00  0.00     0.025 A 
HETATM    2  C   LIG     1      15.162  31.959  15.879  1.00  0.00     0.029 A 
HETATM    3  C   LIG     1      15.666  31.438  14.683  1.00  0.00     0.002 A 
HETATM    4  C   LIG     1      14.986  30.408  14.025  1.00  0.00     0.000 A 
HETATM    5  C   LIG     1      13.802  29.896  14.564  1.00  0.00     0.002 A 
HETATM    6  C   LIG     1      13.295  30.415  15.761  1.00  0.00     0.029 A 
ENDROOT
BRANCH   1   7
HETATM    7  N   LIG     1      13.456  31.980  17.647  1.00  0.00    -0.399 N 
HETATM    8  H   LIG     1      12.938  32.888  17.660  1.00  0.00     0.156 HD
HETATM    9  H   LIG     1      13.586  31.469  18.549  1.00  0.00     0.156 HD
ENDBRANCH   1   7
TORSDOF 1
ENDMDL
MODEL 13
REMARK VINA RESULT:      -4.7      4.557      5.225
REMARK  1 active torsions:
REMARK  status: ('A' for Active; 'I' for Inactive)
REMARK    1  A    between atoms: N_1  and  C_2 
ROOT
HETATM    1  C   LIG     1      19.091  38.117  20.079  1.00  0.00     0.025 A 
HETATM    2  C   LIG     1      18.524  38.905  21.093  1.00  0.00     0.029 A 
HETATM    3  C   LIG     1      17.483  38.396  21.878  1.00  0.00     0.002 A 
HETATM    4  C   LIG     1      17.005  37.102  21.656  1.00  0.00     0.000 A 
HETATM    5  C   LIG     1      17.567  36.313  20.647  1.00  0.00     0.002 A 
HETATM    6  C   LIG     1      18.607  36.818  19.860  1.00  0.00     0.029 A 
ENDROOT
BRANCH   1   7
HETATM    7  N   LIG     1      20.154  38.635  19.275  1.00  0.00    -0.399 N 
HETATM    8  H   LIG     1      20.114  38.574  18.233  1.00  0.00     0.156 HD
HETATM    9  H   LIG     1      20.988  39.084  19.715  1.00  0.00     0.156 HD
ENDBRANCH   1   7
TORSDOF 1
ENDMDL
MODEL 14
REMARK VINA RESULT:      -4.6      9.662     10.768
REMARK  1 active torsions:
REMARK  status: ('A' for Active; 'I' for Inactive)
REMARK    1  A    between atoms: N_1  and  C_2 
ROOT
HETATM    1  C   LIG     1      14.789  32.791  16.810  1.00  0.00     0.025 A 
HETATM    2  C   LIG     1      15.614  32.431  15.733  1.00  0.00     0.029 A 
HETATM    3  C   LIG     1      15.299  31.318  14.948  1.00  0.00     0.002 A 
HETATM    4  C   LIG     1      14.159  30.559  15.232  1.00  0.00     0.000 A 
HETATM    5  C   LIG     1      13.334  30.913  16.303  1.00  0.00     0.002 A 
HETATM    6  C   LIG     1      13.646  32.026  17.091  1.00  0.00     0.029 A 
ENDROOT
BRANCH   1   7
HETATM    7  N   LIG     1      15.110  33.929  17.614  1.00  0.00    -0.399 N 
HETATM    8  H   LIG     1      15.806  34.636  17.287  1.00  0.00     0.156 HD
HETATM    9  H   LIG     1      14.652  34.074  18.543  1.00  0.00     0.156 HD
ENDBRANCH   1   7
TORSDOF 1
ENDMDL
MODEL 15
REMARK VINA RESULT:      -4.6      9.662     10.767
REMARK  1 active torsions:
REMARK  status: ('A' for Active; 'I' for Inactive)
REMARK    1  A    between atoms: N_1  and  C_2 
ROOT
HETATM    1  C   LIG     1      14.778  32.796  16.811  1.00  0.00     0.025 A 
HETATM    2  C   LIG     1      13.645  32.011  17.077  1.00  0.00     0.029 A 
HETATM    3  C   LIG     1      13.358  30.899  16.278  1.00  0.00     0.002 A 
HETATM    4  C   LIG     1      14.200  30.564  15.213  1.00  0.00     0.000 A 
HETATM    5  C   LIG     1      15.330  31.343  14.944  1.00  0.00     0.002 A 
HETATM    6  C   LIG     1      15.620  32.456  15.740  1.00  0.00     0.029 A 
ENDROOT
BRANCH   1   7
HETATM    7  N   LIG     1      15.074  33.933  17.626  1.00  0.00    -0.399 N 
HETATM    8  H   LIG     1      15.801  33.881  18.374  1.00  0.00     0.156 HD
HETATM    9  H   LIG     1      14.568  34.837  17.485  1.00  0.00     0.156 HD
ENDBRANCH   1   7
TORSDOF 1
ENDMDL
MODEL 16
REMARK VINA RESULT:      -4.5     11.092     12.144
REMARK  1 active torsions:
REMARK  status: ('A' for Active; 'I' for Inactive)
REMARK    1  A    between atoms: N_1  and  C_2 
ROOT
HETATM    1  C   LIG     1      14.657  30.503  14.533  1.00  0.00     0.025 A 
HETATM    2  C   LIG     1      13.429  30.123  15.097  1.00  0.00     0.029 A 
HETATM    3  C   LIG     1      12.953  30.767  16.244  1.00  0.00     0.002 A 
HETATM    4  C   LIG     1      13.699  31.792  16.833  1.00  0.00     0.000 A 
HETATM    5  C   LIG     1      14.923  32.174  16.276  1.00  0.00     0.002 A 
HETATM    6  C   LIG     1      15.402  31.533  15.129  1.00  0.00     0.029 A 
ENDROOT
BRANCH   1   7
HETATM    7  N   LIG     1      15.146  29.846  13.361  1.00  0.00    -0.399 N 
HETATM    8  H   LIG     1      14.516  29.244  12.784  1.00  0.00     0.156 HD
HETATM    9  H   LIG     1      16.140  29.959  13.060  1.00  0.00     0.156 HD
ENDBRANCH   1   7
TORSDOF 1
ENDMDL
MODEL 17
REMARK VINA RESULT:      -4.5     10.729     11.884
REMARK  1 active torsions:
REMARK  status: ('A' for Active; 'I' for Inactive)
REMARK    1  A    between atoms: N_1  and  C_2 
ROOT
HETATM    1  C   LIG     1      15.322  31.873  15.649  1.00  0.00     0.025 A 
HETATM    2  C   LIG     1      15.555  31.100  14.501  1.00  0.00     0.029 A 
HETATM    3  C   LIG     1      14.630  30.126  14.110  1.00  0.00     0.002 A 
HETATM    4  C   LIG     1      13.470  29.920  14.861  1.00  0.00     0.000 A 
HETATM    5  C   LIG     1      13.232  30.687  16.006  1.00  0.00     0.002 A 
HETATM    6  C   LIG     1      14.155  31.661  16.400  1.00  0.00     0.029 A 
ENDROOT
BRANCH   1   7
HETATM    7  N   LIG     1      16.267  32.868  16.051  1.00  0.00    -0.399 N 
HETATM    8  H   LIG     1      16.697  32.843  17.003  1.00  0.00     0.156 HD
HETATM    9  H   LIG     1      16.544  33.637  15.400  1.00  0.00     0.156 HD
ENDBRANCH   1   7
TORSDOF 1
ENDMDL
MODEL 18
REMARK VINA RESULT:      -4.4      3.783      4.943
REMARK  1 active torsions:
REMARK  status: ('A' for Active; 'I' for Inactive)
REMARK    1  A    between atoms: N_1  and  C_2 
ROOT
HETATM    1  C   LIG     1      17.185  36.413  21.620  1.00  0.00     0.025 A 
HETATM    2  C   LIG     1      18.089  36.713  20.590  1.00  0.00     0.029 A 
HETATM    3  C   LIG     1      18.586  38.013  20.447  1.00  0.00     0.002 A 
HETATM    4  C   LIG     1      18.183  39.018  21.331  1.00  0.00     0.000 A 
HETATM    5  C   LIG     1      17.282  38.725  22.360  1.00  0.00     0.002 A 
HETATM    6  C   LIG     1      16.783  37.426  22.505  1.00  0.00     0.029 A 
ENDROOT
BRANCH   1   7
HETATM    7  N   LIG     1      16.675  35.085  21.768  1.00  0.00    -0.399 N 
HETATM    8  H   LIG     1      15.848  34.894  22.377  1.00  0.00     0.156 HD
HETATM    9  H   LIG     1      17.120  34.283  21.267  1.00  0.00     0.156 HD
ENDBRANCH   1   7
TORSDOF 1
ENDMDL
MODEL 19
REMARK VINA RESULT:      -4.4      2.642      3.693
REMARK  1 active torsions:
REMARK  status: ('A' for Active; 'I' for Inactive)
REMARK    1  A    between atoms: N_1  and  C_2 
ROOT
HETATM    1  C   LIG     1      17.032  36.072  21.515  1.00  0.00     0.025 A 
HETATM    2  C   LIG     1      16.987  35.113  22.539  1.00  0.00     0.029 A 
HETATM    3  C   LIG     1      17.067  35.510  23.878  1.00  0.00     0.002 A 
HETATM    4  C   LIG     1      17.190  36.864  24.202  1.00  0.00     0.000 A 
HETATM    5  C   LIG     1      17.235  37.824  23.186  1.00  0.00     0.002 A 
HETATM    6  C   LIG     1      17.155  37.431  21.846  1.00  0.00     0.029 A 
ENDROOT
BRANCH   1   7
HETATM    7  N   LIG     1      16.952  35.669  20.146  1.00  0.00    -0.399 N 
HETATM    8  H   LIG     1      17.444  36.210  19.400  1.00  0.00     0.156 HD
HETATM    9  H   LIG     1      16.401  34.826  19.868  1.00  0.00     0.156 HD
ENDBRANCH   1   7
TORSDOF 1
ENDMDL
MODEL 20
REMARK VINA RESULT:      -4.4      2.587      3.463
REMARK  1 active torsions:
REMARK  status: ('A' for Active; 'I' for Inactive)
REMARK    1  A    between atoms: N_1  and  C_2 
ROOT
HETATM    1  C   LIG     1      17.014  36.078  21.579  1.00  0.00     0.025 A 
HETATM    2  C   LIG     1      17.152  37.429  21.936  1.00  0.00     0.029 A 
HETATM    3  C   LIG     1      17.248  37.793  23.283  1.00  0.00     0.002 A 
HETATM    4  C   LIG     1      17.206  36.814  24.279  1.00  0.00     0.000 A 
HETATM    5  C   LIG     1      17.069  35.467  23.930  1.00  0.00     0.002 A 
HETATM    6  C   LIG     1      16.973  35.098  22.584  1.00  0.00     0.029 A 
ENDROOT
BRANCH   1   7
HETATM    7  N   LIG     1      16.916  35.703  20.203  1.00  0.00    -0.399 N 
HETATM    8  H   LIG     1      16.359  34.867  19.916  1.00  0.00     0.156 HD
HETATM    9  H   LIG     1      17.397  36.259  19.461  1.00  0.00     0.156 HD
ENDBRANCH   1   7
TORSDOF 1
ENDMDL
