MODEL 1
REMARK VINA RESULT:      -2.8      0.000      0.000
REMARK  2 active torsions:
REMARK  status: ('A' for Active; 'I' for Inactive)
REMARK    1  A    between atoms: N_1  and  C_2 
REMARK    2  A    between atoms: C_2  and  N_3 
ROOT
HETATM    1  C   LIG     1      19.609  38.764  19.845  1.00  0.00     0.163 C 
HETATM    2  S   LIG     1      19.020  37.268  19.540  1.00  0.00    -0.042 SA
ENDROOT
BRANCH   1   3
HETATM    3  N   LIG     1      20.494  39.385  18.913  1.00  0.00    -0.377 N 
HETATM    4  H   LIG     1      20.130  39.800  18.027  1.00  0.00     0.158 HD
HETATM    5  H   LIG     1      21.519  39.433  19.109  1.00  0.00     0.158 HD
ENDBRANCH   1   3
BRANCH   1   6
HETATM    6  N   LIG     1      19.238  39.446  21.043  1.00  0.00    -0.377 N 
HETATM    7  H   LIG     1      19.447  40.462  21.160  1.00  0.00     0.158 HD
HETATM    8  H   LIG     1      18.754  38.940  21.818  1.00  0.00     0.158 HD
ENDBRANCH   1   6
TORSDOF 2
ENDMDL
MODEL 2
REMARK VINA RESULT:      -2.7      6.076      6.258
REMARK  2 active torsions:
REMARK  status: ('A' for Active; 'I' for Inactive)
REMARK    1  A    between atoms: N_1  and  C_2 
REMARK    2  A    between atoms: C_2  and  N_3 
ROOT
HETATM    1  C   LIG     1      17.745  37.465  25.553  1.00  0.00     0.163 C 
HETATM    2  S   LIG     1      17.164  36.439  24.419  1.00  0.00    -0.042 SA
ENDROOT
BRANCH   1   3
HETATM    3  N   LIG     1      18.766  37.030  26.451  1.00  0.00    -0.377 N 
HETATM    4  H   LIG     1      19.197  37.695  27.131  1.00  0.00     0.158 HD
HETATM    5  H   LIG     1      19.093  36.038  26.439  1.00  0.00     0.158 HD
ENDBRANCH   1   3
BRANCH   1   6
HETATM    6  N   LIG     1      17.229  38.793  25.645  1.00  0.00    -0.377 N 
HETATM    7  H   LIG     1      16.259  39.007  25.325  1.00  0.00     0.158 HD
HETATM    8  H   LIG     1      17.813  39.567  26.034  1.00  0.00     0.158 HD
ENDBRANCH   1   6
TORSDOF 2
ENDMDL
MODEL 3
REMARK VINA RESULT:      -2.7      6.072      6.473
REMARK  2 active torsions:
REMARK  status: ('A' for Active; 'I' for Inactive)
REMARK    1  A    between atoms: N_1  and  C_2 
REMARK    2  A    between atoms: C_2  and  N_3 
ROOT
HETATM    1  C   LIG     1      15.418  34.529  20.925  1.00  0.00     0.163 C 
HETATM    2  S   LIG     1      16.605  35.145  21.868  1.00  0.00    -0.042 SA
ENDROOT
BRANCH   1   3
HETATM    3  N   LIG     1      14.211  34.051  21.520  1.00  0.00    -0.377 N 
HETATM    4  H   LIG     1      14.107  34.013  22.559  1.00  0.00     0.158 HD
HETATM    5  H   LIG     1      13.416  33.735  20.922  1.00  0.00     0.158 HD
ENDBRANCH   1   3
BRANCH   1   6
HETATM    6  N   LIG     1      15.591  34.467  19.510  1.00  0.00    -0.377 N 
HETATM    7  H   LIG     1      15.048  33.781  18.940  1.00  0.00     0.158 HD
HETATM    8  H   LIG     1      16.259  35.107  19.025  1.00  0.00     0.158 HD
ENDBRANCH   1   6
TORSDOF 2
ENDMDL
MODEL 4
REMARK VINA RESULT:      -2.7      6.215      6.421
REMARK  2 active torsions:
REMARK  status: ('A' for Active; 'I' for Inactive)
REMARK    1  A    between atoms: N_1  and  C_2 
REMARK    2  A    between atoms: C_2  and  N_3 
ROOT
HETATM    1  C   LIG     1      17.518  37.282  25.381  1.00  0.00     0.163 C 
HETATM    2  S   LIG     1      18.269  36.350  26.496  1.00  0.00    -0.042 SA
ENDROOT
BRANCH   1   3
HETATM    3  N   LIG     1      17.275  38.662  25.654  1.00  0.00    -0.377 N 
HETATM    4  H   LIG     1      16.630  38.949  26.423  1.00  0.00     0.158 HD
HETATM    5  H   LIG     1      17.743  39.404  25.086  1.00  0.00     0.158 HD
ENDBRANCH   1   3
BRANCH   1   6
HETATM    6  N   LIG     1      17.105  36.715  24.138  1.00  0.00    -0.377 N 
HETATM    7  H   LIG     1      16.816  35.714  24.084  1.00  0.00     0.158 HD
HETATM    8  H   LIG     1      17.086  37.293  23.268  1.00  0.00     0.158 HD
ENDBRANCH   1   6
TORSDOF 2
ENDMDL
MODEL 5
REMARK VINA RESULT:      -2.7      9.172      9.235
REMARK  2 active torsions:
REMARK  status: ('A' for Active; 'I' for Inactive)
REMARK    1  A    between atoms: N_1  and  C_2 
REMARK    2  A    between atoms: C_2  and  N_3 
ROOT
HETATM    1  C   LIG     1      13.947  32.013  17.526  1.00  0.00     0.163 C 
HETATM    2  S   LIG     1      15.109  32.543  16.504  1.00  0.00    -0.042 SA
ENDROOT
BRANCH   1   3
HETATM    3  N   LIG     1      12.641  31.721  17.028  1.00  0.00    -0.377 N 
HETATM    4  H   LIG     1      12.503  31.011  16.275  1.00  0.00     0.158 HD
HETATM    5  H   LIG     1      11.805  32.214  17.415  1.00  0.00     0.158 HD
ENDBRANCH   1   3
BRANCH   1   6
HETATM    6  N   LIG     1      14.238  31.845  18.913  1.00  0.00    -0.377 N 
HETATM    7  H   LIG     1      14.009  30.949  19.397  1.00  0.00     0.158 HD
HETATM    8  H   LIG     1      14.684  32.614  19.461  1.00  0.00     0.158 HD
ENDBRANCH   1   6
TORSDOF 2
ENDMDL
MODEL 6
REMARK VINA RESULT:      -2.7      5.447      5.500
REMARK  2 active torsions:
REMARK  status: ('A' for Active; 'I' for Inactive)
REMARK    1  A    between atoms: N_1  and  C_2 
REMARK    2  A    between atoms: C_2  and  N_3 
ROOT
HETATM    1  C   LIG     1      16.505  37.472  23.736  1.00  0.00     0.163 C 
HETATM    2  S   LIG     1      17.328  37.967  25.061  1.00  0.00    -0.042 SA
ENDROOT
BRANCH   1   3
HETATM    3  N   LIG     1      16.925  36.303  23.033  1.00  0.00    -0.377 N 
HETATM    4  H   LIG     1      17.239  35.453  23.550  1.00  0.00     0.158 HD
HETATM    5  H   LIG     1      16.920  36.285  21.988  1.00  0.00     0.158 HD
ENDBRANCH   1   3
BRANCH   1   6
HETATM    6  N   LIG     1      15.370  38.211  23.284  1.00  0.00    -0.377 N 
HETATM    7  H   LIG     1      14.822  37.885  22.458  1.00  0.00     0.158 HD
HETATM    8  H   LIG     1      15.072  39.084  23.773  1.00  0.00     0.158 HD
ENDBRANCH   1   6
TORSDOF 2
ENDMDL
MODEL 7
REMARK VINA RESULT:      -2.6     12.355     12.374
REMARK  2 active torsions:
REMARK  status: ('A' for Active; 'I' for Inactive)
REMARK    1  A    between atoms: N_1  and  C_2 
REMARK    2  A    between atoms: C_2  and  N_3 
ROOT
HETATM    1  C   LIG     1      13.358  29.576  14.536  1.00  0.00     0.163 C 
HETATM    2  S   LIG     1      14.904  29.889  14.101  1.00  0.00    -0.042 SA
ENDROOT
BRANCH   1   3
HETATM    3  N   LIG     1      12.612  28.575  13.843  1.00  0.00    -0.377 N 
HETATM    4  H   LIG     1      13.062  27.988  13.107  1.00  0.00     0.158 HD
HETATM    5  H   LIG     1      11.604  28.417  14.069  1.00  0.00     0.158 HD
ENDBRANCH   1   3
BRANCH   1   6
HETATM    6  N   LIG     1      12.756  30.306  15.605  1.00  0.00    -0.377 N 
HETATM    7  H   LIG     1      11.853  30.807  15.460  1.00  0.00     0.158 HD
HETATM    8  H   LIG     1      13.210  30.346  16.545  1.00  0.00     0.158 HD
ENDBRANCH   1   6
TORSDOF 2
ENDMDL
MODEL 8
REMARK VINA RESULT:      -2.5      8.017      8.115
REMARK  2 active torsions:
REMARK  status: ('A' for Active; 'I' for Inactive)
REMARK    1  A    between atoms: N_1  and  C_2 
REMARK    2  A    between atoms: C_2  and  N_3 
ROOT
HETATM    1  C   LIG     1      14.901  32.568  18.114  1.00  0.00     0.163 C 
HETATM    2  S   LIG     1      15.239  32.640  16.515  1.00  0.00    -0.042 SA
ENDROOT
BRANCH   1   3
HETATM    3  N   LIG     1      15.391  33.582  18.992  1.00  0.00    -0.377 N 
HETATM    4  H   LIG     1      15.843  33.331  19.898  1.00  0.00     0.158 HD
HETATM    5  H   LIG     1      15.305  34.591  18.734  1.00  0.00     0.158 HD
ENDBRANCH   1   3
BRANCH   1   6
HETATM    6  N   LIG     1      14.118  31.492  18.631  1.00  0.00    -0.377 N 
HETATM    7  H   LIG     1      13.130  31.652  18.927  1.00  0.00     0.158 HD
HETATM    8  H   LIG     1      14.521  30.533  18.718  1.00  0.00     0.158 HD
ENDBRANCH   1   6
TORSDOF 2
ENDMDL
MODEL 9
REMARK VINA RESULT:      -2.5      7.909      8.017
REMARK  2 active torsions:
REMARK  status: ('A' for Active; 'I' for Inactive)
REMARK    1  A    between atoms: N_1  and  C_2 
REMARK    2  A    between atoms: C_2  and  N_3 
ROOT
HETATM    1  C   LIG     1      14.915  32.835  17.753  1.00  0.00     0.163 C 
HETATM    2  S   LIG     1      15.424  32.580  16.219  1.00  0.00    -0.042 SA
ENDROOT
BRANCH   1   3
HETATM    3  N   LIG     1      14.052  31.888  18.383  1.00  0.00    -0.377 N 
HETATM    4  H   LIG     1      14.393  30.930  18.622  1.00  0.00     0.158 HD
HETATM    5  H   LIG     1      13.066  32.144  18.616  1.00  0.00     0.158 HD
ENDBRANCH   1   3
BRANCH   1   6
HETATM    6  N   LIG     1      15.331  34.004  18.458  1.00  0.00    -0.377 N 
HETATM    7  H   LIG     1      14.900  34.931  18.246  1.00  0.00     0.158 HD
HETATM    8  H   LIG     1      16.069  33.948  19.195  1.00  0.00     0.158 HD
ENDBRANCH   1   6
TORSDOF 2
ENDMDL
MODEL 10
REMARK VINA RESULT:      -2.5     12.681     12.825
REMARK  2 active torsions:
REMARK  status: ('A' for Active; 'I' for Inactive)
REMARK    1  A    between atoms: N_1  and  C_2 
REMARK    2  A    between atoms: C_2  and  N_3 
ROOT
HETATM    1  C   LIG     1      12.868  30.804  27.139  1.00  0.00     0.163 C 
HETATM    2  S   LIG     1      12.468  32.387  27.249  1.00  0.00    -0.042 SA
ENDROOT
BRANCH   1   3
HETATM    3  N   LIG     1      12.573  30.077  25.946  1.00  0.00    -0.377 N 
HETATM    4  H   LIG     1      13.253  30.052  25.154  1.00  0.00     0.158 HD
HETATM    5  H   LIG     1      11.671  29.558  25.853  1.00  0.00     0.158 HD
ENDBRANCH   1   3
BRANCH   1   6
HETATM    6  N   LIG     1      13.509  30.152  28.235  1.00  0.00    -0.377 N 
HETATM    7  H   LIG     1      13.485  30.575  29.188  1.00  0.00     0.158 HD
HETATM    8  H   LIG     1      14.008  29.245  28.098  1.00  0.00     0.158 HD
ENDBRANCH   1   6
TORSDOF 2
ENDMDL
MODEL 11
REMARK VINA RESULT:      -2.5      8.432      8.537
REMARK  2 active torsions:
REMARK  status: ('A' for Active; 'I' for Inactive)
REMARK    1  A    between atoms: N_1  and  C_2 
REMARK    2  A    between atoms: C_2  and  N_3 
ROOT
HETATM    1  C   LIG     1      14.758  32.208  18.165  1.00  0.00     0.163 C 
HETATM    2  S   LIG     1      15.206  32.069  19.732  1.00  0.00    -0.042 SA
ENDROOT
BRANCH   1   3
HETATM    3  N   LIG     1      13.520  31.649  17.725  1.00  0.00    -0.377 N 
HETATM    4  H   LIG     1      13.477  31.055  16.868  1.00  0.00     0.158 HD
HETATM    5  H   LIG     1      12.640  31.828  18.260  1.00  0.00     0.158 HD
ENDBRANCH   1   3
BRANCH   1   6
HETATM    6  N   LIG     1      15.606  32.886  17.238  1.00  0.00    -0.377 N 
HETATM    7  H   LIG     1      16.534  32.485  16.979  1.00  0.00     0.158 HD
HETATM    8  H   LIG     1      15.311  33.790  16.807  1.00  0.00     0.158 HD
ENDBRANCH   1   6
TORSDOF 2
ENDMDL
MODEL 12
REMARK VINA RESULT:      -2.4     12.149     12.241
REMARK  2 active torsions:
REMARK  status: ('A' for Active; 'I' for Inactive)
REMARK    1  A    between atoms: N_1  and  C_2 
REMARK    2  A    between atoms: C_2  and  N_3 
ROOT
HETATM    1  C   LIG     1      13.942  29.536  14.266  1.00  0.00     0.163 C 
HETATM    2  S   LIG     1      13.941  30.614  15.497  1.00  0.00    -0.042 SA
ENDROOT
BRANCH   1   3
HETATM    3  N   LIG     1      15.104  29.388  13.450  1.00  0.00    -0.377 N 
HETATM    4  H   LIG     1      16.020  29.116  13.870  1.00  0.00     0.158 HD
HETATM    5  H   LIG     1      15.050  29.548  12.419  1.00  0.00     0.158 HD
ENDBRANCH   1   3
BRANCH   1   6
HETATM    6  N   LIG     1      12.781  28.746  14.008  1.00  0.00    -0.377 N 
HETATM    7  H   LIG     1      12.584  27.893  14.576  1.00  0.00     0.158 HD
HETATM    8  H   LIG     1      12.113  29.011  13.250  1.00  0.00     0.158 HD
ENDBRANCH   1   6
TORSDOF 2
ENDMDL
MODEL 13
REMARK VINA RESULT:      -2.4      4.671      4.891
REMARK  2 active torsions:
REMARK  status: ('A' for Active; 'I' for Inactive)
REMARK    1  A    between atoms: N_1  and  C_2 
REMARK    2  A    between atoms: C_2  and  N_3 
ROOT
HETATM    1  C   LIG     1      16.524  37.722  22.758  1.00  0.00     0.163 C 
HETATM    2  S   LIG     1      17.603  38.771  22.116  1.00  0.00    -0.042 SA
ENDROOT
BRANCH   1   3
HETATM    3  N   LIG     1      15.216  38.174  23.112  1.00  0.00    -0.377 N 
HETATM    4  H   LIG     1      14.482  37.497  23.417  1.00  0.00     0.158 HD
HETATM    5  H   LIG     1      14.979  39.190  23.072  1.00  0.00     0.158 HD
ENDBRANCH   1   3
BRANCH   1   6
HETATM    6  N   LIG     1      16.891  36.359  22.966  1.00  0.00    -0.377 N 
HETATM    7  H   LIG     1      17.801  35.995  22.606  1.00  0.00     0.158 HD
HETATM    8  H   LIG     1      16.256  35.707  23.479  1.00  0.00     0.158 HD
ENDBRANCH   1   6
TORSDOF 2
ENDMDL
MODEL 14
REMARK VINA RESULT:      -2.4     12.336     12.541
REMARK  2 active torsions:
REMARK  status: ('A' for Active; 'I' for Inactive)
REMARK    1  A    between atoms: N_1  and  C_2 
REMARK    2  A    between atoms: C_2  and  N_3 
ROOT
HETATM    1  C   LIG     1      12.873  31.417  27.200  1.00  0.00     0.163 C 
HETATM    2  S   LIG     1      13.923  31.098  28.414  1.00  0.00    -0.042 SA
ENDROOT
BRANCH   1   3
HETATM    3  N   LIG     1      12.230  32.689  27.131  1.00  0.00    -0.377 N 
HETATM    4  H   LIG     1      12.771  33.570  27.277  1.00  0.00     0.158 HD
HETATM    5  H   LIG     1      11.207  32.754  26.931  1.00  0.00     0.158 HD
ENDBRANCH   1   3
BRANCH   1   6
HETATM    6  N   LIG     1      12.600  30.422  26.214  1.00  0.00    -0.377 N 
HETATM    7  H   LIG     1      13.372  29.837  25.825  1.00  0.00     0.158 HD
HETATM    8  H   LIG     1      11.627  30.265  25.869  1.00  0.00     0.158 HD
ENDBRANCH   1   6
TORSDOF 2
ENDMDL
MODEL 15
REMARK VINA RESULT:      -2.3      3.804      4.318
REMARK  2 active torsions:
REMARK  status: ('A' for Active; 'I' for Inactive)
REMARK    1  A    between atoms: N_1  and  C_2 
REMARK    2  A    between atoms: C_2  and  N_3 
ROOT
HETATM    1  C   LIG     1      16.481  37.928  22.591  1.00  0.00     0.163 C 
HETATM    2  S   LIG     1      16.834  36.461  21.959  1.00  0.00    -0.042 SA
ENDROOT
BRANCH   1   3
HETATM    3  N   LIG     1      17.466  38.961  22.586  1.00  0.00    -0.377 N 
HETATM    4  H   LIG     1      17.594  39.572  21.749  1.00  0.00     0.158 HD
HETATM    5  H   LIG     1      18.071  39.120  23.423  1.00  0.00     0.158 HD
ENDBRANCH   1   3
BRANCH   1   6
HETATM    6  N   LIG     1      15.191  38.172  23.150  1.00  0.00    -0.377 N 
HETATM    7  H   LIG     1      14.416  38.535  22.552  1.00  0.00     0.158 HD
HETATM    8  H   LIG     1      15.004  37.990  24.161  1.00  0.00     0.158 HD
ENDBRANCH   1   6
TORSDOF 2
ENDMDL
MODEL 16
REMARK VINA RESULT:      -2.3      5.754      6.042
REMARK  2 active torsions:
REMARK  status: ('A' for Active; 'I' for Inactive)
REMARK    1  A    between atoms: N_1  and  C_2 
REMARK    2  A    between atoms: C_2  and  N_3 
ROOT
HETATM    1  C   LIG     1      15.502  34.768  21.195  1.00  0.00     0.163 C 
HETATM    2  S   LIG     1      15.481  33.441  20.239  1.00  0.00    -0.042 SA
ENDROOT
BRANCH   1   3
HETATM    3  N   LIG     1      14.376  35.645  21.222  1.00  0.00    -0.377 N 
HETATM    4  H   LIG     1      14.348  36.497  20.618  1.00  0.00     0.158 HD
HETATM    5  H   LIG     1      13.563  35.444  21.846  1.00  0.00     0.158 HD
ENDBRANCH   1   3
BRANCH   1   6
HETATM    6  N   LIG     1      16.647  35.049  22.001  1.00  0.00    -0.377 N 
HETATM    7  H   LIG     1      17.310  35.808  21.731  1.00  0.00     0.158 HD
HETATM    8  H   LIG     1      16.836  34.500  22.869  1.00  0.00     0.158 HD
ENDBRANCH   1   6
TORSDOF 2
ENDMDL
MODEL 17
REMARK VINA RESULT:      -2.3     17.705     17.896
REMARK  2 active torsions:
REMARK  status: ('A' for Active; 'I' for Inactive)
REMARK    1  A    between atoms: N_1  and  C_2 
REMARK    2  A    between atoms: C_2  and  N_3 
ROOT
HETATM    1  C   LIG     1      12.209  25.358  10.671  1.00  0.00     0.163 C 
HETATM    2  S   LIG     1      11.624  25.807  12.132  1.00  0.00    -0.042 SA
ENDROOT
BRANCH   1   3
HETATM    3  N   LIG     1      11.759  24.146  10.066  1.00  0.00    -0.377 N 
HETATM    4  H   LIG     1      12.167  23.817   9.163  1.00  0.00     0.158 HD
HETATM    5  H   LIG     1      11.015  23.572  10.522  1.00  0.00     0.158 HD
ENDBRANCH   1   3
BRANCH   1   6
HETATM    6  N   LIG     1      13.169  26.178  10.005  1.00  0.00    -0.377 N 
HETATM    7  H   LIG     1      14.152  25.850   9.885  1.00  0.00     0.158 HD
HETATM    8  H   LIG     1      12.902  27.114   9.628  1.00  0.00     0.158 HD
ENDBRANCH   1   6
TORSDOF 2
ENDMDL
MODEL 18
REMARK VINA RESULT:      -2.3     10.487     10.620
REMARK  2 active torsions:
REMARK  status: ('A' for Active; 'I' for Inactive)
REMARK    1  A    between atoms: N_1  and  C_2 
REMARK    2  A    between atoms: C_2  and  N_3 
ROOT
HETATM    1  C   LIG     1      13.677  30.963  16.326  1.00  0.00     0.163 C 
HETATM    2  S   LIG     1      14.289  32.142  17.281  1.00  0.00    -0.042 SA
ENDROOT
BRANCH   1   3
HETATM    3  N   LIG     1      12.417  30.372  16.644  1.00  0.00    -0.377 N 
HETATM    4  H   LIG     1      12.258  29.920  17.571  1.00  0.00     0.158 HD
HETATM    5  H   LIG     1      11.636  30.387  15.950  1.00  0.00     0.158 HD
ENDBRANCH   1   3
BRANCH   1   6
HETATM    6  N   LIG     1      14.404  30.525  15.178  1.00  0.00    -0.377 N 
HETATM    7  H   LIG     1      15.260  31.035  14.868  1.00  0.00     0.158 HD
HETATM    8  H   LIG     1      14.092  29.689  14.636  1.00  0.00     0.158 HD
ENDBRANCH   1   6
TORSDOF 2
ENDMDL
MODEL 19
REMARK VINA RESULT:      -2.2      2.608      2.856
REMARK  2 active torsions:
REMARK  status: ('A' for Active; 'I' for Inactive)
REMARK    1  A    between atoms: N_1  and  C_2 
REMARK    2  A    between atoms: C_2  and  N_3 
ROOT
HETATM    1  C   LIG     1      18.120  38.607  21.385  1.00  0.00     0.163 C 
HETATM    2  S   LIG     1      17.020  38.781  22.583  1.00  0.00    -0.042 SA
ENDROOT
BRANCH   1   3
HETATM    3  N   LIG     1      18.196  37.379  20.661  1.00  0.00    -0.377 N 
HETATM    4  H   LIG     1      17.489  36.626  20.811  1.00  0.00     0.158 HD
HETATM    5  H   LIG     1      18.963  37.220  19.969  1.00  0.00     0.158 HD
ENDBRANCH   1   3
BRANCH   1   6
HETATM    6  N   LIG     1      19.003  39.682  21.065  1.00  0.00    -0.377 N 
HETATM    7  H   LIG     1      18.706  40.430  20.400  1.00  0.00     0.158 HD
HETATM    8  H   LIG     1      19.954  39.736  21.492  1.00  0.00     0.158 HD
ENDBRANCH   1   6
TORSDOF 2
ENDMDL
MODEL 20
REMARK VINA RESULT:      -2.2     17.306     17.344
REMARK  2 active torsions:
REMARK  status: ('A' for Active; 'I' for Inactive)
REMARK    1  A    between atoms: N_1  and  C_2 
REMARK    2  A    between atoms: C_2  and  N_3 
ROOT
HETATM    1  C   LIG     1      13.047  25.590  10.678  1.00  0.00     0.163 C 
HETATM    2  S   LIG     1      12.404  24.206  10.086  1.00  0.00    -0.042 SA
ENDROOT
BRANCH   1   3
HETATM    3  N   LIG     1      14.143  26.210  10.005  1.00  0.00    -0.377 N 
HETATM    4  H   LIG     1      15.104  25.806  10.065  1.00  0.00     0.158 HD
HETATM    5  H   LIG     1      13.995  27.077   9.441  1.00  0.00     0.158 HD
ENDBRANCH   1   3
BRANCH   1   6
HETATM    6  N   LIG     1      12.513  26.174  11.865  1.00  0.00    -0.377 N 
HETATM    7  H   LIG     1      11.773  26.907  11.807  1.00  0.00     0.158 HD
HETATM    8  H   LIG     1      12.854  25.877  12.806  1.00  0.00     0.158 HD
ENDBRANCH   1   6
TORSDOF 2
ENDMDL
