MODEL 1
REMARK VINA RESULT:      -6.6      0.000      0.000
REMARK  2 active torsions:
REMARK  status: ('A' for Active; 'I' for Inactive)
REMARK    1  A    between atoms: C_2  and  C_3 
REMARK       I    between atoms: C_2  and  N_5 
REMARK    2  A    between atoms: N_5  and  C_6 
ROOT
HETATM    1  C   LIG     1      17.054  35.764  24.003  1.00  0.00     0.034 A 
HETATM    2  C   LIG     1      17.149  37.148  24.244  1.00  0.00     0.029 A 
HETATM    3  C   LIG     1      17.732  37.620  25.424  1.00  0.00     0.002 A 
HETATM    4  C   LIG     1      18.213  36.719  26.377  1.00  0.00     0.000 A 
HETATM    5  C   LIG     1      18.103  35.344  26.156  1.00  0.00     0.002 A 
HETATM    6  C   LIG     1      17.519  34.868  24.978  1.00  0.00     0.029 A 
ENDROOT
BRANCH   1   7
HETATM    7  N   LIG     1      16.438  35.249  22.809  1.00  0.00    -0.327 N 
HETATM    8  C   LIG     1      16.777  35.672  21.480  1.00  0.00     0.221 C 
HETATM    9  O   LIG     1      17.811  36.362  21.269  1.00  0.00    -0.273 OA
HETATM   10  H   LIG     1      15.762  34.458  22.909  1.00  0.00     0.169 HD
BRANCH   8  11
HETATM   11  C   LIG     1      15.951  35.216  20.316  1.00  0.00     0.098 C 
HETATM   12  C   LIG     1      15.642  33.727  20.426  1.00  0.00     0.014 C 
ENDBRANCH   8  11
ENDBRANCH   1   7
TORSDOF 2
ENDMDL
MODEL 2
REMARK VINA RESULT:      -6.6      2.286      3.118
REMARK  2 active torsions:
REMARK  status: ('A' for Active; 'I' for Inactive)
REMARK    1  A    between atoms: C_2  and  C_3 
REMARK       I    between atoms: C_2  and  N_5 
REMARK    2  A    between atoms: N_5  and  C_6 
ROOT
HETATM    1  C   LIG     1      17.700  37.085  24.590  1.00  0.00     0.034 A 
HETATM    2  C   LIG     1      17.136  35.840  24.253  1.00  0.00     0.029 A 
HETATM    3  C   LIG     1      17.215  34.766  25.145  1.00  0.00     0.002 A 
HETATM    4  C   LIG     1      17.865  34.920  26.372  1.00  0.00     0.000 A 
HETATM    5  C   LIG     1      18.447  36.145  26.704  1.00  0.00     0.002 A 
HETATM    6  C   LIG     1      18.372  37.221  25.814  1.00  0.00     0.029 A 
ENDROOT
BRANCH   1   7
HETATM    7  N   LIG     1      17.656  38.200  23.682  1.00  0.00    -0.327 N 
HETATM    8  C   LIG     1      17.742  38.080  22.254  1.00  0.00     0.221 C 
HETATM    9  O   LIG     1      17.626  36.956  21.695  1.00  0.00    -0.273 OA
HETATM   10  H   LIG     1      17.465  39.148  24.079  1.00  0.00     0.169 HD
BRANCH   8  11
HETATM   11  C   LIG     1      17.875  39.309  21.407  1.00  0.00     0.098 C 
HETATM   12  C   LIG     1      19.119  39.225  20.529  1.00  0.00     0.014 C 
ENDBRANCH   8  11
ENDBRANCH   1   7
TORSDOF 2
ENDMDL
MODEL 3
REMARK VINA RESULT:      -6.6      3.274      4.146
REMARK  2 active torsions:
REMARK  status: ('A' for Active; 'I' for Inactive)
REMARK    1  A    between atoms: C_2  and  C_3 
REMARK       I    between atoms: C_2  and  N_5 
REMARK    2  A    between atoms: N_5  and  C_6 
ROOT
HETATM    1  C   LIG     1      17.783  36.726  20.926  1.00  0.00     0.034 A 
HETATM    2  C   LIG     1      18.710  36.768  19.867  1.00  0.00     0.029 A 
HETATM    3  C   LIG     1      19.388  37.954  19.569  1.00  0.00     0.002 A 
HETATM    4  C   LIG     1      19.139  39.110  20.314  1.00  0.00     0.000 A 
HETATM    5  C   LIG     1      18.204  39.083  21.352  1.00  0.00     0.002 A 
HETATM    6  C   LIG     1      17.524  37.899  21.652  1.00  0.00     0.029 A 
ENDROOT
BRANCH   1   7
HETATM    7  N   LIG     1      17.053  35.527  21.240  1.00  0.00    -0.327 N 
HETATM    8  C   LIG     1      16.103  34.909  20.358  1.00  0.00     0.221 C 
HETATM    9  O   LIG     1      16.025  35.258  19.150  1.00  0.00    -0.273 OA
HETATM   10  H   LIG     1      17.289  35.028  22.127  1.00  0.00     0.169 HD
BRANCH   8  11
HETATM   11  C   LIG     1      15.258  33.772  20.848  1.00  0.00     0.098 C 
HETATM   12  C   LIG     1      15.385  32.568  19.921  1.00  0.00     0.014 C 
ENDBRANCH   8  11
ENDBRANCH   1   7
TORSDOF 2
ENDMDL
MODEL 4
REMARK VINA RESULT:      -6.5      0.056      1.461
REMARK  2 active torsions:
REMARK  status: ('A' for Active; 'I' for Inactive)
REMARK    1  A    between atoms: C_2  and  C_3 
REMARK       I    between atoms: C_2  and  N_5 
REMARK    2  A    between atoms: N_5  and  C_6 
ROOT
HETATM    1  C   LIG     1      17.038  35.719  24.036  1.00  0.00     0.034 A 
HETATM    2  C   LIG     1      17.566  34.859  25.017  1.00  0.00     0.029 A 
HETATM    3  C   LIG     1      18.147  35.383  26.176  1.00  0.00     0.002 A 
HETATM    4  C   LIG     1      18.216  36.766  26.361  1.00  0.00     0.000 A 
HETATM    5  C   LIG     1      17.714  37.627  25.383  1.00  0.00     0.002 A 
HETATM    6  C   LIG     1      17.134  37.107  24.222  1.00  0.00     0.029 A 
ENDROOT
BRANCH   1   7
HETATM    7  N   LIG     1      16.457  35.209  22.823  1.00  0.00    -0.327 N 
HETATM    8  C   LIG     1      16.784  35.690  21.510  1.00  0.00     0.221 C 
HETATM    9  O   LIG     1      17.782  36.438  21.328  1.00  0.00    -0.273 OA
HETATM   10  H   LIG     1      15.823  34.382  22.893  1.00  0.00     0.169 HD
BRANCH   8  11
HETATM   11  C   LIG     1      15.991  35.227  20.325  1.00  0.00     0.098 C 
HETATM   12  C   LIG     1      15.635  33.750  20.459  1.00  0.00     0.014 C 
ENDBRANCH   8  11
ENDBRANCH   1   7
TORSDOF 2
ENDMDL
MODEL 5
REMARK VINA RESULT:      -6.4      4.663      8.513
REMARK  2 active torsions:
REMARK  status: ('A' for Active; 'I' for Inactive)
REMARK    1  A    between atoms: C_2  and  C_3 
REMARK       I    between atoms: C_2  and  N_5 
REMARK    2  A    between atoms: N_5  and  C_6 
ROOT
HETATM    1  C   LIG     1      14.834  32.421  17.158  1.00  0.00     0.034 A 
HETATM    2  C   LIG     1      13.691  31.602  17.099  1.00  0.00     0.029 A 
HETATM    3  C   LIG     1      13.483  30.761  16.001  1.00  0.00     0.002 A 
HETATM    4  C   LIG     1      14.403  30.738  14.951  1.00  0.00     0.000 A 
HETATM    5  C   LIG     1      15.529  31.565  14.991  1.00  0.00     0.002 A 
HETATM    6  C   LIG     1      15.741  32.408  16.086  1.00  0.00     0.029 A 
ENDROOT
BRANCH   1   7
HETATM    7  N   LIG     1      15.063  33.315  18.263  1.00  0.00    -0.327 N 
HETATM    8  C   LIG     1      15.438  32.886  19.581  1.00  0.00     0.221 C 
HETATM    9  O   LIG     1      15.818  31.703  19.789  1.00  0.00    -0.273 OA
HETATM   10  H   LIG     1      15.038  34.342  18.075  1.00  0.00     0.169 HD
BRANCH   8  11
HETATM   11  C   LIG     1      15.469  33.874  20.708  1.00  0.00     0.098 C 
HETATM   12  C   LIG     1      15.860  35.257  20.200  1.00  0.00     0.014 C 
ENDBRANCH   8  11
ENDBRANCH   1   7
TORSDOF 2
ENDMDL
MODEL 6
REMARK VINA RESULT:      -6.4      1.724      2.228
REMARK  2 active torsions:
REMARK  status: ('A' for Active; 'I' for Inactive)
REMARK    1  A    between atoms: C_2  and  C_3 
REMARK       I    between atoms: C_2  and  N_5 
REMARK    2  A    between atoms: N_5  and  C_6 
ROOT
HETATM    1  C   LIG     1      16.776  35.638  22.370  1.00  0.00     0.034 A 
HETATM    2  C   LIG     1      16.550  37.027  22.364  1.00  0.00     0.029 A 
HETATM    3  C   LIG     1      16.708  37.773  23.537  1.00  0.00     0.002 A 
HETATM    4  C   LIG     1      17.080  37.139  24.725  1.00  0.00     0.000 A 
HETATM    5  C   LIG     1      17.285  35.757  24.745  1.00  0.00     0.002 A 
HETATM    6  C   LIG     1      17.126  35.008  23.575  1.00  0.00     0.029 A 
ENDROOT
BRANCH   1   7
HETATM    7  N   LIG     1      16.597  34.842  21.185  1.00  0.00    -0.327 N 
HETATM    8  C   LIG     1      15.449  34.017  20.935  1.00  0.00     0.221 C 
HETATM    9  O   LIG     1      14.412  34.125  21.645  1.00  0.00    -0.273 OA
HETATM   10  H   LIG     1      17.304  34.934  20.421  1.00  0.00     0.169 HD
BRANCH   8  11
HETATM   11  C   LIG     1      15.440  33.083  19.763  1.00  0.00     0.098 C 
HETATM   12  C   LIG     1      14.809  31.748  20.143  1.00  0.00     0.014 C 
ENDBRANCH   8  11
ENDBRANCH   1   7
TORSDOF 2
ENDMDL
MODEL 7
REMARK VINA RESULT:      -6.3      2.939      5.109
REMARK  2 active torsions:
REMARK  status: ('A' for Active; 'I' for Inactive)
REMARK    1  A    between atoms: C_2  and  C_3 
REMARK       I    between atoms: C_2  and  N_5 
REMARK    2  A    between atoms: N_5  and  C_6 
ROOT
HETATM    1  C   LIG     1      17.859  37.825  21.488  1.00  0.00     0.034 A 
HETATM    2  C   LIG     1      18.260  39.129  21.144  1.00  0.00     0.029 A 
HETATM    3  C   LIG     1      18.910  39.371  19.930  1.00  0.00     0.002 A 
HETATM    4  C   LIG     1      19.175  38.314  19.055  1.00  0.00     0.000 A 
HETATM    5  C   LIG     1      18.801  37.013  19.398  1.00  0.00     0.002 A 
HETATM    6  C   LIG     1      18.152  36.767  20.612  1.00  0.00     0.029 A 
ENDROOT
BRANCH   1   7
HETATM    7  N   LIG     1      17.211  37.542  22.741  1.00  0.00    -0.327 N 
HETATM    8  C   LIG     1      17.815  37.756  24.026  1.00  0.00     0.221 C 
HETATM    9  O   LIG     1      18.875  38.430  24.134  1.00  0.00    -0.273 OA
HETATM   10  H   LIG     1      16.210  37.243  22.719  1.00  0.00     0.169 HD
BRANCH   8  11
HETATM   11  C   LIG     1      17.135  37.258  25.265  1.00  0.00     0.098 C 
HETATM   12  C   LIG     1      17.656  35.877  25.646  1.00  0.00     0.014 C 
ENDBRANCH   8  11
ENDBRANCH   1   7
TORSDOF 2
ENDMDL
MODEL 8
REMARK VINA RESULT:      -6.3      1.653      4.819
REMARK  2 active torsions:
REMARK  status: ('A' for Active; 'I' for Inactive)
REMARK    1  A    between atoms: C_2  and  C_3 
REMARK       I    between atoms: C_2  and  N_5 
REMARK    2  A    between atoms: N_5  and  C_6 
ROOT
HETATM    1  C   LIG     1      16.873  35.880  22.473  1.00  0.00     0.034 A 
HETATM    2  C   LIG     1      17.461  36.457  21.332  1.00  0.00     0.029 A 
HETATM    3  C   LIG     1      17.044  36.074  20.053  1.00  0.00     0.002 A 
HETATM    4  C   LIG     1      16.048  35.105  19.901  1.00  0.00     0.000 A 
HETATM    5  C   LIG     1      15.475  34.511  21.028  1.00  0.00     0.002 A 
HETATM    6  C   LIG     1      15.891  34.890  22.309  1.00  0.00     0.029 A 
ENDROOT
BRANCH   1   7
HETATM    7  N   LIG     1      17.299  36.236  23.800  1.00  0.00    -0.327 N 
HETATM    8  C   LIG     1      16.845  37.402  24.506  1.00  0.00     0.221 C 
HETATM    9  O   LIG     1      15.859  38.065  24.086  1.00  0.00    -0.273 OA
HETATM   10  H   LIG     1      17.909  35.563  24.317  1.00  0.00     0.169 HD
BRANCH   8  11
HETATM   11  C   LIG     1      17.487  37.786  25.804  1.00  0.00     0.098 C 
HETATM   12  C   LIG     1      18.384  36.665  26.315  1.00  0.00     0.014 C 
ENDBRANCH   8  11
ENDBRANCH   1   7
TORSDOF 2
ENDMDL
MODEL 9
REMARK VINA RESULT:      -6.0      2.820      3.362
REMARK  2 active torsions:
REMARK  status: ('A' for Active; 'I' for Inactive)
REMARK    1  A    between atoms: C_2  and  C_3 
REMARK       I    between atoms: C_2  and  N_5 
REMARK    2  A    between atoms: N_5  and  C_6 
ROOT
HETATM    1  C   LIG     1      16.802  36.257  21.656  1.00  0.00     0.034 A 
HETATM    2  C   LIG     1      17.893  36.845  20.987  1.00  0.00     0.029 A 
HETATM    3  C   LIG     1      18.190  38.198  21.176  1.00  0.00     0.002 A 
HETATM    4  C   LIG     1      17.398  38.978  22.023  1.00  0.00     0.000 A 
HETATM    5  C   LIG     1      16.300  38.408  22.673  1.00  0.00     0.002 A 
HETATM    6  C   LIG     1      15.999  37.055  22.485  1.00  0.00     0.029 A 
ENDROOT
BRANCH   1   7
HETATM    7  N   LIG     1      16.458  34.874  21.462  1.00  0.00    -0.327 N 
HETATM    8  C   LIG     1      15.874  34.351  20.259  1.00  0.00     0.221 C 
HETATM    9  O   LIG     1      15.843  35.042  19.205  1.00  0.00    -0.273 OA
HETATM   10  H   LIG     1      16.725  34.192  22.207  1.00  0.00     0.169 HD
BRANCH   8  11
HETATM   11  C   LIG     1      15.379  32.937  20.221  1.00  0.00     0.098 C 
HETATM   12  C   LIG     1      15.097  32.503  18.787  1.00  0.00     0.014 C 
ENDBRANCH   8  11
ENDBRANCH   1   7
TORSDOF 2
ENDMDL
MODEL 10
REMARK VINA RESULT:      -5.7      8.375      9.855
REMARK  2 active torsions:
REMARK  status: ('A' for Active; 'I' for Inactive)
REMARK    1  A    between atoms: C_2  and  C_3 
REMARK       I    between atoms: C_2  and  N_5 
REMARK    2  A    between atoms: N_5  and  C_6 
ROOT
HETATM    1  C   LIG     1      15.853  32.156  15.569  1.00  0.00     0.034 A 
HETATM    2  C   LIG     1      15.311  31.069  14.858  1.00  0.00     0.029 A 
HETATM    3  C   LIG     1      14.083  30.519  15.238  1.00  0.00     0.002 A 
HETATM    4  C   LIG     1      13.391  31.039  16.335  1.00  0.00     0.000 A 
HETATM    5  C   LIG     1      13.933  32.104  17.061  1.00  0.00     0.002 A 
HETATM    6  C   LIG     1      15.161  32.655  16.684  1.00  0.00     0.029 A 
ENDROOT
BRANCH   1   7
HETATM    7  N   LIG     1      17.126  32.726  15.216  1.00  0.00    -0.327 N 
HETATM    8  C   LIG     1      17.425  33.297  13.933  1.00  0.00     0.221 C 
HETATM    9  O   LIG     1      16.504  33.542  13.108  1.00  0.00    -0.273 OA
HETATM   10  H   LIG     1      17.850  32.808  15.965  1.00  0.00     0.169 HD
BRANCH   8  11
HETATM   11  C   LIG     1      18.831  33.694  13.601  1.00  0.00     0.098 C 
HETATM   12  C   LIG     1      19.081  33.583  12.101  1.00  0.00     0.014 C 
ENDBRANCH   8  11
ENDBRANCH   1   7
TORSDOF 2
ENDMDL
MODEL 11
REMARK VINA RESULT:      -5.6      5.155      9.053
REMARK  2 active torsions:
REMARK  status: ('A' for Active; 'I' for Inactive)
REMARK    1  A    between atoms: C_2  and  C_3 
REMARK       I    between atoms: C_2  and  N_5 
REMARK    2  A    between atoms: N_5  and  C_6 
ROOT
HETATM    1  C   LIG     1      14.484  31.950  16.627  1.00  0.00     0.034 A 
HETATM    2  C   LIG     1      15.504  31.853  15.663  1.00  0.00     0.029 A 
HETATM    3  C   LIG     1      15.357  31.001  14.563  1.00  0.00     0.002 A 
HETATM    4  C   LIG     1      14.199  30.231  14.423  1.00  0.00     0.000 A 
HETATM    5  C   LIG     1      13.191  30.305  15.388  1.00  0.00     0.002 A 
HETATM    6  C   LIG     1      13.335  31.155  16.489  1.00  0.00     0.029 A 
ENDROOT
BRANCH   1   7
HETATM    7  N   LIG     1      14.617  32.799  17.781  1.00  0.00    -0.327 N 
HETATM    8  C   LIG     1      15.272  34.077  17.769  1.00  0.00     0.221 C 
HETATM    9  O   LIG     1      15.568  34.638  16.680  1.00  0.00    -0.273 OA
HETATM   10  H   LIG     1      14.136  32.509  18.662  1.00  0.00     0.169 HD
BRANCH   8  11
HETATM   11  C   LIG     1      15.525  34.800  19.057  1.00  0.00     0.098 C 
HETATM   12  C   LIG     1      15.607  33.816  20.219  1.00  0.00     0.014 C 
ENDBRANCH   8  11
ENDBRANCH   1   7
TORSDOF 2
ENDMDL
MODEL 12
REMARK VINA RESULT:      -5.6      9.808     11.748
REMARK  2 active torsions:
REMARK  status: ('A' for Active; 'I' for Inactive)
REMARK    1  A    between atoms: C_2  and  C_3 
REMARK       I    between atoms: C_2  and  N_5 
REMARK    2  A    between atoms: N_5  and  C_6 
ROOT
HETATM    1  C   LIG     1      13.688  29.935  14.689  1.00  0.00     0.034 A 
HETATM    2  C   LIG     1      14.821  30.327  13.951  1.00  0.00     0.029 A 
HETATM    3  C   LIG     1      15.663  31.333  14.434  1.00  0.00     0.002 A 
HETATM    4  C   LIG     1      15.378  31.965  15.647  1.00  0.00     0.000 A 
HETATM    5  C   LIG     1      14.242  31.598  16.374  1.00  0.00     0.002 A 
HETATM    6  C   LIG     1      13.397  30.593  15.894  1.00  0.00     0.029 A 
ENDROOT
BRANCH   1   7
HETATM    7  N   LIG     1      12.789  28.920  14.206  1.00  0.00    -0.327 N 
HETATM    8  C   LIG     1      13.215  27.664  13.657  1.00  0.00     0.221 C 
HETATM    9  O   LIG     1      14.408  27.278  13.782  1.00  0.00    -0.273 OA
HETATM   10  H   LIG     1      11.764  29.070  14.339  1.00  0.00     0.169 HD
BRANCH   8  11
HETATM   11  C   LIG     1      12.215  26.754  13.010  1.00  0.00     0.098 C 
HETATM   12  C   LIG     1      10.937  27.513  12.669  1.00  0.00     0.014 C 
ENDBRANCH   8  11
ENDBRANCH   1   7
TORSDOF 2
ENDMDL
MODEL 13
REMARK VINA RESULT:      -5.5      5.668      7.569
REMARK  2 active torsions:
REMARK  status: ('A' for Active; 'I' for Inactive)
REMARK    1  A    between atoms: C_2  and  C_3 
REMARK       I    between atoms: C_2  and  N_5 
REMARK    2  A    between atoms: N_5  and  C_6 
ROOT
HETATM    1  C   LIG     1      14.978  32.621  17.783  1.00  0.00     0.034 A 
HETATM    2  C   LIG     1      15.114  32.039  19.057  1.00  0.00     0.029 A 
HETATM    3  C   LIG     1      15.420  32.833  20.166  1.00  0.00     0.002 A 
HETATM    4  C   LIG     1      15.606  34.209  20.014  1.00  0.00     0.000 A 
HETATM    5  C   LIG     1      15.495  34.792  18.749  1.00  0.00     0.002 A 
HETATM    6  C   LIG     1      15.189  34.001  17.637  1.00  0.00     0.029 A 
ENDROOT
BRANCH   1   7
HETATM    7  N   LIG     1      14.687  31.826  16.620  1.00  0.00    -0.327 N 
HETATM    8  C   LIG     1      13.416  31.208  16.363  1.00  0.00     0.221 C 
HETATM    9  O   LIG     1      12.400  31.524  17.038  1.00  0.00    -0.273 OA
HETATM   10  H   LIG     1      15.417  31.763  15.874  1.00  0.00     0.169 HD
BRANCH   8  11
HETATM   11  C   LIG     1      13.268  30.248  15.222  1.00  0.00     0.098 C 
HETATM   12  C   LIG     1      14.590  30.088  14.479  1.00  0.00     0.014 C 
ENDBRANCH   8  11
ENDBRANCH   1   7
TORSDOF 2
ENDMDL
MODEL 14
REMARK VINA RESULT:      -5.5      2.734      3.405
REMARK  2 active torsions:
REMARK  status: ('A' for Active; 'I' for Inactive)
REMARK    1  A    between atoms: C_2  and  C_3 
REMARK       I    between atoms: C_2  and  N_5 
REMARK    2  A    between atoms: N_5  and  C_6 
ROOT
HETATM    1  C   LIG     1      17.494  37.454  22.695  1.00  0.00     0.034 A 
HETATM    2  C   LIG     1      17.695  37.761  24.054  1.00  0.00     0.029 A 
HETATM    3  C   LIG     1      17.529  36.775  25.032  1.00  0.00     0.002 A 
HETATM    4  C   LIG     1      17.150  35.481  24.666  1.00  0.00     0.000 A 
HETATM    5  C   LIG     1      16.926  35.173  23.321  1.00  0.00     0.002 A 
HETATM    6  C   LIG     1      17.090  36.157  22.341  1.00  0.00     0.029 A 
ENDROOT
BRANCH   1   7
HETATM    7  N   LIG     1      17.633  38.453  21.669  1.00  0.00    -0.327 N 
HETATM    8  C   LIG     1      18.489  38.318  20.524  1.00  0.00     0.221 C 
HETATM    9  O   LIG     1      18.998  37.203  20.230  1.00  0.00    -0.273 OA
HETATM   10  H   LIG     1      17.012  39.291  21.715  1.00  0.00     0.169 HD
BRANCH   8  11
HETATM   11  C   LIG     1      18.708  39.486  19.613  1.00  0.00     0.098 C 
HETATM   12  C   LIG     1      18.949  39.016  18.183  1.00  0.00     0.014 C 
ENDBRANCH   8  11
ENDBRANCH   1   7
TORSDOF 2
ENDMDL
MODEL 15
REMARK VINA RESULT:      -5.4      9.366     10.705
REMARK  2 active torsions:
REMARK  status: ('A' for Active; 'I' for Inactive)
REMARK    1  A    between atoms: C_2  and  C_3 
REMARK       I    between atoms: C_2  and  N_5 
REMARK    2  A    between atoms: N_5  and  C_6 
ROOT
HETATM    1  C   LIG     1      15.802  31.849  13.888  1.00  0.00     0.034 A 
HETATM    2  C   LIG     1      15.284  30.598  13.506  1.00  0.00     0.029 A 
HETATM    3  C   LIG     1      14.440  29.891  14.368  1.00  0.00     0.002 A 
HETATM    4  C   LIG     1      14.116  30.418  15.621  1.00  0.00     0.000 A 
HETATM    5  C   LIG     1      14.644  31.650  16.017  1.00  0.00     0.002 A 
HETATM    6  C   LIG     1      15.489  32.359  15.158  1.00  0.00     0.029 A 
ENDROOT
BRANCH   1   7
HETATM    7  N   LIG     1      16.692  32.588  13.032  1.00  0.00    -0.327 N 
HETATM    8  C   LIG     1      17.909  33.205  13.477  1.00  0.00     0.221 C 
HETATM    9  O   LIG     1      18.390  32.936  14.611  1.00  0.00    -0.273 OA
HETATM   10  H   LIG     1      16.485  32.605  12.008  1.00  0.00     0.169 HD
BRANCH   8  11
HETATM   11  C   LIG     1      18.670  34.109  12.555  1.00  0.00     0.098 C 
HETATM   12  C   LIG     1      20.172  33.898  12.714  1.00  0.00     0.014 C 
ENDBRANCH   8  11
ENDBRANCH   1   7
TORSDOF 2
ENDMDL
MODEL 16
REMARK VINA RESULT:      -5.4      9.372     11.392
REMARK  2 active torsions:
REMARK  status: ('A' for Active; 'I' for Inactive)
REMARK    1  A    between atoms: C_2  and  C_3 
REMARK       I    between atoms: C_2  and  N_5 
REMARK    2  A    between atoms: N_5  and  C_6 
ROOT
HETATM    1  C   LIG     1      14.491  30.130  14.535  1.00  0.00     0.034 A 
HETATM    2  C   LIG     1      15.562  31.033  14.408  1.00  0.00     0.029 A 
HETATM    3  C   LIG     1      15.711  32.084  15.319  1.00  0.00     0.002 A 
HETATM    4  C   LIG     1      14.787  32.251  16.354  1.00  0.00     0.000 A 
HETATM    5  C   LIG     1      13.707  31.372  16.473  1.00  0.00     0.002 A 
HETATM    6  C   LIG     1      13.555  30.321  15.564  1.00  0.00     0.029 A 
ENDROOT
BRANCH   1   7
HETATM    7  N   LIG     1      14.299  29.054  13.599  1.00  0.00    -0.327 N 
HETATM    8  C   LIG     1      15.189  27.936  13.464  1.00  0.00     0.221 C 
HETATM    9  O   LIG     1      16.078  27.713  14.330  1.00  0.00    -0.273 OA
HETATM   10  H   LIG     1      13.415  29.041  13.042  1.00  0.00     0.169 HD
BRANCH   8  11
HETATM   11  C   LIG     1      15.006  26.966  12.336  1.00  0.00     0.098 C 
HETATM   12  C   LIG     1      16.253  26.917  11.461  1.00  0.00     0.014 C 
ENDBRANCH   8  11
ENDBRANCH   1   7
TORSDOF 2
ENDMDL
MODEL 17
REMARK VINA RESULT:      -5.4     10.019     11.999
REMARK  2 active torsions:
REMARK  status: ('A' for Active; 'I' for Inactive)
REMARK    1  A    between atoms: C_2  and  C_3 
REMARK       I    between atoms: C_2  and  N_5 
REMARK    2  A    between atoms: N_5  and  C_6 
ROOT
HETATM    1  C   LIG     1      19.192  33.888  11.889  1.00  0.00     0.034 A 
HETATM    2  C   LIG     1      20.474  33.938  12.466  1.00  0.00     0.029 A 
HETATM    3  C   LIG     1      21.511  34.621  11.823  1.00  0.00     0.002 A 
HETATM    4  C   LIG     1      21.282  35.249  10.596  1.00  0.00     0.000 A 
HETATM    5  C   LIG     1      20.018  35.185  10.005  1.00  0.00     0.002 A 
HETATM    6  C   LIG     1      18.979  34.501  10.644  1.00  0.00     0.029 A 
ENDROOT
BRANCH   1   7
HETATM    7  N   LIG     1      18.112  33.172  12.515  1.00  0.00    -0.327 N 
HETATM    8  C   LIG     1      17.417  33.627  13.686  1.00  0.00     0.221 C 
HETATM    9  O   LIG     1      17.561  34.808  14.102  1.00  0.00    -0.273 OA
HETATM   10  H   LIG     1      17.756  32.311  12.042  1.00  0.00     0.169 HD
BRANCH   8  11
HETATM   11  C   LIG     1      16.436  32.724  14.371  1.00  0.00     0.098 C 
HETATM   12  C   LIG     1      15.905  31.672  13.403  1.00  0.00     0.014 C 
ENDBRANCH   8  11
ENDBRANCH   1   7
TORSDOF 2
ENDMDL
MODEL 18
REMARK VINA RESULT:      -5.2      3.187      6.827
REMARK  2 active torsions:
REMARK  status: ('A' for Active; 'I' for Inactive)
REMARK    1  A    between atoms: C_2  and  C_3 
REMARK       I    between atoms: C_2  and  N_5 
REMARK    2  A    between atoms: N_5  and  C_6 
ROOT
HETATM    1  C   LIG     1      15.348  33.280  18.996  1.00  0.00     0.034 A 
HETATM    2  C   LIG     1      15.113  33.890  17.749  1.00  0.00     0.029 A 
HETATM    3  C   LIG     1      14.395  33.215  16.758  1.00  0.00     0.002 A 
HETATM    4  C   LIG     1      13.917  31.924  16.994  1.00  0.00     0.000 A 
HETATM    5  C   LIG     1      14.165  31.302  18.220  1.00  0.00     0.002 A 
HETATM    6  C   LIG     1      14.884  31.973  19.214  1.00  0.00     0.029 A 
ENDROOT
BRANCH   1   7
HETATM    7  N   LIG     1      16.105  33.940  20.026  1.00  0.00    -0.327 N 
HETATM    8  C   LIG     1      15.542  34.419  21.257  1.00  0.00     0.221 C 
HETATM    9  O   LIG     1      14.381  34.077  21.610  1.00  0.00    -0.273 OA
HETATM   10  H   LIG     1      17.142  34.000  19.910  1.00  0.00     0.169 HD
BRANCH   8  11
HETATM   11  C   LIG     1      16.371  35.257  22.182  1.00  0.00     0.098 C 
HETATM   12  C   LIG     1      17.276  36.196  21.392  1.00  0.00     0.014 C 
ENDBRANCH   8  11
ENDBRANCH   1   7
TORSDOF 2
ENDMDL
MODEL 19
REMARK VINA RESULT:      -5.2      9.032     10.904
REMARK  2 active torsions:
REMARK  status: ('A' for Active; 'I' for Inactive)
REMARK    1  A    between atoms: C_2  and  C_3 
REMARK       I    between atoms: C_2  and  N_5 
REMARK    2  A    between atoms: N_5  and  C_6 
ROOT
HETATM    1  C   LIG     1      16.990  32.734  13.565  1.00  0.00     0.034 A 
HETATM    2  C   LIG     1      16.057  31.722  13.271  1.00  0.00     0.029 A 
HETATM    3  C   LIG     1      15.194  31.248  14.264  1.00  0.00     0.002 A 
HETATM    4  C   LIG     1      15.262  31.769  15.559  1.00  0.00     0.000 A 
HETATM    5  C   LIG     1      16.200  32.757  15.865  1.00  0.00     0.002 A 
HETATM    6  C   LIG     1      17.066  33.233  14.874  1.00  0.00     0.029 A 
ENDROOT
BRANCH   1   7
HETATM    7  N   LIG     1      17.907  33.223  12.570  1.00  0.00    -0.327 N 
HETATM    8  C   LIG     1      17.840  34.535  11.990  1.00  0.00     0.221 C 
HETATM    9  O   LIG     1      17.104  35.425  12.494  1.00  0.00    -0.273 OA
HETATM   10  H   LIG     1      18.721  32.620  12.315  1.00  0.00     0.169 HD
BRANCH   8  11
HETATM   11  C   LIG     1      18.722  34.885  10.830  1.00  0.00     0.098 C 
HETATM   12  C   LIG     1      19.540  33.675  10.391  1.00  0.00     0.014 C 
ENDBRANCH   8  11
ENDBRANCH   1   7
TORSDOF 2
ENDMDL
MODEL 20
REMARK VINA RESULT:      -5.0      9.365     11.674
REMARK  2 active torsions:
REMARK  status: ('A' for Active; 'I' for Inactive)
REMARK    1  A    between atoms: C_2  and  C_3 
REMARK       I    between atoms: C_2  and  N_5 
REMARK    2  A    between atoms: N_5  and  C_6 
ROOT
HETATM    1  C   LIG     1      14.692  29.922  14.556  1.00  0.00     0.034 A 
HETATM    2  C   LIG     1      15.525  28.883  14.100  1.00  0.00     0.029 A 
HETATM    3  C   LIG     1      14.969  27.695  13.615  1.00  0.00     0.002 A 
HETATM    4  C   LIG     1      13.582  27.528  13.593  1.00  0.00     0.000 A 
HETATM    5  C   LIG     1      12.749  28.545  14.065  1.00  0.00     0.002 A 
HETATM    6  C   LIG     1      13.301  29.734  14.552  1.00  0.00     0.029 A 
ENDROOT
BRANCH   1   7
HETATM    7  N   LIG     1      15.236  31.145  15.083  1.00  0.00    -0.327 N 
HETATM    8  C   LIG     1      16.160  31.986  14.376  1.00  0.00     0.221 C 
HETATM    9  O   LIG     1      16.372  31.817  13.145  1.00  0.00    -0.273 OA
HETATM   10  H   LIG     1      14.872  31.488  16.001  1.00  0.00     0.169 HD
BRANCH   8  11
HETATM   11  C   LIG     1      16.813  33.138  15.079  1.00  0.00     0.098 C 
HETATM   12  C   LIG     1      17.893  33.762  14.203  1.00  0.00     0.014 C 
ENDBRANCH   8  11
ENDBRANCH   1   7
TORSDOF 2
ENDMDL
