REMARK  2 active torsions:
REMARK  status: ('A' for Active; 'I' for Inactive)
REMARK    1  A    between atoms: C_2  and  C_3 
REMARK       I    between atoms: C_2  and  N_5 
REMARK    2  A    between atoms: N_5  and  C_6 
ROOT
HETATM    1  C   LIG     1      -0.934   0.283   0.128  1.00  0.00     0.034 A 
HETATM    2  C   LIG     1      -1.701  -0.888   0.276  1.00  0.00     0.029 A 
HETATM    3  C   LIG     1      -3.050  -0.899  -0.092  1.00  0.00     0.002 A 
HETATM    4  C   LIG     1      -3.648   0.258  -0.598  1.00  0.00     0.000 A 
HETATM    5  C   LIG     1      -2.900   1.431  -0.727  1.00  0.00     0.002 A 
HETATM    6  C   LIG     1      -1.551   1.446  -0.359  1.00  0.00     0.029 A 
ENDROOT
BRANCH   1   7
HETATM    7  N   LIG     1       0.449   0.331   0.521  1.00  0.00    -0.327 N 
HETATM    8  C   LIG     1       1.359  -0.773   0.401  1.00  0.00     0.221 C 
HETATM    9  O   LIG     1       1.052  -1.789  -0.279  1.00  0.00    -0.273 OA
HETATM   10  H   LIG     1       0.838   1.249   0.834  1.00  0.00     0.169 HD
BRANCH   8  11
HETATM   11  C   LIG     1       2.726  -0.685   1.009  1.00  0.00     0.098 C 
HETATM   12  C   LIG     1       3.698  -0.004   0.052  1.00  0.00     0.014 C 
ENDBRANCH   8  11
ENDBRANCH   1   7
TORSDOF 2
