REMARK  3 active torsions:
REMARK  status: ('A' for Active; 'I' for Inactive)
REMARK    1  A    between atoms: O_1  and  C_2 
REMARK    2  A    between atoms: C_2  and  C_3 
REMARK    3  A    between atoms: C_4  and  C_5 
ROOT
HETATM    1  C   LIG     1      -0.266   0.520   0.305  1.00  0.00    -0.036 A 
HETATM    2  C   LIG     1      -0.379  -0.863   0.538  1.00  0.00     0.011 A 
HETATM    3  C   LIG     1      -1.491  -1.568   0.067  1.00  0.00     0.001 A 
HETATM    4  C   LIG     1      -2.507  -0.897  -0.619  1.00  0.00     0.000 A 
HETATM    5  C   LIG     1      -2.417   0.482  -0.826  1.00  0.00     0.001 A 
HETATM    6  C   LIG     1      -1.306   1.191  -0.357  1.00  0.00     0.011 A 
ENDROOT
BRANCH   1   7
HETATM    7  C   LIG     1       0.873   1.296   0.837  1.00  0.00     0.018 C 
HETATM    8  C   LIG     1       2.166   0.964   0.710  1.00  0.00     0.082 C 
BRANCH   8   9
HETATM    9  C   LIG     1       2.690  -0.122  -0.141  1.00  0.00     0.165 C 
HETATM   10  O   LIG     1       3.863  -0.539   0.050  1.00  0.00    -0.647 OA
BRANCH   9  11
HETATM   11  O   LIG     1       1.938  -0.648  -1.187  1.00  0.00    -0.773 OA
HETATM   12  H   LIG     1       2.311  -1.382  -1.779  1.00  0.00     0.167 HD
ENDBRANCH   9  11
ENDBRANCH   8   9
ENDBRANCH   1   7
TORSDOF 3
