MODEL 1
REMARK VINA RESULT:      -6.9      0.000      0.000
REMARK  3 active torsions:
REMARK  status: ('A' for Active; 'I' for Inactive)
REMARK    1  A    between atoms: O_1  and  C_2 
REMARK    2  A    between atoms: C_2  and  C_3 
REMARK    3  A    between atoms: C_4  and  C_5 
ROOT
HETATM    1  C   LIG     1      16.989  37.177  24.409  1.00  0.00    -0.036 A 
HETATM    2  C   LIG     1      17.683  37.650  25.538  1.00  0.00     0.011 A 
HETATM    3  C   LIG     1      18.336  36.754  26.390  1.00  0.00     0.001 A 
HETATM    4  C   LIG     1      18.284  35.381  26.136  1.00  0.00     0.000 A 
HETATM    5  C   LIG     1      17.570  34.901  25.035  1.00  0.00     0.001 A 
HETATM    6  C   LIG     1      16.916  35.794  24.180  1.00  0.00     0.011 A 
ENDROOT
BRANCH   1   7
HETATM    7  C   LIG     1      16.248  38.098  23.523  1.00  0.00     0.018 C 
HETATM    8  C   LIG     1      16.765  38.746  22.469  1.00  0.00     0.082 C 
BRANCH   8   9
HETATM    9  C   LIG     1      18.103  38.509  21.893  1.00  0.00     0.165 C 
HETATM   10  O   LIG     1      18.253  37.584  21.052  1.00  0.00    -0.647 OA
BRANCH   9  11
HETATM   11  O   LIG     1      19.209  39.245  22.306  1.00  0.00    -0.773 OA
HETATM   12  H   LIG     1      19.965  39.456  21.663  1.00  0.00     0.167 HD
ENDBRANCH   9  11
ENDBRANCH   8   9
ENDBRANCH   1   7
TORSDOF 3
ENDMDL
MODEL 2
REMARK VINA RESULT:      -6.7      2.144      4.484
REMARK  3 active torsions:
REMARK  status: ('A' for Active; 'I' for Inactive)
REMARK    1  A    between atoms: O_1  and  C_2 
REMARK    2  A    between atoms: C_2  and  C_3 
REMARK    3  A    between atoms: C_4  and  C_5 
ROOT
HETATM    1  C   LIG     1      17.478  38.132  21.744  1.00  0.00    -0.036 A 
HETATM    2  C   LIG     1      17.584  36.950  20.988  1.00  0.00     0.011 A 
HETATM    3  C   LIG     1      18.587  36.820  20.022  1.00  0.00     0.001 A 
HETATM    4  C   LIG     1      19.476  37.873  19.787  1.00  0.00     0.000 A 
HETATM    5  C   LIG     1      19.356  39.062  20.512  1.00  0.00     0.001 A 
HETATM    6  C   LIG     1      18.355  39.196  21.480  1.00  0.00     0.011 A 
ENDROOT
BRANCH   1   7
HETATM    7  C   LIG     1      16.396  38.315  22.733  1.00  0.00     0.018 C 
HETATM    8  C   LIG     1      16.393  37.822  23.980  1.00  0.00     0.082 C 
BRANCH   8   9
HETATM    9  C   LIG     1      17.542  37.179  24.648  1.00  0.00     0.165 C 
HETATM   10  O   LIG     1      17.527  35.933  24.828  1.00  0.00    -0.647 OA
BRANCH   9  11
HETATM   11  O   LIG     1      18.607  37.930  25.137  1.00  0.00    -0.773 OA
HETATM   12  H   LIG     1      18.945  38.742  24.634  1.00  0.00     0.167 HD
ENDBRANCH   9  11
ENDBRANCH   8   9
ENDBRANCH   1   7
TORSDOF 3
ENDMDL
MODEL 3
REMARK VINA RESULT:      -6.3      3.568      5.116
REMARK  3 active torsions:
REMARK  status: ('A' for Active; 'I' for Inactive)
REMARK    1  A    between atoms: O_1  and  C_2 
REMARK    2  A    between atoms: C_2  and  C_3 
REMARK    3  A    between atoms: C_4  and  C_5 
ROOT
HETATM    1  C   LIG     1      17.956  36.672  21.254  1.00  0.00    -0.036 A 
HETATM    2  C   LIG     1      18.626  36.742  20.018  1.00  0.00     0.011 A 
HETATM    3  C   LIG     1      18.998  37.982  19.489  1.00  0.00     0.001 A 
HETATM    4  C   LIG     1      18.686  39.159  20.175  1.00  0.00     0.000 A 
HETATM    5  C   LIG     1      17.992  39.098  21.386  1.00  0.00     0.001 A 
HETATM    6  C   LIG     1      17.619  37.860  21.920  1.00  0.00     0.011 A 
ENDROOT
BRANCH   1   7
HETATM    7  C   LIG     1      17.507  35.378  21.808  1.00  0.00     0.018 C 
HETATM    8  C   LIG     1      16.341  34.776  21.530  1.00  0.00     0.082 C 
BRANCH   8   9
HETATM    9  C   LIG     1      15.391  35.197  20.482  1.00  0.00     0.165 C 
HETATM   10  O   LIG     1      15.674  34.978  19.274  1.00  0.00    -0.647 OA
BRANCH   9  11
HETATM   11  O   LIG     1      14.223  35.884  20.797  1.00  0.00    -0.773 OA
HETATM   12  H   LIG     1      14.142  36.401  21.666  1.00  0.00     0.167 HD
ENDBRANCH   9  11
ENDBRANCH   8   9
ENDBRANCH   1   7
TORSDOF 3
ENDMDL
MODEL 4
REMARK VINA RESULT:      -6.3      3.705      5.392
REMARK  3 active torsions:
REMARK  status: ('A' for Active; 'I' for Inactive)
REMARK    1  A    between atoms: O_1  and  C_2 
REMARK    2  A    between atoms: C_2  and  C_3 
REMARK    3  A    between atoms: C_4  and  C_5 
ROOT
HETATM    1  C   LIG     1      19.149  38.310  19.921  1.00  0.00    -0.036 A 
HETATM    2  C   LIG     1      18.769  36.965  19.764  1.00  0.00     0.011 A 
HETATM    3  C   LIG     1      17.793  36.406  20.596  1.00  0.00     0.001 A 
HETATM    4  C   LIG     1      17.206  37.178  21.603  1.00  0.00     0.000 A 
HETATM    5  C   LIG     1      17.601  38.506  21.785  1.00  0.00     0.001 A 
HETATM    6  C   LIG     1      18.576  39.068  20.955  1.00  0.00     0.011 A 
ENDROOT
BRANCH   1   7
HETATM    7  C   LIG     1      20.213  38.908  19.089  1.00  0.00     0.018 C 
HETATM    8  C   LIG     1      20.054  39.380  17.844  1.00  0.00     0.082 C 
BRANCH   8   9
HETATM    9  C   LIG     1      18.759  39.563  17.159  1.00  0.00     0.165 C 
HETATM   10  O   LIG     1      17.993  40.490  17.533  1.00  0.00    -0.647 OA
BRANCH   9  11
HETATM   11  O   LIG     1      18.344  38.694  16.154  1.00  0.00    -0.773 OA
HETATM   12  H   LIG     1      17.454  38.213  16.216  1.00  0.00     0.167 HD
ENDBRANCH   9  11
ENDBRANCH   8   9
ENDBRANCH   1   7
TORSDOF 3
ENDMDL
MODEL 5
REMARK VINA RESULT:      -6.1      2.457      4.704
REMARK  3 active torsions:
REMARK  status: ('A' for Active; 'I' for Inactive)
REMARK    1  A    between atoms: O_1  and  C_2 
REMARK    2  A    between atoms: C_2  and  C_3 
REMARK    3  A    between atoms: C_4  and  C_5 
ROOT
HETATM    1  C   LIG     1      17.898  37.150  20.888  1.00  0.00    -0.036 A 
HETATM    2  C   LIG     1      17.870  38.451  21.422  1.00  0.00     0.011 A 
HETATM    3  C   LIG     1      18.732  39.435  20.928  1.00  0.00     0.001 A 
HETATM    4  C   LIG     1      19.642  39.123  19.914  1.00  0.00     0.000 A 
HETATM    5  C   LIG     1      19.698  37.825  19.400  1.00  0.00     0.001 A 
HETATM    6  C   LIG     1      18.837  36.838  19.892  1.00  0.00     0.011 A 
ENDROOT
BRANCH   1   7
HETATM    7  C   LIG     1      17.034  36.081  21.429  1.00  0.00     0.018 C 
HETATM    8  C   LIG     1      16.518  36.051  22.666  1.00  0.00     0.082 C 
BRANCH   8   9
HETATM    9  C   LIG     1      16.559  37.162  23.636  1.00  0.00     0.165 C 
HETATM   10  O   LIG     1      17.539  37.253  24.423  1.00  0.00    -0.647 OA
BRANCH   9  11
HETATM   11  O   LIG     1      15.510  38.070  23.741  1.00  0.00    -0.773 OA
HETATM   12  H   LIG     1      15.663  39.062  23.597  1.00  0.00     0.167 HD
ENDBRANCH   9  11
ENDBRANCH   8   9
ENDBRANCH   1   7
TORSDOF 3
ENDMDL
MODEL 6
REMARK VINA RESULT:      -6.1      2.934      3.884
REMARK  3 active torsions:
REMARK  status: ('A' for Active; 'I' for Inactive)
REMARK    1  A    between atoms: O_1  and  C_2 
REMARK    2  A    between atoms: C_2  and  C_3 
REMARK    3  A    between atoms: C_4  and  C_5 
ROOT
HETATM    1  C   LIG     1      17.251  36.500  22.267  1.00  0.00    -0.036 A 
HETATM    2  C   LIG     1      17.228  37.907  22.249  1.00  0.00     0.011 A 
HETATM    3  C   LIG     1      17.201  38.627  23.447  1.00  0.00     0.001 A 
HETATM    4  C   LIG     1      17.174  37.951  24.670  1.00  0.00     0.000 A 
HETATM    5  C   LIG     1      17.164  36.554  24.695  1.00  0.00     0.001 A 
HETATM    6  C   LIG     1      17.192  35.830  23.499  1.00  0.00     0.011 A 
ENDROOT
BRANCH   1   7
HETATM    7  C   LIG     1      17.227  35.717  21.015  1.00  0.00     0.018 C 
HETATM    8  C   LIG     1      16.211  34.947  20.599  1.00  0.00     0.082 C 
BRANCH   8   9
HETATM    9  C   LIG     1      14.871  34.895  21.215  1.00  0.00     0.165 C 
HETATM   10  O   LIG     1      14.465  33.809  21.709  1.00  0.00    -0.647 OA
BRANCH   9  11
HETATM   11  O   LIG     1      14.026  36.001  21.204  1.00  0.00    -0.773 OA
HETATM   12  H   LIG     1      14.220  36.809  21.785  1.00  0.00     0.167 HD
ENDBRANCH   9  11
ENDBRANCH   8   9
ENDBRANCH   1   7
TORSDOF 3
ENDMDL
MODEL 7
REMARK VINA RESULT:      -5.9      1.288      2.142
REMARK  3 active torsions:
REMARK  status: ('A' for Active; 'I' for Inactive)
REMARK    1  A    between atoms: O_1  and  C_2 
REMARK    2  A    between atoms: C_2  and  C_3 
REMARK    3  A    between atoms: C_4  and  C_5 
ROOT
HETATM    1  C   LIG     1      17.483  37.158  24.703  1.00  0.00    -0.036 A 
HETATM    2  C   LIG     1      17.077  35.848  24.386  1.00  0.00     0.011 A 
HETATM    3  C   LIG     1      17.411  34.784  25.229  1.00  0.00     0.001 A 
HETATM    4  C   LIG     1      18.170  35.013  26.380  1.00  0.00     0.000 A 
HETATM    5  C   LIG     1      18.605  36.306  26.684  1.00  0.00     0.001 A 
HETATM    6  C   LIG     1      18.272  37.374  25.843  1.00  0.00     0.011 A 
ENDROOT
BRANCH   1   7
HETATM    7  C   LIG     1      17.187  38.291  23.802  1.00  0.00     0.018 C 
HETATM    8  C   LIG     1      16.965  38.197  22.483  1.00  0.00     0.082 C 
BRANCH   8   9
HETATM    9  C   LIG     1      16.787  36.938  21.734  1.00  0.00     0.165 C 
HETATM   10  O   LIG     1      15.657  36.383  21.728  1.00  0.00    -0.647 OA
BRANCH   9  11
HETATM   11  O   LIG     1      17.855  36.323  21.088  1.00  0.00    -0.773 OA
HETATM   12  H   LIG     1      17.755  35.402  20.676  1.00  0.00     0.167 HD
ENDBRANCH   9  11
ENDBRANCH   8   9
ENDBRANCH   1   7
TORSDOF 3
ENDMDL
MODEL 8
REMARK VINA RESULT:      -5.9      2.945      4.246
REMARK  3 active torsions:
REMARK  status: ('A' for Active; 'I' for Inactive)
REMARK    1  A    between atoms: O_1  and  C_2 
REMARK    2  A    between atoms: C_2  and  C_3 
REMARK    3  A    between atoms: C_4  and  C_5 
ROOT
HETATM    1  C   LIG     1      17.278  36.532  22.300  1.00  0.00    -0.036 A 
HETATM    2  C   LIG     1      16.998  37.184  23.515  1.00  0.00     0.011 A 
HETATM    3  C   LIG     1      17.183  38.565  23.632  1.00  0.00     0.001 A 
HETATM    4  C   LIG     1      17.669  39.301  22.548  1.00  0.00     0.000 A 
HETATM    5  C   LIG     1      17.980  38.655  21.349  1.00  0.00     0.001 A 
HETATM    6  C   LIG     1      17.796  37.274  21.227  1.00  0.00     0.011 A 
ENDROOT
BRANCH   1   7
HETATM    7  C   LIG     1      17.140  35.067  22.168  1.00  0.00     0.018 C 
HETATM    8  C   LIG     1      16.251  34.438  21.385  1.00  0.00     0.082 C 
BRANCH   8   9
HETATM    9  C   LIG     1      15.388  35.087  20.379  1.00  0.00     0.165 C 
HETATM   10  O   LIG     1      15.696  35.002  19.161  1.00  0.00    -0.647 OA
BRANCH   9  11
HETATM   11  O   LIG     1      14.281  35.842  20.755  1.00  0.00    -0.773 OA
HETATM   12  H   LIG     1      13.922  35.804  21.702  1.00  0.00     0.167 HD
ENDBRANCH   9  11
ENDBRANCH   8   9
ENDBRANCH   1   7
TORSDOF 3
ENDMDL
MODEL 9
REMARK VINA RESULT:      -5.7      2.672      3.879
REMARK  3 active torsions:
REMARK  status: ('A' for Active; 'I' for Inactive)
REMARK    1  A    between atoms: O_1  and  C_2 
REMARK    2  A    between atoms: C_2  and  C_3 
REMARK    3  A    between atoms: C_4  and  C_5 
ROOT
HETATM    1  C   LIG     1      16.877  37.034  21.782  1.00  0.00    -0.036 A 
HETATM    2  C   LIG     1      17.492  35.808  21.468  1.00  0.00     0.011 A 
HETATM    3  C   LIG     1      16.716  34.663  21.262  1.00  0.00     0.001 A 
HETATM    4  C   LIG     1      15.325  34.727  21.389  1.00  0.00     0.000 A 
HETATM    5  C   LIG     1      14.710  35.934  21.732  1.00  0.00     0.001 A 
HETATM    6  C   LIG     1      15.483  37.082  21.939  1.00  0.00     0.011 A 
ENDROOT
BRANCH   1   7
HETATM    7  C   LIG     1      17.679  38.245  22.055  1.00  0.00     0.018 C 
HETATM    8  C   LIG     1      17.954  38.736  23.272  1.00  0.00     0.082 C 
BRANCH   8   9
HETATM    9  C   LIG     1      17.674  38.056  24.551  1.00  0.00     0.165 C 
HETATM   10  O   LIG     1      16.485  37.986  24.961  1.00  0.00    -0.647 OA
BRANCH   9  11
HETATM   11  O   LIG     1      18.701  37.549  25.341  1.00  0.00    -0.773 OA
HETATM   12  H   LIG     1      18.504  36.919  26.111  1.00  0.00     0.167 HD
ENDBRANCH   9  11
ENDBRANCH   8   9
ENDBRANCH   1   7
TORSDOF 3
ENDMDL
MODEL 10
REMARK VINA RESULT:      -5.6      2.917      4.029
REMARK  3 active torsions:
REMARK  status: ('A' for Active; 'I' for Inactive)
REMARK    1  A    between atoms: O_1  and  C_2 
REMARK    2  A    between atoms: C_2  and  C_3 
REMARK    3  A    between atoms: C_4  and  C_5 
ROOT
HETATM    1  C   LIG     1      17.597  37.021  20.981  1.00  0.00    -0.036 A 
HETATM    2  C   LIG     1      16.471  36.200  21.180  1.00  0.00     0.011 A 
HETATM    3  C   LIG     1      15.493  36.560  22.113  1.00  0.00     0.001 A 
HETATM    4  C   LIG     1      15.641  37.725  22.869  1.00  0.00     0.000 A 
HETATM    5  C   LIG     1      16.773  38.528  22.701  1.00  0.00     0.001 A 
HETATM    6  C   LIG     1      17.753  38.172  21.768  1.00  0.00     0.011 A 
ENDROOT
BRANCH   1   7
HETATM    7  C   LIG     1      18.668  36.637  20.040  1.00  0.00     0.018 C 
HETATM    8  C   LIG     1      19.344  37.480  19.246  1.00  0.00     0.082 C 
BRANCH   8   9
HETATM    9  C   LIG     1      19.276  38.953  19.309  1.00  0.00     0.165 C 
HETATM   10  O   LIG     1      18.566  39.570  18.471  1.00  0.00    -0.647 OA
BRANCH   9  11
HETATM   11  O   LIG     1      20.027  39.673  20.233  1.00  0.00    -0.773 OA
HETATM   12  H   LIG     1      19.801  39.647  21.222  1.00  0.00     0.167 HD
ENDBRANCH   9  11
ENDBRANCH   8   9
ENDBRANCH   1   7
TORSDOF 3
ENDMDL
MODEL 11
REMARK VINA RESULT:      -5.6      8.667      9.882
REMARK  3 active torsions:
REMARK  status: ('A' for Active; 'I' for Inactive)
REMARK    1  A    between atoms: O_1  and  C_2 
REMARK    2  A    between atoms: C_2  and  C_3 
REMARK    3  A    between atoms: C_4  and  C_5 
ROOT
HETATM    1  C   LIG     1      14.617  32.322  16.578  1.00  0.00    -0.036 A 
HETATM    2  C   LIG     1      13.377  31.685  16.768  1.00  0.00     0.011 A 
HETATM    3  C   LIG     1      13.004  30.612  15.954  1.00  0.00     0.001 A 
HETATM    4  C   LIG     1      13.853  30.180  14.931  1.00  0.00     0.000 A 
HETATM    5  C   LIG     1      15.072  30.828  14.716  1.00  0.00     0.001 A 
HETATM    6  C   LIG     1      15.450  31.902  15.529  1.00  0.00     0.011 A 
ENDROOT
BRANCH   1   7
HETATM    7  C   LIG     1      15.012  33.490  17.391  1.00  0.00     0.018 C 
HETATM    8  C   LIG     1      15.206  33.483  18.718  1.00  0.00     0.082 C 
BRANCH   8   9
HETATM    9  C   LIG     1      15.249  32.278  19.569  1.00  0.00     0.165 C 
HETATM   10  O   LIG     1      16.334  31.649  19.686  1.00  0.00    -0.647 OA
BRANCH   9  11
HETATM   11  O   LIG     1      14.104  31.791  20.192  1.00  0.00    -0.773 OA
HETATM   12  H   LIG     1      14.028  30.813  20.449  1.00  0.00     0.167 HD
ENDBRANCH   9  11
ENDBRANCH   8   9
ENDBRANCH   1   7
TORSDOF 3
ENDMDL
MODEL 12
REMARK VINA RESULT:      -5.4      2.836      4.899
REMARK  3 active torsions:
REMARK  status: ('A' for Active; 'I' for Inactive)
REMARK    1  A    between atoms: O_1  and  C_2 
REMARK    2  A    between atoms: C_2  and  C_3 
REMARK    3  A    between atoms: C_4  and  C_5 
ROOT
HETATM    1  C   LIG     1      17.937  38.194  21.331  1.00  0.00    -0.036 A 
HETATM    2  C   LIG     1      18.020  37.022  20.557  1.00  0.00     0.011 A 
HETATM    3  C   LIG     1      19.035  36.876  19.606  1.00  0.00     0.001 A 
HETATM    4  C   LIG     1      19.960  37.905  19.405  1.00  0.00     0.000 A 
HETATM    5  C   LIG     1      19.864  39.085  20.147  1.00  0.00     0.001 A 
HETATM    6  C   LIG     1      18.851  39.235  21.100  1.00  0.00     0.011 A 
ENDROOT
BRANCH   1   7
HETATM    7  C   LIG     1      16.844  38.393  22.305  1.00  0.00     0.018 C 
HETATM    8  C   LIG     1      16.117  37.417  22.867  1.00  0.00     0.082 C 
BRANCH   8   9
HETATM    9  C   LIG     1      16.401  35.972  22.763  1.00  0.00     0.165 C 
HETATM   10  O   LIG     1      17.254  35.458  23.535  1.00  0.00    -0.647 OA
BRANCH   9  11
HETATM   11  O   LIG     1      15.793  35.183  21.792  1.00  0.00    -0.773 OA
HETATM   12  H   LIG     1      14.907  35.455  21.380  1.00  0.00     0.167 HD
ENDBRANCH   9  11
ENDBRANCH   8   9
ENDBRANCH   1   7
TORSDOF 3
ENDMDL
MODEL 13
REMARK VINA RESULT:      -5.4      2.232      3.565
REMARK  3 active torsions:
REMARK  status: ('A' for Active; 'I' for Inactive)
REMARK    1  A    between atoms: O_1  and  C_2 
REMARK    2  A    between atoms: C_2  and  C_3 
REMARK    3  A    between atoms: C_4  and  C_5 
ROOT
HETATM    1  C   LIG     1      17.988  38.455  21.708  1.00  0.00    -0.036 A 
HETATM    2  C   LIG     1      17.095  37.374  21.593  1.00  0.00     0.011 A 
HETATM    3  C   LIG     1      16.640  36.712  22.738  1.00  0.00     0.001 A 
HETATM    4  C   LIG     1      17.089  37.108  24.001  1.00  0.00     0.000 A 
HETATM    5  C   LIG     1      18.000  38.161  24.120  1.00  0.00     0.001 A 
HETATM    6  C   LIG     1      18.457  38.826  22.978  1.00  0.00     0.011 A 
ENDROOT
BRANCH   1   7
HETATM    7  C   LIG     1      18.523  39.137  20.511  1.00  0.00     0.018 C 
HETATM    8  C   LIG     1      19.048  38.526  19.439  1.00  0.00     0.082 C 
BRANCH   8   9
HETATM    9  C   LIG     1      19.010  37.074  19.179  1.00  0.00     0.165 C 
HETATM   10  O   LIG     1      18.010  36.582  18.592  1.00  0.00    -0.647 OA
BRANCH   9  11
HETATM   11  O   LIG     1      20.025  36.233  19.624  1.00  0.00    -0.773 OA
HETATM   12  H   LIG     1      20.076  35.269  19.313  1.00  0.00     0.167 HD
ENDBRANCH   9  11
ENDBRANCH   8   9
ENDBRANCH   1   7
TORSDOF 3
ENDMDL
MODEL 14
REMARK VINA RESULT:      -5.4      3.130      3.798
REMARK  3 active torsions:
REMARK  status: ('A' for Active; 'I' for Inactive)
REMARK    1  A    between atoms: O_1  and  C_2 
REMARK    2  A    between atoms: C_2  and  C_3 
REMARK    3  A    between atoms: C_4  and  C_5 
ROOT
HETATM    1  C   LIG     1      17.300  37.706  21.845  1.00  0.00    -0.036 A 
HETATM    2  C   LIG     1      17.704  36.644  21.015  1.00  0.00     0.011 A 
HETATM    3  C   LIG     1      16.805  35.624  20.687  1.00  0.00     0.001 A 
HETATM    4  C   LIG     1      15.506  35.643  21.203  1.00  0.00     0.000 A 
HETATM    5  C   LIG     1      15.108  36.677  22.055  1.00  0.00     0.001 A 
HETATM    6  C   LIG     1      16.004  37.700  22.384  1.00  0.00     0.011 A 
ENDROOT
BRANCH   1   7
HETATM    7  C   LIG     1      18.246  38.767  22.247  1.00  0.00     0.018 C 
HETATM    8  C   LIG     1      19.195  39.298  21.464  1.00  0.00     0.082 C 
BRANCH   8   9
HETATM    9  C   LIG     1      19.340  39.060  20.014  1.00  0.00     0.165 C 
HETATM   10  O   LIG     1      20.238  38.275  19.609  1.00  0.00    -0.647 OA
BRANCH   9  11
HETATM   11  O   LIG     1      18.548  39.732  19.088  1.00  0.00    -0.773 OA
HETATM   12  H   LIG     1      18.283  39.292  18.213  1.00  0.00     0.167 HD
ENDBRANCH   9  11
ENDBRANCH   8   9
ENDBRANCH   1   7
TORSDOF 3
ENDMDL
MODEL 15
REMARK VINA RESULT:      -5.3     10.265     11.414
REMARK  3 active torsions:
REMARK  status: ('A' for Active; 'I' for Inactive)
REMARK    1  A    between atoms: O_1  and  C_2 
REMARK    2  A    between atoms: C_2  and  C_3 
REMARK    3  A    between atoms: C_4  and  C_5 
ROOT
HETATM    1  C   LIG     1      15.521  31.599  15.269  1.00  0.00    -0.036 A 
HETATM    2  C   LIG     1      15.660  30.645  14.244  1.00  0.00     0.011 A 
HETATM    3  C   LIG     1      14.625  29.745  13.974  1.00  0.00     0.001 A 
HETATM    4  C   LIG     1      13.454  29.774  14.738  1.00  0.00     0.000 A 
HETATM    5  C   LIG     1      13.322  30.697  15.778  1.00  0.00     0.001 A 
HETATM    6  C   LIG     1      14.355  31.600  16.050  1.00  0.00     0.011 A 
ENDROOT
BRANCH   1   7
HETATM    7  C   LIG     1      16.620  32.527  15.606  1.00  0.00     0.018 C 
HETATM    8  C   LIG     1      17.449  33.104  14.724  1.00  0.00     0.082 C 
BRANCH   8   9
HETATM    9  C   LIG     1      17.293  33.070  13.257  1.00  0.00     0.165 C 
HETATM   10  O   LIG     1      18.188  32.526  12.557  1.00  0.00    -0.647 OA
BRANCH   9  11
HETATM   11  O   LIG     1      16.211  33.681  12.630  1.00  0.00    -0.773 OA
HETATM   12  H   LIG     1      16.353  34.383  11.913  1.00  0.00     0.167 HD
ENDBRANCH   9  11
ENDBRANCH   8   9
ENDBRANCH   1   7
TORSDOF 3
ENDMDL
MODEL 16
REMARK VINA RESULT:      -5.2      2.470      4.178
REMARK  3 active torsions:
REMARK  status: ('A' for Active; 'I' for Inactive)
REMARK    1  A    between atoms: O_1  and  C_2 
REMARK    2  A    between atoms: C_2  and  C_3 
REMARK    3  A    between atoms: C_4  and  C_5 
ROOT
HETATM    1  C   LIG     1      17.108  35.705  23.433  1.00  0.00    -0.036 A 
HETATM    2  C   LIG     1      17.152  37.109  23.508  1.00  0.00     0.011 A 
HETATM    3  C   LIG     1      17.277  37.873  22.343  1.00  0.00     0.001 A 
HETATM    4  C   LIG     1      17.381  37.243  21.100  1.00  0.00     0.000 A 
HETATM    5  C   LIG     1      17.371  35.848  21.021  1.00  0.00     0.001 A 
HETATM    6  C   LIG     1      17.245  35.080  22.184  1.00  0.00     0.011 A 
ENDROOT
BRANCH   1   7
HETATM    7  C   LIG     1      17.029  34.875  24.653  1.00  0.00     0.018 C 
HETATM    8  C   LIG     1      17.480  35.230  25.865  1.00  0.00     0.082 C 
BRANCH   8   9
HETATM    9  C   LIG     1      17.957  36.576  26.239  1.00  0.00     0.165 C 
HETATM   10  O   LIG     1      19.183  36.750  26.469  1.00  0.00    -0.647 OA
BRANCH   9  11
HETATM   11  O   LIG     1      17.072  37.637  26.402  1.00  0.00    -0.773 OA
HETATM   12  H   LIG     1      16.069  37.488  26.375  1.00  0.00     0.167 HD
ENDBRANCH   9  11
ENDBRANCH   8   9
ENDBRANCH   1   7
TORSDOF 3
ENDMDL
MODEL 17
REMARK VINA RESULT:      -5.0     11.114     12.235
REMARK  3 active torsions:
REMARK  status: ('A' for Active; 'I' for Inactive)
REMARK    1  A    between atoms: O_1  and  C_2 
REMARK    2  A    between atoms: C_2  and  C_3 
REMARK    3  A    between atoms: C_4  and  C_5 
ROOT
HETATM    1  C   LIG     1      14.651  30.133  14.669  1.00  0.00    -0.036 A 
HETATM    2  C   LIG     1      13.272  29.866  14.586  1.00  0.00     0.011 A 
HETATM    3  C   LIG     1      12.821  28.634  14.102  1.00  0.00     0.001 A 
HETATM    4  C   LIG     1      13.738  27.670  13.676  1.00  0.00     0.000 A 
HETATM    5  C   LIG     1      15.108  27.941  13.724  1.00  0.00     0.001 A 
HETATM    6  C   LIG     1      15.564  29.172  14.209  1.00  0.00     0.011 A 
ENDROOT
BRANCH   1   7
HETATM    7  C   LIG     1      15.151  31.445  15.128  1.00  0.00     0.018 C 
HETATM    8  C   LIG     1      14.666  32.141  16.167  1.00  0.00     0.082 C 
BRANCH   8   9
HETATM    9  C   LIG     1      13.685  31.639  17.148  1.00  0.00     0.165 C 
HETATM   10  O   LIG     1      12.458  31.837  16.944  1.00  0.00    -0.647 OA
BRANCH   9  11
HETATM   11  O   LIG     1      14.091  31.009  18.320  1.00  0.00    -0.773 OA
HETATM   12  H   LIG     1      14.972  30.509  18.365  1.00  0.00     0.167 HD
ENDBRANCH   9  11
ENDBRANCH   8   9
ENDBRANCH   1   7
TORSDOF 3
ENDMDL
MODEL 18
REMARK VINA RESULT:      -4.8      9.754     11.022
REMARK  3 active torsions:
REMARK  status: ('A' for Active; 'I' for Inactive)
REMARK    1  A    between atoms: O_1  and  C_2 
REMARK    2  A    between atoms: C_2  and  C_3 
REMARK    3  A    between atoms: C_4  and  C_5 
ROOT
HETATM    1  C   LIG     1      15.407  31.528  14.744  1.00  0.00    -0.036 A 
HETATM    2  C   LIG     1      16.111  32.189  15.767  1.00  0.00     0.011 A 
HETATM    3  C   LIG     1      17.136  33.086  15.450  1.00  0.00     0.001 A 
HETATM    4  C   LIG     1      17.481  33.312  14.115  1.00  0.00     0.000 A 
HETATM    5  C   LIG     1      16.808  32.634  13.095  1.00  0.00     0.001 A 
HETATM    6  C   LIG     1      15.782  31.737  13.408  1.00  0.00     0.011 A 
ENDROOT
BRANCH   1   7
HETATM    7  C   LIG     1      14.355  30.538  15.054  1.00  0.00     0.018 C 
HETATM    8  C   LIG     1      13.593  30.534  16.158  1.00  0.00     0.082 C 
BRANCH   8   9
HETATM    9  C   LIG     1      13.534  31.616  17.160  1.00  0.00     0.165 C 
HETATM   10  O   LIG     1      14.092  31.448  18.276  1.00  0.00    -0.647 OA
BRANCH   9  11
HETATM   11  O   LIG     1      12.823  32.787  16.918  1.00  0.00    -0.773 OA
HETATM   12  H   LIG     1      11.907  32.760  16.483  1.00  0.00     0.167 HD
ENDBRANCH   9  11
ENDBRANCH   8   9
ENDBRANCH   1   7
TORSDOF 3
ENDMDL
MODEL 19
REMARK VINA RESULT:      -4.8     11.722     12.928
REMARK  3 active torsions:
REMARK  status: ('A' for Active; 'I' for Inactive)
REMARK    1  A    between atoms: O_1  and  C_2 
REMARK    2  A    between atoms: C_2  and  C_3 
REMARK    3  A    between atoms: C_4  and  C_5 
ROOT
HETATM    1  C   LIG     1      14.358  30.256  14.562  1.00  0.00    -0.036 A 
HETATM    2  C   LIG     1      15.227  30.791  13.593  1.00  0.00     0.011 A 
HETATM    3  C   LIG     1      16.010  31.911  13.891  1.00  0.00     0.001 A 
HETATM    4  C   LIG     1      15.916  32.518  15.146  1.00  0.00     0.000 A 
HETATM    5  C   LIG     1      15.031  32.012  16.102  1.00  0.00     0.001 A 
HETATM    6  C   LIG     1      14.247  30.891  15.808  1.00  0.00     0.011 A 
ENDROOT
BRANCH   1   7
HETATM    7  C   LIG     1      13.483  29.106  14.254  1.00  0.00     0.018 C 
HETATM    8  C   LIG     1      13.878  27.963  13.674  1.00  0.00     0.082 C 
BRANCH   8   9
HETATM    9  C   LIG     1      15.278  27.575  13.417  1.00  0.00     0.165 C 
HETATM   10  O   LIG     1      15.611  27.214  12.257  1.00  0.00    -0.647 OA
BRANCH   9  11
HETATM   11  O   LIG     1      16.219  27.539  14.441  1.00  0.00    -0.773 OA
HETATM   12  H   LIG     1      16.810  28.340  14.633  1.00  0.00     0.167 HD
ENDBRANCH   9  11
ENDBRANCH   8   9
ENDBRANCH   1   7
TORSDOF 3
ENDMDL
MODEL 20
REMARK VINA RESULT:      -4.7      7.805      8.810
REMARK  3 active torsions:
REMARK  status: ('A' for Active; 'I' for Inactive)
REMARK    1  A    between atoms: O_1  and  C_2 
REMARK    2  A    between atoms: C_2  and  C_3 
REMARK    3  A    between atoms: C_4  and  C_5 
ROOT
HETATM    1  C   LIG     1      14.827  32.428  17.548  1.00  0.00    -0.036 A 
HETATM    2  C   LIG     1      15.037  33.807  17.360  1.00  0.00     0.011 A 
HETATM    3  C   LIG     1      15.410  34.615  18.438  1.00  0.00     0.001 A 
HETATM    4  C   LIG     1      15.556  34.061  19.713  1.00  0.00     0.000 A 
HETATM    5  C   LIG     1      15.319  32.698  19.913  1.00  0.00     0.001 A 
HETATM    6  C   LIG     1      14.945  31.886  18.837  1.00  0.00     0.011 A 
ENDROOT
BRANCH   1   7
HETATM    7  C   LIG     1      14.382  31.563  16.436  1.00  0.00     0.018 C 
HETATM    8  C   LIG     1      14.953  31.500  15.224  1.00  0.00     0.082 C 
BRANCH   8   9
HETATM    9  C   LIG     1      16.232  32.132  14.848  1.00  0.00     0.165 C 
HETATM   10  O   LIG     1      17.303  31.691  15.342  1.00  0.00    -0.647 OA
BRANCH   9  11
HETATM   11  O   LIG     1      16.270  33.243  14.010  1.00  0.00    -0.773 OA
HETATM   12  H   LIG     1      15.820  33.225  13.101  1.00  0.00     0.167 HD
ENDBRANCH   9  11
ENDBRANCH   8   9
ENDBRANCH   1   7
TORSDOF 3
ENDMDL
