REMARK  3 active torsions:
REMARK  status: ('A' for Active; 'I' for Inactive)
REMARK       I    between atoms: N_1  and  C_2 
REMARK    1  A    between atoms: C_2  and  O_3 
REMARK    2  A    between atoms: O_3  and  C_4 
REMARK    3  A    between atoms: C_4  and  C_5 
ROOT
HETATM    1  C   LIG     1       0.981  -0.992  -1.000  1.00  0.00     0.219 C 
ENDROOT
BRANCH   1   2
HETATM    2  O   LIG     1       1.883   0.109  -0.895  1.00  0.00    -0.300 OA
BRANCH   2   3
HETATM    3  C   LIG     1       2.411   0.555   0.321  1.00  0.00     0.358 C 
HETATM    4  N   LIG     1       3.284   1.681   0.336  1.00  0.00    -0.346 N 
HETATM    5  H   LIG     1       3.687   2.026   1.235  1.00  0.00     0.161 HD
HETATM    6  H   LIG     1       3.524   2.170  -0.554  1.00  0.00     0.161 HD
HETATM    7  O   LIG     1       2.126  -0.030   1.401  1.00  0.00    -0.239 OA
ENDBRANCH   2   3
ENDBRANCH   1   2
BRANCH   1   8
HETATM    8  C   LIG     1      -0.368  -0.625  -0.443  1.00  0.00    -0.034 A 
HETATM    9  C   LIG     1      -0.905  -1.321   0.653  1.00  0.00     0.009 A 
HETATM   10  C   LIG     1      -2.159  -0.969   1.163  1.00  0.00     0.001 A 
HETATM   11  C   LIG     1      -2.883   0.076   0.584  1.00  0.00     0.000 A 
HETATM   12  C   LIG     1      -2.356   0.772  -0.507  1.00  0.00     0.001 A 
HETATM   13  C   LIG     1      -1.103   0.423  -1.021  1.00  0.00     0.009 A 
ENDBRANCH   1   8
TORSDOF 3
