REMARK  2 active torsions:
REMARK  status: ('A' for Active; 'I' for Inactive)
REMARK    1  A    between atoms: C_2  and  O_3 
REMARK    2  A    between atoms: O_3  and  C_4 
ROOT
HETATM    1  C   LIG     1       0.225   0.252   0.105  1.00  0.00     0.132 C 
HETATM    2  C   LIG     1      -0.359  -1.109  -0.316  1.00  0.00     0.032 C 
HETATM    3  C   LIG     1      -1.771  -1.305   0.251  1.00  0.00     0.002 C 
HETATM    4  C   LIG     1      -2.699  -0.160  -0.174  1.00  0.00     0.000 C 
HETATM    5  C   LIG     1      -2.121   1.198   0.241  1.00  0.00     0.002 C 
HETATM    6  C   LIG     1      -0.710   1.392  -0.328  1.00  0.00     0.032 C 
ENDROOT
BRANCH   1   7
HETATM    7  O   LIG     1       1.502   0.448  -0.501  1.00  0.00    -0.316 OA
BRANCH   7   8
HETATM    8  C   LIG     1       2.668  -0.198  -0.074  1.00  0.00     0.255 C 
HETATM    9  C   LIG     1       3.947   0.032  -0.804  1.00  0.00     0.126 C 
HETATM   10  O   LIG     1       2.652  -0.967   0.925  1.00  0.00    -0.266 OA
ENDBRANCH   7   8
ENDBRANCH   1   7
TORSDOF 2
