REMARK  1 active torsions:
REMARK  status: ('A' for Active; 'I' for Inactive)
REMARK    1  A    between atoms: C_2  and  C_3 
ROOT
HETATM    1  C   LIG     1      -0.787  -0.473   0.041  1.00  0.00    -0.059 A 
HETATM    2  C   LIG     1      -0.197   0.202   1.122  1.00  0.00     0.007 A 
HETATM    3  C   LIG     1       1.154   0.558   1.080  1.00  0.00     0.007 A 
HETATM    4  C   LIG     1       1.932   0.253  -0.046  1.00  0.00    -0.062 A 
HETATM    5  C   LIG     1       3.391   0.600  -0.074  1.00  0.00     0.048 C 
HETATM    6  C   LIG     1       1.350  -0.443  -1.117  1.00  0.00     0.007 A 
HETATM    7  C   LIG     1      -0.001  -0.799  -1.076  1.00  0.00     0.007 A 
ENDROOT
BRANCH   1   8
HETATM    8  C   LIG     1      -2.243  -0.862   0.092  1.00  0.00     0.034 C 
HETATM    9  C   LIG     1      -3.144   0.366  -0.006  1.00  0.00     0.010 C 
ENDBRANCH   1   8
TORSDOF 1
