REMARK  1 active torsions:
REMARK  status: ('A' for Active; 'I' for Inactive)
REMARK       I    between atoms: C_2  and  N_3 
REMARK    1  A    between atoms: N_3  and  C_4 
ROOT
HETATM    1  C   LIG     1       0.068  -0.466   0.461  1.00  0.00     0.034 A 
HETATM    2  C   LIG     1       0.910  -1.476  -0.027  1.00  0.00     0.031 A 
HETATM    3  C   LIG     1       2.203  -1.168  -0.460  1.00  0.00     0.020 A 
HETATM    4  C   LIG     1       0.553   0.849   0.555  1.00  0.00     0.031 A 
HETATM    5  C   LIG     1       1.847   1.155   0.121  1.00  0.00     0.020 A 
HETATM    6  C   LIG     1       2.671   0.148  -0.391  1.00  0.00     0.006 A 
HETATM    7  I   LIG     1       4.623   0.611  -1.042  1.00  0.00    -0.045 I 
ENDROOT
BRANCH   1   8
HETATM    8  N   LIG     1      -1.246  -0.802   0.928  1.00  0.00    -0.328 N 
HETATM    9  C   LIG     1      -2.443  -0.127   0.513  1.00  0.00     0.218 C 
HETATM   10  C   LIG     1      -2.458   0.814  -0.655  1.00  0.00     0.117 C 
HETATM   11  O   LIG     1      -3.526  -0.380   1.105  1.00  0.00    -0.274 OA
HETATM   12  H   LIG     1      -1.352  -1.668   1.503  1.00  0.00     0.169 HD
ENDBRANCH   1   8
TORSDOF 1
