MODEL 1
REMARK VINA RESULT:      -5.9      0.000      0.000
REMARK  1 active torsions:
REMARK  status: ('A' for Active; 'I' for Inactive)
REMARK       I    between atoms: C_2  and  N_3 
REMARK    1  A    between atoms: N_3  and  C_4 
ROOT
HETATM    1  C   LIG     1      17.674  38.202  22.237  1.00  0.00     0.034 A 
HETATM    2  C   LIG     1      18.222  38.591  23.468  1.00  0.00     0.031 A 
HETATM    3  C   LIG     1      18.174  37.727  24.566  1.00  0.00     0.020 A 
HETATM    4  C   LIG     1      17.119  36.918  22.106  1.00  0.00     0.031 A 
HETATM    5  C   LIG     1      17.071  36.056  23.206  1.00  0.00     0.020 A 
HETATM    6  C   LIG     1      17.594  36.461  24.437  1.00  0.00     0.006 A 
HETATM    7  I   LIG     1      17.523  35.157  26.094  1.00  0.00    -0.045 I 
ENDROOT
BRANCH   1   8
HETATM    8  N   LIG     1      17.757  39.088  21.112  1.00  0.00    -0.328 N 
HETATM    9  C   LIG     1      18.655  38.903  20.008  1.00  0.00     0.218 C 
HETATM   10  C   LIG     1      19.399  37.617  19.799  1.00  0.00     0.117 C 
HETATM   11  O   LIG     1      18.775  39.821  19.154  1.00  0.00    -0.274 OA
HETATM   12  H   LIG     1      17.035  39.839  21.029  1.00  0.00     0.169 HD
ENDBRANCH   1   8
TORSDOF 1
ENDMDL
MODEL 2
REMARK VINA RESULT:      -5.8      4.105      4.894
REMARK  1 active torsions:
REMARK  status: ('A' for Active; 'I' for Inactive)
REMARK       I    between atoms: C_2  and  N_3 
REMARK    1  A    between atoms: N_3  and  C_4 
ROOT
HETATM    1  C   LIG     1      15.844  35.372  20.081  1.00  0.00     0.034 A 
HETATM    2  C   LIG     1      14.866  35.680  21.039  1.00  0.00     0.031 A 
HETATM    3  C   LIG     1      15.213  36.367  22.205  1.00  0.00     0.020 A 
HETATM    4  C   LIG     1      17.165  35.803  20.284  1.00  0.00     0.031 A 
HETATM    5  C   LIG     1      17.511  36.491  21.452  1.00  0.00     0.020 A 
HETATM    6  C   LIG     1      16.536  36.769  22.415  1.00  0.00     0.006 A 
HETATM    7  I   LIG     1      17.058  37.809  24.174  1.00  0.00    -0.045 I 
ENDROOT
BRANCH   1   8
HETATM    8  N   LIG     1      15.467  34.691  18.876  1.00  0.00    -0.328 N 
HETATM    9  C   LIG     1      15.413  33.263  18.745  1.00  0.00     0.218 C 
HETATM   10  C   LIG     1      15.483  32.353  19.935  1.00  0.00     0.117 C 
HETATM   11  O   LIG     1      15.238  32.759  17.603  1.00  0.00    -0.274 OA
HETATM   12  H   LIG     1      15.088  35.265  18.090  1.00  0.00     0.169 HD
ENDBRANCH   1   8
TORSDOF 1
ENDMDL
MODEL 3
REMARK VINA RESULT:      -5.7      3.576      4.590
REMARK  1 active torsions:
REMARK  status: ('A' for Active; 'I' for Inactive)
REMARK       I    between atoms: C_2  and  N_3 
REMARK    1  A    between atoms: N_3  and  C_4 
ROOT
HETATM    1  C   LIG     1      16.314  36.644  22.443  1.00  0.00     0.034 A 
HETATM    2  C   LIG     1      17.332  35.746  22.089  1.00  0.00     0.031 A 
HETATM    3  C   LIG     1      17.040  34.618  21.318  1.00  0.00     0.020 A 
HETATM    4  C   LIG     1      15.008  36.423  21.976  1.00  0.00     0.031 A 
HETATM    5  C   LIG     1      14.718  35.293  21.204  1.00  0.00     0.020 A 
HETATM    6  C   LIG     1      15.732  34.387  20.879  1.00  0.00     0.006 A 
HETATM    7  I   LIG     1      15.293  32.686  19.713  1.00  0.00    -0.045 I 
ENDROOT
BRANCH   1   8
HETATM    8  N   LIG     1      16.635  37.812  23.211  1.00  0.00    -0.328 N 
HETATM    9  C   LIG     1      17.024  37.784  24.593  1.00  0.00     0.218 C 
HETATM   10  C   LIG     1      17.395  36.506  25.285  1.00  0.00     0.117 C 
HETATM   11  O   LIG     1      17.119  38.870  25.225  1.00  0.00    -0.274 OA
HETATM   12  H   LIG     1      16.713  38.722  22.704  1.00  0.00     0.169 HD
ENDBRANCH   1   8
TORSDOF 1
ENDMDL
MODEL 4
REMARK VINA RESULT:      -5.4      4.023      5.248
REMARK  1 active torsions:
REMARK  status: ('A' for Active; 'I' for Inactive)
REMARK       I    between atoms: C_2  and  N_3 
REMARK    1  A    between atoms: N_3  and  C_4 
ROOT
HETATM    1  C   LIG     1      17.186  36.381  23.005  1.00  0.00     0.034 A 
HETATM    2  C   LIG     1      17.478  35.767  21.778  1.00  0.00     0.031 A 
HETATM    3  C   LIG     1      17.966  36.524  20.709  1.00  0.00     0.020 A 
HETATM    4  C   LIG     1      17.435  37.754  23.164  1.00  0.00     0.031 A 
HETATM    5  C   LIG     1      17.924  38.510  22.093  1.00  0.00     0.020 A 
HETATM    6  C   LIG     1      18.185  37.896  20.864  1.00  0.00     0.006 A 
HETATM    7  I   LIG     1      18.925  39.037  19.251  1.00  0.00    -0.045 I 
ENDROOT
BRANCH   1   8
HETATM    8  N   LIG     1      16.713  35.586  24.101  1.00  0.00    -0.328 N 
HETATM    9  C   LIG     1      17.353  35.524  25.384  1.00  0.00     0.218 C 
HETATM   10  C   LIG     1      18.425  36.495  25.783  1.00  0.00     0.117 C 
HETATM   11  O   LIG     1      16.962  34.670  26.224  1.00  0.00    -0.274 OA
HETATM   12  H   LIG     1      15.779  35.128  24.003  1.00  0.00     0.169 HD
ENDBRANCH   1   8
TORSDOF 1
ENDMDL
MODEL 5
REMARK VINA RESULT:      -5.4      8.462      9.469
REMARK  1 active torsions:
REMARK  status: ('A' for Active; 'I' for Inactive)
REMARK       I    between atoms: C_2  and  N_3 
REMARK    1  A    between atoms: N_3  and  C_4 
ROOT
HETATM    1  C   LIG     1      14.736  32.587  16.855  1.00  0.00     0.034 A 
HETATM    2  C   LIG     1      13.525  31.925  17.105  1.00  0.00     0.031 A 
HETATM    3  C   LIG     1      13.122  30.861  16.292  1.00  0.00     0.020 A 
HETATM    4  C   LIG     1      15.562  32.140  15.811  1.00  0.00     0.031 A 
HETATM    5  C   LIG     1      15.158  31.076  14.998  1.00  0.00     0.020 A 
HETATM    6  C   LIG     1      13.936  30.439  15.235  1.00  0.00     0.006 A 
HETATM    7  I   LIG     1      13.328  28.832  14.011  1.00  0.00    -0.045 I 
ENDROOT
BRANCH   1   8
HETATM    8  N   LIG     1      15.149  33.658  17.715  1.00  0.00    -0.328 N 
HETATM    9  C   LIG     1      15.461  33.496  19.107  1.00  0.00     0.218 C 
HETATM   10  C   LIG     1      15.647  32.142  19.725  1.00  0.00     0.117 C 
HETATM   11  O   LIG     1      15.648  34.520  19.816  1.00  0.00    -0.274 OA
HETATM   12  H   LIG     1      15.358  34.582  17.275  1.00  0.00     0.169 HD
ENDBRANCH   1   8
TORSDOF 1
ENDMDL
MODEL 6
REMARK VINA RESULT:      -5.1     11.247     12.176
REMARK  1 active torsions:
REMARK  status: ('A' for Active; 'I' for Inactive)
REMARK       I    between atoms: C_2  and  N_3 
REMARK    1  A    between atoms: N_3  and  C_4 
ROOT
HETATM    1  C   LIG     1      14.137  30.150  14.524  1.00  0.00     0.034 A 
HETATM    2  C   LIG     1      14.239  30.945  15.675  1.00  0.00     0.031 A 
HETATM    3  C   LIG     1      15.193  31.966  15.744  1.00  0.00     0.020 A 
HETATM    4  C   LIG     1      14.968  30.420  13.424  1.00  0.00     0.031 A 
HETATM    5  C   LIG     1      15.921  31.442  13.496  1.00  0.00     0.020 A 
HETATM    6  C   LIG     1      16.037  32.212  14.657  1.00  0.00     0.006 A 
HETATM    7  I   LIG     1      17.473  33.753  14.762  1.00  0.00    -0.045 I 
ENDROOT
BRANCH   1   8
HETATM    8  N   LIG     1      13.135  29.126  14.457  1.00  0.00    -0.328 N 
HETATM    9  C   LIG     1      13.352  27.827  13.886  1.00  0.00     0.218 C 
HETATM   10  C   LIG     1      14.726  27.327  13.553  1.00  0.00     0.117 C 
HETATM   11  O   LIG     1      12.367  27.058  13.719  1.00  0.00    -0.274 OA
HETATM   12  H   LIG     1      12.237  29.288  14.965  1.00  0.00     0.169 HD
ENDBRANCH   1   8
TORSDOF 1
ENDMDL
MODEL 7
REMARK VINA RESULT:      -5.0      6.816      7.542
REMARK  1 active torsions:
REMARK  status: ('A' for Active; 'I' for Inactive)
REMARK       I    between atoms: C_2  and  N_3 
REMARK    1  A    between atoms: N_3  and  C_4 
ROOT
HETATM    1  C   LIG     1      15.017  32.691  17.617  1.00  0.00     0.034 A 
HETATM    2  C   LIG     1      15.154  32.047  18.855  1.00  0.00     0.031 A 
HETATM    3  C   LIG     1      15.485  32.780  19.998  1.00  0.00     0.020 A 
HETATM    4  C   LIG     1      15.168  34.086  17.546  1.00  0.00     0.031 A 
HETATM    5  C   LIG     1      15.499  34.818  18.691  1.00  0.00     0.020 A 
HETATM    6  C   LIG     1      15.662  34.165  19.917  1.00  0.00     0.006 A 
HETATM    7  I   LIG     1      16.159  35.270  21.643  1.00  0.00    -0.045 I 
ENDROOT
BRANCH   1   8
HETATM    8  N   LIG     1      14.649  31.930  16.458  1.00  0.00    -0.328 N 
HETATM    9  C   LIG     1      15.470  31.802  15.287  1.00  0.00     0.218 C 
HETATM   10  C   LIG     1      16.907  32.231  15.276  1.00  0.00     0.117 C 
HETATM   11  O   LIG     1      14.990  31.256  14.258  1.00  0.00    -0.274 OA
HETATM   12  H   LIG     1      13.795  31.331  16.519  1.00  0.00     0.169 HD
ENDBRANCH   1   8
TORSDOF 1
ENDMDL
MODEL 8
REMARK VINA RESULT:      -5.0     11.226     12.031
REMARK  1 active torsions:
REMARK  status: ('A' for Active; 'I' for Inactive)
REMARK       I    between atoms: C_2  and  N_3 
REMARK    1  A    between atoms: N_3  and  C_4 
ROOT
HETATM    1  C   LIG     1      13.537  29.774  14.760  1.00  0.00     0.034 A 
HETATM    2  C   LIG     1      12.874  30.318  15.870  1.00  0.00     0.031 A 
HETATM    3  C   LIG     1      13.395  31.441  16.521  1.00  0.00     0.020 A 
HETATM    4  C   LIG     1      14.701  30.395  14.280  1.00  0.00     0.031 A 
HETATM    5  C   LIG     1      15.220  31.518  14.933  1.00  0.00     0.020 A 
HETATM    6  C   LIG     1      14.570  32.039  16.056  1.00  0.00     0.006 A 
HETATM    7  I   LIG     1      15.353  33.734  17.037  1.00  0.00    -0.045 I 
ENDROOT
BRANCH   1   8
HETATM    8  N   LIG     1      12.976  28.639  14.086  1.00  0.00    -0.328 N 
HETATM    9  C   LIG     1      13.756  27.599  13.477  1.00  0.00     0.218 C 
HETATM   10  C   LIG     1      15.229  27.465  13.726  1.00  0.00     0.117 C 
HETATM   11  O   LIG     1      13.178  26.737  12.763  1.00  0.00    -0.274 OA
HETATM   12  H   LIG     1      11.943  28.494  14.152  1.00  0.00     0.169 HD
ENDBRANCH   1   8
TORSDOF 1
ENDMDL
MODEL 9
REMARK VINA RESULT:      -4.9     12.561     13.424
REMARK  1 active torsions:
REMARK  status: ('A' for Active; 'I' for Inactive)
REMARK       I    between atoms: C_2  and  N_3 
REMARK    1  A    between atoms: N_3  and  C_4 
ROOT
HETATM    1  C   LIG     1      13.656  28.442  14.035  1.00  0.00     0.034 A 
HETATM    2  C   LIG     1      12.911  29.339  14.813  1.00  0.00     0.031 A 
HETATM    3  C   LIG     1      13.501  30.509  15.301  1.00  0.00     0.020 A 
HETATM    4  C   LIG     1      14.987  28.754  13.711  1.00  0.00     0.031 A 
HETATM    5  C   LIG     1      15.576  29.924  14.200  1.00  0.00     0.020 A 
HETATM    6  C   LIG     1      14.835  30.800  15.000  1.00  0.00     0.006 A 
HETATM    7  I   LIG     1      15.724  32.566  15.734  1.00  0.00    -0.045 I 
ENDROOT
BRANCH   1   8
HETATM    8  N   LIG     1      13.029  27.261  13.517  1.00  0.00    -0.328 N 
HETATM    9  C   LIG     1      11.669  27.208  13.060  1.00  0.00     0.218 C 
HETATM   10  C   LIG     1      10.862  28.450  12.827  1.00  0.00     0.117 C 
HETATM   11  O   LIG     1      11.158  26.089  12.784  1.00  0.00    -0.274 OA
HETATM   12  H   LIG     1      13.632  26.425  13.344  1.00  0.00     0.169 HD
ENDBRANCH   1   8
TORSDOF 1
ENDMDL
MODEL 10
REMARK VINA RESULT:      -4.8      5.961      6.994
REMARK  1 active torsions:
REMARK  status: ('A' for Active; 'I' for Inactive)
REMARK       I    between atoms: C_2  and  N_3 
REMARK    1  A    between atoms: N_3  and  C_4 
ROOT
HETATM    1  C   LIG     1      15.757  33.939  19.330  1.00  0.00     0.034 A 
HETATM    2  C   LIG     1      15.405  32.648  19.750  1.00  0.00     0.031 A 
HETATM    3  C   LIG     1      14.691  31.799  18.898  1.00  0.00     0.020 A 
HETATM    4  C   LIG     1      15.427  34.353  18.029  1.00  0.00     0.031 A 
HETATM    5  C   LIG     1      14.713  33.503  17.178  1.00  0.00     0.020 A 
HETATM    6  C   LIG     1      14.340  32.228  17.614  1.00  0.00     0.006 A 
HETATM    7  I   LIG     1      13.266  30.946  16.329  1.00  0.00    -0.045 I 
ENDROOT
BRANCH   1   8
HETATM    8  N   LIG     1      16.514  34.787  20.204  1.00  0.00    -0.328 N 
HETATM    9  C   LIG     1      15.930  35.768  21.075  1.00  0.00     0.218 C 
HETATM   10  C   LIG     1      14.456  35.808  21.350  1.00  0.00     0.117 C 
HETATM   11  O   LIG     1      16.684  36.579  21.676  1.00  0.00    -0.274 OA
HETATM   12  H   LIG     1      17.535  34.593  20.308  1.00  0.00     0.169 HD
ENDBRANCH   1   8
TORSDOF 1
ENDMDL
MODEL 11
REMARK VINA RESULT:      -4.8      7.205      7.988
REMARK  1 active torsions:
REMARK  status: ('A' for Active; 'I' for Inactive)
REMARK       I    between atoms: C_2  and  N_3 
REMARK    1  A    between atoms: N_3  and  C_4 
ROOT
HETATM    1  C   LIG     1      15.117  32.574  17.642  1.00  0.00     0.034 A 
HETATM    2  C   LIG     1      15.233  33.962  17.476  1.00  0.00     0.031 A 
HETATM    3  C   LIG     1      15.456  34.788  18.581  1.00  0.00     0.020 A 
HETATM    4  C   LIG     1      15.275  32.018  18.923  1.00  0.00     0.031 A 
HETATM    5  C   LIG     1      15.498  32.847  20.027  1.00  0.00     0.020 A 
HETATM    6  C   LIG     1      15.584  34.232  19.858  1.00  0.00     0.006 A 
HETATM    7  I   LIG     1      15.924  35.480  21.525  1.00  0.00    -0.045 I 
ENDROOT
BRANCH   1   8
HETATM    8  N   LIG     1      14.916  31.737  16.495  1.00  0.00    -0.328 N 
HETATM    9  C   LIG     1      13.648  31.177  16.121  1.00  0.00     0.218 C 
HETATM   10  C   LIG     1      12.363  31.639  16.743  1.00  0.00     0.117 C 
HETATM   11  O   LIG     1      13.604  30.319  15.199  1.00  0.00    -0.274 OA
HETATM   12  H   LIG     1      15.709  31.633  15.823  1.00  0.00     0.169 HD
ENDBRANCH   1   8
TORSDOF 1
ENDMDL
MODEL 12
REMARK VINA RESULT:      -4.8      9.333     10.302
REMARK  1 active torsions:
REMARK  status: ('A' for Active; 'I' for Inactive)
REMARK       I    between atoms: C_2  and  N_3 
REMARK    1  A    between atoms: N_3  and  C_4 
ROOT
HETATM    1  C   LIG     1      14.877  31.964  15.675  1.00  0.00     0.034 A 
HETATM    2  C   LIG     1      15.678  31.270  14.756  1.00  0.00     0.031 A 
HETATM    3  C   LIG     1      15.234  30.066  14.203  1.00  0.00     0.020 A 
HETATM    4  C   LIG     1      13.606  31.461  15.997  1.00  0.00     0.031 A 
HETATM    5  C   LIG     1      13.164  30.256  15.443  1.00  0.00     0.020 A 
HETATM    6  C   LIG     1      13.979  29.555  14.549  1.00  0.00     0.006 A 
HETATM    7  I   LIG     1      13.310  27.739  13.711  1.00  0.00    -0.045 I 
ENDROOT
BRANCH   1   8
HETATM    8  N   LIG     1      15.334  33.213  16.213  1.00  0.00    -0.328 N 
HETATM    9  C   LIG     1      15.327  33.536  17.612  1.00  0.00     0.218 C 
HETATM   10  C   LIG     1      15.094  32.493  18.665  1.00  0.00     0.117 C 
HETATM   11  O   LIG     1      15.586  34.715  17.970  1.00  0.00    -0.274 OA
HETATM   12  H   LIG     1      15.818  33.874  15.565  1.00  0.00     0.169 HD
ENDBRANCH   1   8
TORSDOF 1
ENDMDL
MODEL 13
REMARK VINA RESULT:      -4.7      4.247      5.096
REMARK  1 active torsions:
REMARK  status: ('A' for Active; 'I' for Inactive)
REMARK       I    between atoms: C_2  and  N_3 
REMARK    1  A    between atoms: N_3  and  C_4 
ROOT
HETATM    1  C   LIG     1      16.403  35.976  21.526  1.00  0.00     0.034 A 
HETATM    2  C   LIG     1      16.780  37.128  22.231  1.00  0.00     0.031 A 
HETATM    3  C   LIG     1      17.769  37.975  21.722  1.00  0.00     0.020 A 
HETATM    4  C   LIG     1      16.994  35.707  20.280  1.00  0.00     0.031 A 
HETATM    5  C   LIG     1      17.983  36.555  19.772  1.00  0.00     0.020 A 
HETATM    6  C   LIG     1      18.375  37.687  20.495  1.00  0.00     0.006 A 
HETATM    7  I   LIG     1      19.865  38.966  19.726  1.00  0.00    -0.045 I 
ENDROOT
BRANCH   1   8
HETATM    8  N   LIG     1      15.367  35.132  22.047  1.00  0.00    -0.328 N 
HETATM    9  C   LIG     1      14.880  33.955  21.385  1.00  0.00     0.218 C 
HETATM   10  C   LIG     1      15.600  33.348  20.218  1.00  0.00     0.117 C 
HETATM   11  O   LIG     1      13.856  33.377  21.837  1.00  0.00    -0.274 OA
HETATM   12  H   LIG     1      15.037  35.312  23.022  1.00  0.00     0.169 HD
ENDBRANCH   1   8
TORSDOF 1
ENDMDL
MODEL 14
REMARK VINA RESULT:      -4.6      5.579      6.471
REMARK  1 active torsions:
REMARK  status: ('A' for Active; 'I' for Inactive)
REMARK       I    between atoms: C_2  and  N_3 
REMARK    1  A    between atoms: N_3  and  C_4 
ROOT
HETATM    1  C   LIG     1      15.520  34.060  20.266  1.00  0.00     0.034 A 
HETATM    2  C   LIG     1      15.451  34.822  19.090  1.00  0.00     0.031 A 
HETATM    3  C   LIG     1      15.248  34.197  17.856  1.00  0.00     0.020 A 
HETATM    4  C   LIG     1      15.335  32.669  20.197  1.00  0.00     0.031 A 
HETATM    5  C   LIG     1      15.133  32.046  18.962  1.00  0.00     0.020 A 
HETATM    6  C   LIG     1      15.094  32.808  17.790  1.00  0.00     0.006 A 
HETATM    7  I   LIG     1      14.785  31.867  15.928  1.00  0.00    -0.045 I 
ENDROOT
BRANCH   1   8
HETATM    8  N   LIG     1      15.700  34.718  21.528  1.00  0.00    -0.328 N 
HETATM    9  C   LIG     1      16.776  35.624  21.815  1.00  0.00     0.218 C 
HETATM   10  C   LIG     1      17.657  36.177  20.734  1.00  0.00     0.117 C 
HETATM   11  O   LIG     1      16.946  36.018  22.999  1.00  0.00    -0.274 OA
HETATM   12  H   LIG     1      14.936  34.633  22.235  1.00  0.00     0.169 HD
ENDBRANCH   1   8
TORSDOF 1
ENDMDL
MODEL 15
REMARK VINA RESULT:      -4.5      9.003      9.917
REMARK  1 active torsions:
REMARK  status: ('A' for Active; 'I' for Inactive)
REMARK       I    between atoms: C_2  and  N_3 
REMARK    1  A    between atoms: N_3  and  C_4 
ROOT
HETATM    1  C   LIG     1      17.256  32.925  13.933  1.00  0.00     0.034 A 
HETATM    2  C   LIG     1      16.929  33.382  15.219  1.00  0.00     0.031 A 
HETATM    3  C   LIG     1      15.836  32.843  15.902  1.00  0.00     0.020 A 
HETATM    4  C   LIG     1      16.502  31.887  13.360  1.00  0.00     0.031 A 
HETATM    5  C   LIG     1      15.409  31.349  14.046  1.00  0.00     0.020 A 
HETATM    6  C   LIG     1      15.072  31.829  15.315  1.00  0.00     0.006 A 
HETATM    7  I   LIG     1      13.424  31.015  16.349  1.00  0.00    -0.045 I 
ENDROOT
BRANCH   1   8
HETATM    8  N   LIG     1      18.397  33.468  13.256  1.00  0.00    -0.328 N 
HETATM    9  C   LIG     1      18.319  34.438  12.201  1.00  0.00     0.218 C 
HETATM   10  C   LIG     1      17.049  35.176  11.895  1.00  0.00     0.117 C 
HETATM   11  O   LIG     1      19.361  34.726  11.554  1.00  0.00    -0.274 OA
HETATM   12  H   LIG     1      19.343  33.241  13.637  1.00  0.00     0.169 HD
ENDBRANCH   1   8
TORSDOF 1
ENDMDL
MODEL 16
REMARK VINA RESULT:      -4.4      9.470     10.701
REMARK  1 active torsions:
REMARK  status: ('A' for Active; 'I' for Inactive)
REMARK       I    between atoms: C_2  and  N_3 
REMARK    1  A    between atoms: N_3  and  C_4 
ROOT
HETATM    1  C   LIG     1      15.539  32.239  15.403  1.00  0.00     0.034 A 
HETATM    2  C   LIG     1      16.432  33.252  15.783  1.00  0.00     0.031 A 
HETATM    3  C   LIG     1      17.411  33.699  14.890  1.00  0.00     0.020 A 
HETATM    4  C   LIG     1      15.606  31.714  14.102  1.00  0.00     0.031 A 
HETATM    5  C   LIG     1      16.587  32.163  13.211  1.00  0.00     0.020 A 
HETATM    6  C   LIG     1      17.492  33.152  13.606  1.00  0.00     0.006 A 
HETATM    7  I   LIG     1      18.968  33.830  12.260  1.00  0.00    -0.045 I 
ENDROOT
BRANCH   1   8
HETATM    8  N   LIG     1      14.522  31.811  16.319  1.00  0.00    -0.328 N 
HETATM    9  C   LIG     1      13.546  30.801  16.021  1.00  0.00     0.218 C 
HETATM   10  C   LIG     1      13.670  29.908  14.822  1.00  0.00     0.117 C 
HETATM   11  O   LIG     1      12.592  30.614  16.823  1.00  0.00    -0.274 OA
HETATM   12  H   LIG     1      14.573  32.160  17.302  1.00  0.00     0.169 HD
ENDBRANCH   1   8
TORSDOF 1
ENDMDL
MODEL 17
REMARK VINA RESULT:      -4.1     10.759     11.642
REMARK  1 active torsions:
REMARK  status: ('A' for Active; 'I' for Inactive)
REMARK       I    between atoms: C_2  and  N_3 
REMARK    1  A    between atoms: N_3  and  C_4 
ROOT
HETATM    1  C   LIG     1      14.809  30.599  15.089  1.00  0.00     0.034 A 
HETATM    2  C   LIG     1      15.476  29.621  14.337  1.00  0.00     0.031 A 
HETATM    3  C   LIG     1      14.761  28.570  13.756  1.00  0.00     0.020 A 
HETATM    4  C   LIG     1      13.411  30.540  15.211  1.00  0.00     0.031 A 
HETATM    5  C   LIG     1      12.697  29.487  14.629  1.00  0.00     0.020 A 
HETATM    6  C   LIG     1      13.372  28.499  13.905  1.00  0.00     0.006 A 
HETATM    7  I   LIG     1      12.294  26.915  13.024  1.00  0.00    -0.045 I 
ENDROOT
BRANCH   1   8
HETATM    8  N   LIG     1      15.553  31.687  15.656  1.00  0.00    -0.328 N 
HETATM    9  C   LIG     1      16.418  32.549  14.901  1.00  0.00     0.218 C 
HETATM   10  C   LIG     1      16.413  32.560  13.401  1.00  0.00     0.117 C 
HETATM   11  O   LIG     1      17.157  33.365  15.513  1.00  0.00    -0.274 OA
HETATM   12  H   LIG     1      15.355  31.947  16.648  1.00  0.00     0.169 HD
ENDBRANCH   1   8
TORSDOF 1
ENDMDL
MODEL 18
REMARK VINA RESULT:      -3.9     18.464     19.476
REMARK  1 active torsions:
REMARK  status: ('A' for Active; 'I' for Inactive)
REMARK       I    between atoms: C_2  and  N_3 
REMARK    1  A    between atoms: N_3  and  C_4 
ROOT
HETATM    1  C   LIG     1      19.908  22.453  33.650  1.00  0.00     0.034 A 
HETATM    2  C   LIG     1      19.473  23.124  32.497  1.00  0.00     0.031 A 
HETATM    3  C   LIG     1      19.343  22.435  31.288  1.00  0.00     0.020 A 
HETATM    4  C   LIG     1      20.165  21.074  33.588  1.00  0.00     0.031 A 
HETATM    5  C   LIG     1      20.035  20.386  32.377  1.00  0.00     0.020 A 
HETATM    6  C   LIG     1      19.628  21.067  31.225  1.00  0.00     0.006 A 
HETATM    7  I   LIG     1      19.429  20.028  29.400  1.00  0.00    -0.045 I 
ENDROOT
BRANCH   1   8
HETATM    8  N   LIG     1      20.009  23.167  34.890  1.00  0.00    -0.328 N 
HETATM    9  C   LIG     1      21.252  23.558  35.492  1.00  0.00     0.218 C 
HETATM   10  C   LIG     1      22.551  23.494  34.744  1.00  0.00     0.117 C 
HETATM   11  O   LIG     1      21.245  24.029  36.661  1.00  0.00    -0.274 OA
HETATM   12  H   LIG     1      19.128  23.535  35.313  1.00  0.00     0.169 HD
ENDBRANCH   1   8
TORSDOF 1
ENDMDL
MODEL 19
REMARK VINA RESULT:      -3.9      8.856     10.314
REMARK  1 active torsions:
REMARK  status: ('A' for Active; 'I' for Inactive)
REMARK       I    between atoms: C_2  and  N_3 
REMARK    1  A    between atoms: N_3  and  C_4 
ROOT
HETATM    1  C   LIG     1      15.616  32.149  15.186  1.00  0.00     0.034 A 
HETATM    2  C   LIG     1      15.715  31.685  13.867  1.00  0.00     0.031 A 
HETATM    3  C   LIG     1      16.678  32.214  13.003  1.00  0.00     0.020 A 
HETATM    4  C   LIG     1      16.525  33.117  15.646  1.00  0.00     0.031 A 
HETATM    5  C   LIG     1      17.488  33.645  14.780  1.00  0.00     0.020 A 
HETATM    6  C   LIG     1      17.562  33.198  13.457  1.00  0.00     0.006 A 
HETATM    7  I   LIG     1      19.018  33.994  12.155  1.00  0.00    -0.045 I 
ENDROOT
BRANCH   1   8
HETATM    8  N   LIG     1      14.640  31.576  16.069  1.00  0.00    -0.328 N 
HETATM    9  C   LIG     1      14.483  31.953  17.445  1.00  0.00     0.218 C 
HETATM   10  C   LIG     1      15.143  33.174  18.013  1.00  0.00     0.117 C 
HETATM   11  O   LIG     1      13.717  31.276  18.182  1.00  0.00    -0.274 OA
HETATM   12  H   LIG     1      13.921  30.943  15.654  1.00  0.00     0.169 HD
ENDBRANCH   1   8
TORSDOF 1
ENDMDL
MODEL 20
REMARK VINA RESULT:      -3.8     17.358     18.015
REMARK  1 active torsions:
REMARK  status: ('A' for Active; 'I' for Inactive)
REMARK       I    between atoms: C_2  and  N_3 
REMARK    1  A    between atoms: N_3  and  C_4 
ROOT
HETATM    1  C   LIG     1      27.390  28.435  34.536  1.00  0.00     0.034 A 
HETATM    2  C   LIG     1      26.472  27.573  33.919  1.00  0.00     0.031 A 
HETATM    3  C   LIG     1      26.594  27.267  32.561  1.00  0.00     0.020 A 
HETATM    4  C   LIG     1      28.462  28.950  33.787  1.00  0.00     0.031 A 
HETATM    5  C   LIG     1      28.582  28.643  32.428  1.00  0.00     0.020 A 
HETATM    6  C   LIG     1      27.646  27.805  31.813  1.00  0.00     0.006 A 
HETATM    7  I   LIG     1      27.832  27.341  29.764  1.00  0.00    -0.045 I 
ENDROOT
BRANCH   1   8
HETATM    8  N   LIG     1      27.268  28.718  35.937  1.00  0.00    -0.328 N 
HETATM    9  C   LIG     1      26.703  29.926  36.467  1.00  0.00     0.218 C 
HETATM   10  C   LIG     1      25.940  30.888  35.605  1.00  0.00     0.117 C 
HETATM   11  O   LIG     1      26.795  30.155  37.702  1.00  0.00    -0.274 OA
HETATM   12  H   LIG     1      27.484  27.948  36.610  1.00  0.00     0.169 HD
ENDBRANCH   1   8
TORSDOF 1
ENDMDL
