MODEL 1
REMARK VINA RESULT:      -6.7      0.000      0.000
REMARK  2 active torsions:
REMARK  status: ('A' for Active; 'I' for Inactive)
REMARK    1  A    between atoms: C_2  and  O_3 
REMARK    2  A    between atoms: O_3  and  C_4 
ROOT
HETATM    1  C   LIG     1      17.139  36.782  24.269  1.00  0.00     0.132 C 
HETATM    2  C   LIG     1      18.311  37.388  25.062  1.00  0.00     0.032 C 
HETATM    3  C   LIG     1      18.344  36.851  26.499  1.00  0.00     0.002 C 
HETATM    4  C   LIG     1      18.413  35.319  26.512  1.00  0.00     0.000 C 
HETATM    5  C   LIG     1      17.249  34.710  25.722  1.00  0.00     0.002 C 
HETATM    6  C   LIG     1      17.218  35.248  24.286  1.00  0.00     0.032 C 
ENDROOT
BRANCH   1   7
HETATM    7  O   LIG     1      17.177  37.231  22.915  1.00  0.00    -0.316 OA
BRANCH   7   8
HETATM    8  C   LIG     1      17.103  38.579  22.545  1.00  0.00     0.255 C 
HETATM    9  C   LIG     1      18.216  39.190  21.763  1.00  0.00     0.126 C 
HETATM   10  O   LIG     1      16.105  39.282  22.858  1.00  0.00    -0.266 OA
ENDBRANCH   7   8
ENDBRANCH   1   7
TORSDOF 2
ENDMDL
MODEL 2
REMARK VINA RESULT:      -6.3      1.877      4.828
REMARK  2 active torsions:
REMARK  status: ('A' for Active; 'I' for Inactive)
REMARK    1  A    between atoms: C_2  and  O_3 
REMARK    2  A    between atoms: O_3  and  C_4 
ROOT
HETATM    1  C   LIG     1      17.531  37.540  21.461  1.00  0.00     0.132 C 
HETATM    2  C   LIG     1      18.267  36.563  20.526  1.00  0.00     0.032 C 
HETATM    3  C   LIG     1      18.759  37.273  19.258  1.00  0.00     0.002 C 
HETATM    4  C   LIG     1      19.653  38.469  19.609  1.00  0.00     0.000 C 
HETATM    5  C   LIG     1      18.925  39.444  20.541  1.00  0.00     0.002 C 
HETATM    6  C   LIG     1      18.436  38.732  21.808  1.00  0.00     0.032 C 
ENDROOT
BRANCH   1   7
HETATM    7  O   LIG     1      17.157  36.878  22.668  1.00  0.00    -0.316 OA
BRANCH   7   8
HETATM    8  C   LIG     1      16.644  37.543  23.788  1.00  0.00     0.255 C 
HETATM    9  C   LIG     1      17.443  37.593  25.045  1.00  0.00     0.126 C 
HETATM   10  O   LIG     1      15.517  38.108  23.744  1.00  0.00    -0.266 OA
ENDBRANCH   7   8
ENDBRANCH   1   7
TORSDOF 2
ENDMDL
MODEL 3
REMARK VINA RESULT:      -6.3      1.403      1.610
REMARK  2 active torsions:
REMARK  status: ('A' for Active; 'I' for Inactive)
REMARK    1  A    between atoms: C_2  and  O_3 
REMARK    2  A    between atoms: O_3  and  C_4 
ROOT
HETATM    1  C   LIG     1      17.094  36.776  24.338  1.00  0.00     0.132 C 
HETATM    2  C   LIG     1      18.250  37.409  25.134  1.00  0.00     0.032 C 
HETATM    3  C   LIG     1      18.317  36.843  26.558  1.00  0.00     0.002 C 
HETATM    4  C   LIG     1      18.443  35.314  26.538  1.00  0.00     0.000 C 
HETATM    5  C   LIG     1      17.295  34.679  25.744  1.00  0.00     0.002 C 
HETATM    6  C   LIG     1      17.231  35.246  24.321  1.00  0.00     0.032 C 
ENDROOT
BRANCH   1   7
HETATM    7  O   LIG     1      17.102  37.255  22.993  1.00  0.00    -0.316 OA
BRANCH   7   8
HETATM    8  C   LIG     1      16.439  36.614  21.940  1.00  0.00     0.255 C 
HETATM    9  C   LIG     1      17.229  36.019  20.825  1.00  0.00     0.126 C 
HETATM   10  O   LIG     1      15.181  36.527  21.926  1.00  0.00    -0.266 OA
ENDBRANCH   7   8
ENDBRANCH   1   7
TORSDOF 2
ENDMDL
MODEL 4
REMARK VINA RESULT:      -5.8      1.826      4.428
REMARK  2 active torsions:
REMARK  status: ('A' for Active; 'I' for Inactive)
REMARK    1  A    between atoms: C_2  and  O_3 
REMARK    2  A    between atoms: O_3  and  C_4 
ROOT
HETATM    1  C   LIG     1      16.710  37.353  23.357  1.00  0.00     0.132 C 
HETATM    2  C   LIG     1      17.078  36.046  22.632  1.00  0.00     0.032 C 
HETATM    3  C   LIG     1      17.189  36.265  21.118  1.00  0.00     0.002 C 
HETATM    4  C   LIG     1      18.201  37.371  20.794  1.00  0.00     0.000 C 
HETATM    5  C   LIG     1      17.840  38.674  21.515  1.00  0.00     0.002 C 
HETATM    6  C   LIG     1      17.731  38.453  23.029  1.00  0.00     0.032 C 
ENDROOT
BRANCH   1   7
HETATM    7  O   LIG     1      16.694  37.145  24.769  1.00  0.00    -0.316 OA
BRANCH   7   8
HETATM    8  C   LIG     1      17.700  36.460  25.461  1.00  0.00     0.255 C 
HETATM    9  C   LIG     1      17.498  35.030  25.830  1.00  0.00     0.126 C 
HETATM   10  O   LIG     1      18.778  37.035  25.770  1.00  0.00    -0.266 OA
ENDBRANCH   7   8
ENDBRANCH   1   7
TORSDOF 2
ENDMDL
MODEL 5
REMARK VINA RESULT:      -5.8      3.720      5.397
REMARK  2 active torsions:
REMARK  status: ('A' for Active; 'I' for Inactive)
REMARK    1  A    between atoms: C_2  and  O_3 
REMARK    2  A    between atoms: O_3  and  C_4 
ROOT
HETATM    1  C   LIG     1      17.673  36.891  20.542  1.00  0.00     0.132 C 
HETATM    2  C   LIG     1      18.954  36.820  19.691  1.00  0.00     0.032 C 
HETATM    3  C   LIG     1      19.387  38.216  19.225  1.00  0.00     0.002 C 
HETATM    4  C   LIG     1      19.579  39.160  20.419  1.00  0.00     0.000 C 
HETATM    5  C   LIG     1      18.307  39.233  21.271  1.00  0.00     0.002 C 
HETATM    6  C   LIG     1      17.876  37.836  21.736  1.00  0.00     0.032 C 
ENDROOT
BRANCH   1   7
HETATM    7  O   LIG     1      17.335  35.595  21.033  1.00  0.00    -0.316 OA
BRANCH   7   8
HETATM    8  C   LIG     1      16.093  34.986  20.819  1.00  0.00     0.255 C 
HETATM    9  C   LIG     1      14.853  35.651  21.308  1.00  0.00     0.126 C 
HETATM   10  O   LIG     1      16.009  33.884  20.211  1.00  0.00    -0.266 OA
ENDBRANCH   7   8
ENDBRANCH   1   7
TORSDOF 2
ENDMDL
MODEL 6
REMARK VINA RESULT:      -5.5      3.296      4.587
REMARK  2 active torsions:
REMARK  status: ('A' for Active; 'I' for Inactive)
REMARK    1  A    between atoms: C_2  and  O_3 
REMARK    2  A    between atoms: O_3  and  C_4 
ROOT
HETATM    1  C   LIG     1      18.460  37.612  20.786  1.00  0.00     0.132 C 
HETATM    2  C   LIG     1      17.425  36.488  20.977  1.00  0.00     0.032 C 
HETATM    3  C   LIG     1      16.905  36.453  22.420  1.00  0.00     0.002 C 
HETATM    4  C   LIG     1      16.317  37.810  22.827  1.00  0.00     0.000 C 
HETATM    5  C   LIG     1      17.343  38.933  22.637  1.00  0.00     0.002 C 
HETATM    6  C   LIG     1      17.860  38.966  21.193  1.00  0.00     0.032 C 
ENDROOT
BRANCH   1   7
HETATM    7  O   LIG     1      18.867  37.679  19.420  1.00  0.00    -0.316 OA
BRANCH   7   8
HETATM    8  C   LIG     1      19.433  38.818  18.837  1.00  0.00     0.255 C 
HETATM    9  C   LIG     1      18.832  39.387  17.597  1.00  0.00     0.126 C 
HETATM   10  O   LIG     1      20.441  39.375  19.351  1.00  0.00    -0.266 OA
ENDBRANCH   7   8
ENDBRANCH   1   7
TORSDOF 2
ENDMDL
MODEL 7
REMARK VINA RESULT:      -5.4      9.277     10.275
REMARK  2 active torsions:
REMARK  status: ('A' for Active; 'I' for Inactive)
REMARK    1  A    between atoms: C_2  and  O_3 
REMARK    2  A    between atoms: O_3  and  C_4 
ROOT
HETATM    1  C   LIG     1      15.716  32.624  15.494  1.00  0.00     0.132 C 
HETATM    2  C   LIG     1      15.157  32.682  16.927  1.00  0.00     0.032 C 
HETATM    3  C   LIG     1      13.720  32.149  16.983  1.00  0.00     0.002 C 
HETATM    4  C   LIG     1      13.640  30.722  16.426  1.00  0.00     0.000 C 
HETATM    5  C   LIG     1      14.198  30.657  14.999  1.00  0.00     0.002 C 
HETATM    6  C   LIG     1      15.635  31.190  14.946  1.00  0.00     0.032 C 
ENDROOT
BRANCH   1   7
HETATM    7  O   LIG     1      17.079  33.046  15.480  1.00  0.00    -0.316 OA
BRANCH   7   8
HETATM    8  C   LIG     1      17.563  34.072  14.660  1.00  0.00     0.255 C 
HETATM    9  C   LIG     1      18.437  33.737  13.499  1.00  0.00     0.126 C 
HETATM   10  O   LIG     1      17.264  35.275  14.886  1.00  0.00    -0.266 OA
ENDBRANCH   7   8
ENDBRANCH   1   7
TORSDOF 2
ENDMDL
MODEL 8
REMARK VINA RESULT:      -5.1     10.345     11.245
REMARK  2 active torsions:
REMARK  status: ('A' for Active; 'I' for Inactive)
REMARK    1  A    between atoms: C_2  and  O_3 
REMARK    2  A    between atoms: O_3  and  C_4 
ROOT
HETATM    1  C   LIG     1      15.540  31.815  15.219  1.00  0.00     0.132 C 
HETATM    2  C   LIG     1      15.190  31.011  13.954  1.00  0.00     0.032 C 
HETATM    3  C   LIG     1      14.464  29.707  14.310  1.00  0.00     0.002 C 
HETATM    4  C   LIG     1      13.206  29.987  15.142  1.00  0.00     0.000 C 
HETATM    5  C   LIG     1      13.549  30.789  16.403  1.00  0.00     0.002 C 
HETATM    6  C   LIG     1      14.273  32.093  16.044  1.00  0.00     0.032 C 
ENDROOT
BRANCH   1   7
HETATM    7  O   LIG     1      16.138  33.060  14.861  1.00  0.00    -0.316 OA
BRANCH   7   8
HETATM    8  C   LIG     1      17.497  33.207  14.558  1.00  0.00     0.255 C 
HETATM    9  C   LIG     1      17.909  34.091  13.431  1.00  0.00     0.126 C 
HETATM   10  O   LIG     1      18.377  32.605  15.231  1.00  0.00    -0.266 OA
ENDBRANCH   7   8
ENDBRANCH   1   7
TORSDOF 2
ENDMDL
MODEL 9
REMARK VINA RESULT:      -5.1      8.830     10.196
REMARK  2 active torsions:
REMARK  status: ('A' for Active; 'I' for Inactive)
REMARK    1  A    between atoms: C_2  and  O_3 
REMARK    2  A    between atoms: O_3  and  C_4 
ROOT
HETATM    1  C   LIG     1      15.212  31.814  16.587  1.00  0.00     0.132 C 
HETATM    2  C   LIG     1      15.857  32.905  15.713  1.00  0.00     0.032 C 
HETATM    3  C   LIG     1      16.550  32.296  14.487  1.00  0.00     0.002 C 
HETATM    4  C   LIG     1      15.571  31.449  13.665  1.00  0.00     0.000 C 
HETATM    5  C   LIG     1      14.924  30.361  14.531  1.00  0.00     0.002 C 
HETATM    6  C   LIG     1      14.231  30.973  15.755  1.00  0.00     0.032 C 
ENDROOT
BRANCH   1   7
HETATM    7  O   LIG     1      14.504  32.408  17.673  1.00  0.00    -0.316 OA
BRANCH   7   8
HETATM    8  C   LIG     1      15.023  32.516  18.969  1.00  0.00     0.255 C 
HETATM    9  C   LIG     1      14.855  31.385  19.926  1.00  0.00     0.126 C 
HETATM   10  O   LIG     1      15.638  33.554  19.335  1.00  0.00    -0.266 OA
ENDBRANCH   7   8
ENDBRANCH   1   7
TORSDOF 2
ENDMDL
MODEL 10
REMARK VINA RESULT:      -5.1      1.656      2.548
REMARK  2 active torsions:
REMARK  status: ('A' for Active; 'I' for Inactive)
REMARK    1  A    between atoms: C_2  and  O_3 
REMARK    2  A    between atoms: O_3  and  C_4 
ROOT
HETATM    1  C   LIG     1      16.713  37.781  22.504  1.00  0.00     0.132 C 
HETATM    2  C   LIG     1      17.332  37.670  23.909  1.00  0.00     0.032 C 
HETATM    3  C   LIG     1      16.912  36.366  24.599  1.00  0.00     0.002 C 
HETATM    4  C   LIG     1      17.281  35.147  23.744  1.00  0.00     0.000 C 
HETATM    5  C   LIG     1      16.669  35.253  22.343  1.00  0.00     0.002 C 
HETATM    6  C   LIG     1      17.092  36.557  21.655  1.00  0.00     0.032 C 
ENDROOT
BRANCH   1   7
HETATM    7  O   LIG     1      17.183  38.959  21.850  1.00  0.00    -0.316 OA
BRANCH   7   8
HETATM    8  C   LIG     1      18.508  39.136  21.435  1.00  0.00     0.255 C 
HETATM    9  C   LIG     1      18.817  39.241  19.981  1.00  0.00     0.126 C 
HETATM   10  O   LIG     1      19.444  39.215  22.277  1.00  0.00    -0.266 OA
ENDBRANCH   7   8
ENDBRANCH   1   7
TORSDOF 2
ENDMDL
MODEL 11
REMARK VINA RESULT:      -4.7      8.019      9.477
REMARK  2 active torsions:
REMARK  status: ('A' for Active; 'I' for Inactive)
REMARK    1  A    between atoms: C_2  and  O_3 
REMARK    2  A    between atoms: O_3  and  C_4 
ROOT
HETATM    1  C   LIG     1      14.843  32.889  17.188  1.00  0.00     0.132 C 
HETATM    2  C   LIG     1      13.882  31.753  17.585  1.00  0.00     0.032 C 
HETATM    3  C   LIG     1      13.244  31.109  16.347  1.00  0.00     0.002 C 
HETATM    4  C   LIG     1      14.318  30.599  15.377  1.00  0.00     0.000 C 
HETATM    5  C   LIG     1      15.278  31.726  14.980  1.00  0.00     0.002 C 
HETATM    6  C   LIG     1      15.915  32.368  16.219  1.00  0.00     0.032 C 
ENDROOT
BRANCH   1   7
HETATM    7  O   LIG     1      15.486  33.416  18.348  1.00  0.00    -0.316 OA
BRANCH   7   8
HETATM    8  C   LIG     1      15.390  32.836  19.618  1.00  0.00     0.255 C 
HETATM    9  C   LIG     1      15.951  31.474  19.850  1.00  0.00     0.126 C 
HETATM   10  O   LIG     1      14.840  33.452  20.570  1.00  0.00    -0.266 OA
ENDBRANCH   7   8
ENDBRANCH   1   7
TORSDOF 2
ENDMDL
MODEL 12
REMARK VINA RESULT:      -4.7      4.569      5.953
REMARK  2 active torsions:
REMARK  status: ('A' for Active; 'I' for Inactive)
REMARK    1  A    between atoms: C_2  and  O_3 
REMARK    2  A    between atoms: O_3  and  C_4 
ROOT
HETATM    1  C   LIG     1      15.808  34.237  20.929  1.00  0.00     0.132 C 
HETATM    2  C   LIG     1      14.999  35.489  20.543  1.00  0.00     0.032 C 
HETATM    3  C   LIG     1      14.791  36.410  21.752  1.00  0.00     0.002 C 
HETATM    4  C   LIG     1      16.133  36.802  22.383  1.00  0.00     0.000 C 
HETATM    5  C   LIG     1      16.943  35.559  22.768  1.00  0.00     0.002 C 
HETATM    6  C   LIG     1      17.151  34.641  21.557  1.00  0.00     0.032 C 
ENDROOT
BRANCH   1   7
HETATM    7  O   LIG     1      16.061  33.439  19.774  1.00  0.00    -0.316 OA
BRANCH   7   8
HETATM    8  C   LIG     1      15.175  32.465  19.298  1.00  0.00     0.255 C 
HETATM    9  C   LIG     1      14.830  31.299  20.160  1.00  0.00     0.126 C 
HETATM   10  O   LIG     1      14.659  32.566  18.152  1.00  0.00    -0.266 OA
ENDBRANCH   7   8
ENDBRANCH   1   7
TORSDOF 2
ENDMDL
MODEL 13
REMARK VINA RESULT:      -4.7      2.669      4.160
REMARK  2 active torsions:
REMARK  status: ('A' for Active; 'I' for Inactive)
REMARK    1  A    between atoms: C_2  and  O_3 
REMARK    2  A    between atoms: O_3  and  C_4 
ROOT
HETATM    1  C   LIG     1      16.441  36.765  22.690  1.00  0.00     0.132 C 
HETATM    2  C   LIG     1      17.433  36.670  21.516  1.00  0.00     0.032 C 
HETATM    3  C   LIG     1      17.158  35.428  20.658  1.00  0.00     0.002 C 
HETATM    4  C   LIG     1      15.711  35.420  20.149  1.00  0.00     0.000 C 
HETATM    5  C   LIG     1      14.719  35.516  21.314  1.00  0.00     0.002 C 
HETATM    6  C   LIG     1      14.995  36.759  22.170  1.00  0.00     0.032 C 
ENDROOT
BRANCH   1   7
HETATM    7  O   LIG     1      16.662  37.968  23.424  1.00  0.00    -0.316 OA
BRANCH   7   8
HETATM    8  C   LIG     1      17.697  38.129  24.352  1.00  0.00     0.255 C 
HETATM    9  C   LIG     1      17.497  37.691  25.763  1.00  0.00     0.126 C 
HETATM   10  O   LIG     1      18.800  38.634  24.008  1.00  0.00    -0.266 OA
ENDBRANCH   7   8
ENDBRANCH   1   7
TORSDOF 2
ENDMDL
MODEL 14
REMARK VINA RESULT:      -4.5      2.460      3.418
REMARK  2 active torsions:
REMARK  status: ('A' for Active; 'I' for Inactive)
REMARK    1  A    between atoms: C_2  and  O_3 
REMARK    2  A    between atoms: O_3  and  C_4 
ROOT
HETATM    1  C   LIG     1      17.158  37.233  21.190  1.00  0.00     0.132 C 
HETATM    2  C   LIG     1      17.725  38.013  22.390  1.00  0.00     0.032 C 
HETATM    3  C   LIG     1      17.100  37.534  23.707  1.00  0.00     0.002 C 
HETATM    4  C   LIG     1      17.300  36.025  23.895  1.00  0.00     0.000 C 
HETATM    5  C   LIG     1      16.739  35.244  22.701  1.00  0.00     0.002 C 
HETATM    6  C   LIG     1      17.366  35.724  21.386  1.00  0.00     0.032 C 
ENDROOT
BRANCH   1   7
HETATM    7  O   LIG     1      17.813  37.637  19.988  1.00  0.00    -0.316 OA
BRANCH   7   8
HETATM    8  C   LIG     1      19.185  37.475  19.763  1.00  0.00     0.255 C 
HETATM    9  C   LIG     1      20.086  38.662  19.823  1.00  0.00     0.126 C 
HETATM   10  O   LIG     1      19.671  36.338  19.518  1.00  0.00    -0.266 OA
ENDBRANCH   7   8
ENDBRANCH   1   7
TORSDOF 2
ENDMDL
MODEL 15
REMARK VINA RESULT:      -4.5      2.240      3.851
REMARK  2 active torsions:
REMARK  status: ('A' for Active; 'I' for Inactive)
REMARK    1  A    between atoms: C_2  and  O_3 
REMARK    2  A    between atoms: O_3  and  C_4 
ROOT
HETATM    1  C   LIG     1      16.288  37.476  22.511  1.00  0.00     0.132 C 
HETATM    2  C   LIG     1      17.506  37.842  21.643  1.00  0.00     0.032 C 
HETATM    3  C   LIG     1      18.301  38.999  22.263  1.00  0.00     0.002 C 
HETATM    4  C   LIG     1      18.735  38.663  23.695  1.00  0.00     0.000 C 
HETATM    5  C   LIG     1      17.526  38.295  24.564  1.00  0.00     0.002 C 
HETATM    6  C   LIG     1      16.734  37.138  23.942  1.00  0.00     0.032 C 
ENDROOT
BRANCH   1   7
HETATM    7  O   LIG     1      15.613  36.346  21.960  1.00  0.00    -0.316 OA
BRANCH   7   8
HETATM    8  C   LIG     1      16.249  35.135  21.661  1.00  0.00     0.255 C 
HETATM    9  C   LIG     1      15.711  34.270  20.573  1.00  0.00     0.126 C 
HETATM   10  O   LIG     1      17.275  34.770  22.296  1.00  0.00    -0.266 OA
ENDBRANCH   7   8
ENDBRANCH   1   7
TORSDOF 2
ENDMDL
MODEL 16
REMARK VINA RESULT:      -4.4      5.257      6.602
REMARK  2 active torsions:
REMARK  status: ('A' for Active; 'I' for Inactive)
REMARK    1  A    between atoms: C_2  and  O_3 
REMARK    2  A    between atoms: O_3  and  C_4 
ROOT
HETATM    1  C   LIG     1      15.740  33.982  19.689  1.00  0.00     0.132 C 
HETATM    2  C   LIG     1      15.172  34.223  18.278  1.00  0.00     0.032 C 
HETATM    3  C   LIG     1      15.143  32.924  17.463  1.00  0.00     0.002 C 
HETATM    4  C   LIG     1      14.347  31.834  18.192  1.00  0.00     0.000 C 
HETATM    5  C   LIG     1      14.907  31.592  19.598  1.00  0.00     0.002 C 
HETATM    6  C   LIG     1      14.934  32.892  20.411  1.00  0.00     0.032 C 
ENDROOT
BRANCH   1   7
HETATM    7  O   LIG     1      15.680  35.185  20.455  1.00  0.00    -0.316 OA
BRANCH   7   8
HETATM    8  C   LIG     1      16.753  35.677  21.208  1.00  0.00     0.255 C 
HETATM    9  C   LIG     1      16.942  35.214  22.612  1.00  0.00     0.126 C 
HETATM   10  O   LIG     1      17.566  36.502  20.710  1.00  0.00    -0.266 OA
ENDBRANCH   7   8
ENDBRANCH   1   7
TORSDOF 2
ENDMDL
MODEL 17
REMARK VINA RESULT:      -4.1      9.136     10.668
REMARK  2 active torsions:
REMARK  status: ('A' for Active; 'I' for Inactive)
REMARK    1  A    between atoms: C_2  and  O_3 
REMARK    2  A    between atoms: O_3  and  C_4 
ROOT
HETATM    1  C   LIG     1      15.755  32.895  15.772  1.00  0.00     0.132 C 
HETATM    2  C   LIG     1      15.840  31.655  14.864  1.00  0.00     0.032 C 
HETATM    3  C   LIG     1      16.107  32.052  13.406  1.00  0.00     0.002 C 
HETATM    4  C   LIG     1      17.381  32.899  13.291  1.00  0.00     0.000 C 
HETATM    5  C   LIG     1      17.303  34.135  14.195  1.00  0.00     0.002 C 
HETATM    6  C   LIG     1      17.037  33.734  15.651  1.00  0.00     0.032 C 
ENDROOT
BRANCH   1   7
HETATM    7  O   LIG     1      15.590  32.499  17.132  1.00  0.00    -0.316 OA
BRANCH   7   8
HETATM    8  C   LIG     1      14.394  31.988  17.649  1.00  0.00     0.255 C 
HETATM    9  C   LIG     1      13.137  32.110  16.857  1.00  0.00     0.126 C 
HETATM   10  O   LIG     1      14.367  31.418  18.774  1.00  0.00    -0.266 OA
ENDBRANCH   7   8
ENDBRANCH   1   7
TORSDOF 2
ENDMDL
MODEL 18
REMARK VINA RESULT:      -4.0     16.734     17.521
REMARK  2 active torsions:
REMARK  status: ('A' for Active; 'I' for Inactive)
REMARK    1  A    between atoms: C_2  and  O_3 
REMARK    2  A    between atoms: O_3  and  C_4 
ROOT
HETATM    1  C   LIG     1       3.495  41.469  33.151  1.00  0.00     0.132 C 
HETATM    2  C   LIG     1       3.637  40.014  32.666  1.00  0.00     0.032 C 
HETATM    3  C   LIG     1       2.669  39.718  31.514  1.00  0.00     0.002 C 
HETATM    4  C   LIG     1       2.875  40.700  30.354  1.00  0.00     0.000 C 
HETATM    5  C   LIG     1       2.737  42.150  30.832  1.00  0.00     0.002 C 
HETATM    6  C   LIG     1       3.707  42.445  31.983  1.00  0.00     0.032 C 
ENDROOT
BRANCH   1   7
HETATM    7  O   LIG     1       4.461  41.746  34.164  1.00  0.00    -0.316 OA
BRANCH   7   8
HETATM    8  C   LIG     1       4.516  41.068  35.387  1.00  0.00     0.255 C 
HETATM    9  C   LIG     1       3.341  41.108  36.304  1.00  0.00     0.126 C 
HETATM   10  O   LIG     1       5.543  40.418  35.721  1.00  0.00    -0.266 OA
ENDBRANCH   7   8
ENDBRANCH   1   7
TORSDOF 2
ENDMDL
MODEL 19
REMARK VINA RESULT:      -3.7     17.380     18.215
REMARK  2 active torsions:
REMARK  status: ('A' for Active; 'I' for Inactive)
REMARK    1  A    between atoms: C_2  and  O_3 
REMARK    2  A    between atoms: O_3  and  C_4 
ROOT
HETATM    1  C   LIG     1       3.739  41.883  34.387  1.00  0.00     0.132 C 
HETATM    2  C   LIG     1       3.787  41.039  33.100  1.00  0.00     0.032 C 
HETATM    3  C   LIG     1       3.051  41.740  31.951  1.00  0.00     0.002 C 
HETATM    4  C   LIG     1       3.625  43.141  31.703  1.00  0.00     0.000 C 
HETATM    5  C   LIG     1       3.582  43.985  32.982  1.00  0.00     0.002 C 
HETATM    6  C   LIG     1       4.319  43.283  34.129  1.00  0.00     0.032 C 
ENDROOT
BRANCH   1   7
HETATM    7  O   LIG     1       4.499  41.253  35.417  1.00  0.00    -0.316 OA
BRANCH   7   8
HETATM    8  C   LIG     1       3.966  40.311  36.305  1.00  0.00     0.255 C 
HETATM    9  C   LIG     1       4.441  38.899  36.255  1.00  0.00     0.126 C 
HETATM   10  O   LIG     1       3.093  40.643  37.152  1.00  0.00    -0.266 OA
ENDBRANCH   7   8
ENDBRANCH   1   7
TORSDOF 2
ENDMDL
