MODEL 1
REMARK VINA RESULT:      -6.6      0.000      0.000
REMARK  1 active torsions:
REMARK  status: ('A' for Active; 'I' for Inactive)
REMARK    1  A    between atoms: C_2  and  C_3 
ROOT
HETATM    1  C   LIG     1      17.179  37.822  23.419  1.00  0.00    -0.059 A 
HETATM    2  C   LIG     1      16.937  36.473  23.113  1.00  0.00     0.007 A 
HETATM    3  C   LIG     1      17.158  35.481  24.073  1.00  0.00     0.007 A 
HETATM    4  C   LIG     1      17.615  35.823  25.353  1.00  0.00    -0.062 A 
HETATM    5  C   LIG     1      17.889  34.755  26.369  1.00  0.00     0.048 C 
HETATM    6  C   LIG     1      17.881  37.169  25.652  1.00  0.00     0.007 A 
HETATM    7  C   LIG     1      17.660  38.162  24.694  1.00  0.00     0.007 A 
ENDROOT
BRANCH   1   8
HETATM    8  C   LIG     1      16.947  38.890  22.379  1.00  0.00     0.034 C 
HETATM    9  C   LIG     1      18.212  39.151  21.566  1.00  0.00     0.010 C 
ENDBRANCH   1   8
TORSDOF 1
ENDMDL
MODEL 2
REMARK VINA RESULT:      -6.4      2.351      5.143
REMARK  1 active torsions:
REMARK  status: ('A' for Active; 'I' for Inactive)
REMARK    1  A    between atoms: C_2  and  C_3 
ROOT
HETATM    1  C   LIG     1      17.404  37.141  21.493  1.00  0.00    -0.059 A 
HETATM    2  C   LIG     1      17.791  38.465  21.754  1.00  0.00     0.007 A 
HETATM    3  C   LIG     1      18.760  39.087  20.962  1.00  0.00     0.007 A 
HETATM    4  C   LIG     1      19.349  38.398  19.892  1.00  0.00    -0.062 A 
HETATM    5  C   LIG     1      20.417  39.053  19.067  1.00  0.00     0.048 C 
HETATM    6  C   LIG     1      18.980  37.067  19.644  1.00  0.00     0.007 A 
HETATM    7  C   LIG     1      18.011  36.444  20.436  1.00  0.00     0.007 A 
ENDROOT
BRANCH   1   8
HETATM    8  C   LIG     1      16.363  36.470  22.354  1.00  0.00     0.034 C 
HETATM    9  C   LIG     1      16.875  35.139  22.898  1.00  0.00     0.010 C 
ENDBRANCH   1   8
TORSDOF 1
ENDMDL
MODEL 3
REMARK VINA RESULT:      -6.4      0.799      4.240
REMARK  1 active torsions:
REMARK  status: ('A' for Active; 'I' for Inactive)
REMARK    1  A    between atoms: C_2  and  C_3 
ROOT
HETATM    1  C   LIG     1      17.285  35.946  24.546  1.00  0.00    -0.059 A 
HETATM    2  C   LIG     1      17.655  37.251  24.913  1.00  0.00     0.007 A 
HETATM    3  C   LIG     1      17.754  38.255  23.945  1.00  0.00     0.007 A 
HETATM    4  C   LIG     1      17.478  37.972  22.600  1.00  0.00    -0.062 A 
HETATM    5  C   LIG     1      17.623  39.040  21.557  1.00  0.00     0.048 C 
HETATM    6  C   LIG     1      17.132  36.663  22.229  1.00  0.00     0.007 A 
HETATM    7  C   LIG     1      17.031  35.659  23.195  1.00  0.00     0.007 A 
ENDROOT
BRANCH   1   8
HETATM    8  C   LIG     1      17.185  34.864  25.591  1.00  0.00     0.034 C 
HETATM    9  C   LIG     1      18.436  34.825  26.464  1.00  0.00     0.010 C 
ENDBRANCH   1   8
TORSDOF 1
ENDMDL
MODEL 4
REMARK VINA RESULT:      -6.3      2.383      4.919
REMARK  1 active torsions:
REMARK  status: ('A' for Active; 'I' for Inactive)
REMARK    1  A    between atoms: C_2  and  C_3 
ROOT
HETATM    1  C   LIG     1      17.417  37.160  21.487  1.00  0.00    -0.059 A 
HETATM    2  C   LIG     1      18.013  36.465  20.421  1.00  0.00     0.007 A 
HETATM    3  C   LIG     1      18.988  37.083  19.632  1.00  0.00     0.007 A 
HETATM    4  C   LIG     1      19.387  38.400  19.902  1.00  0.00    -0.062 A 
HETATM    5  C   LIG     1      20.404  39.076  19.031  1.00  0.00     0.048 C 
HETATM    6  C   LIG     1      18.775  39.104  20.951  1.00  0.00     0.007 A 
HETATM    7  C   LIG     1      17.801  38.486  21.741  1.00  0.00     0.007 A 
ENDROOT
BRANCH   1   8
HETATM    8  C   LIG     1      16.361  36.493  22.332  1.00  0.00     0.034 C 
HETATM    9  C   LIG     1      16.843  35.140  22.848  1.00  0.00     0.010 C 
ENDBRANCH   1   8
TORSDOF 1
ENDMDL
MODEL 5
REMARK VINA RESULT:      -6.3      1.325      2.166
REMARK  1 active torsions:
REMARK  status: ('A' for Active; 'I' for Inactive)
REMARK    1  A    between atoms: C_2  and  C_3 
ROOT
HETATM    1  C   LIG     1      16.828  36.309  22.884  1.00  0.00    -0.059 A 
HETATM    2  C   LIG     1      16.997  35.084  23.549  1.00  0.00     0.007 A 
HETATM    3  C   LIG     1      17.474  35.054  24.862  1.00  0.00     0.007 A 
HETATM    4  C   LIG     1      17.782  36.247  25.532  1.00  0.00    -0.062 A 
HETATM    5  C   LIG     1      18.332  36.211  26.927  1.00  0.00     0.048 C 
HETATM    6  C   LIG     1      17.637  37.470  24.860  1.00  0.00     0.007 A 
HETATM    7  C   LIG     1      17.159  37.502  23.547  1.00  0.00     0.007 A 
ENDROOT
BRANCH   1   8
HETATM    8  C   LIG     1      16.319  36.339  21.465  1.00  0.00     0.034 C 
HETATM    9  C   LIG     1      15.000  35.580  21.338  1.00  0.00     0.010 C 
ENDBRANCH   1   8
TORSDOF 1
ENDMDL
MODEL 6
REMARK VINA RESULT:      -6.3      1.356      3.821
REMARK  1 active torsions:
REMARK  status: ('A' for Active; 'I' for Inactive)
REMARK    1  A    between atoms: C_2  and  C_3 
ROOT
HETATM    1  C   LIG     1      17.370  36.856  24.553  1.00  0.00    -0.059 A 
HETATM    2  C   LIG     1      17.258  37.790  23.511  1.00  0.00     0.007 A 
HETATM    3  C   LIG     1      16.986  37.365  22.207  1.00  0.00     0.007 A 
HETATM    4  C   LIG     1      16.813  36.002  21.928  1.00  0.00    -0.062 A 
HETATM    5  C   LIG     1      16.561  35.543  20.523  1.00  0.00     0.048 C 
HETATM    6  C   LIG     1      16.949  35.065  22.964  1.00  0.00     0.007 A 
HETATM    7  C   LIG     1      17.220  35.489  24.268  1.00  0.00     0.007 A 
ENDROOT
BRANCH   1   8
HETATM    8  C   LIG     1      17.670  37.317  25.957  1.00  0.00     0.034 C 
HETATM    9  C   LIG     1      18.424  36.244  26.738  1.00  0.00     0.010 C 
ENDBRANCH   1   8
TORSDOF 1
ENDMDL
MODEL 7
REMARK VINA RESULT:      -6.0      2.739      3.500
REMARK  1 active torsions:
REMARK  status: ('A' for Active; 'I' for Inactive)
REMARK    1  A    between atoms: C_2  and  C_3 
ROOT
HETATM    1  C   LIG     1      18.388  38.186  20.877  1.00  0.00    -0.059 A 
HETATM    2  C   LIG     1      18.384  37.000  20.125  1.00  0.00     0.007 A 
HETATM    3  C   LIG     1      17.530  35.949  20.468  1.00  0.00     0.007 A 
HETATM    4  C   LIG     1      16.661  36.070  21.561  1.00  0.00    -0.062 A 
HETATM    5  C   LIG     1      15.773  34.927  21.953  1.00  0.00     0.048 C 
HETATM    6  C   LIG     1      16.681  37.245  22.329  1.00  0.00     0.007 A 
HETATM    7  C   LIG     1      17.535  38.297  21.987  1.00  0.00     0.007 A 
ENDROOT
BRANCH   1   8
HETATM    8  C   LIG     1      19.316  39.316  20.509  1.00  0.00     0.034 C 
HETATM    9  C   LIG     1      20.334  38.873  19.462  1.00  0.00     0.010 C 
ENDBRANCH   1   8
TORSDOF 1
ENDMDL
MODEL 8
REMARK VINA RESULT:      -5.9      1.819      3.187
REMARK  1 active torsions:
REMARK  status: ('A' for Active; 'I' for Inactive)
REMARK    1  A    between atoms: C_2  and  C_3 
ROOT
HETATM    1  C   LIG     1      18.492  38.069  20.574  1.00  0.00    -0.059 A 
HETATM    2  C   LIG     1      17.677  36.966  20.878  1.00  0.00     0.007 A 
HETATM    3  C   LIG     1      17.114  36.833  22.150  1.00  0.00     0.007 A 
HETATM    4  C   LIG     1      17.349  37.804  23.134  1.00  0.00    -0.062 A 
HETATM    5  C   LIG     1      16.777  37.640  24.510  1.00  0.00     0.048 C 
HETATM    6  C   LIG     1      18.183  38.894  22.840  1.00  0.00     0.007 A 
HETATM    7  C   LIG     1      18.747  39.028  21.568  1.00  0.00     0.007 A 
ENDROOT
BRANCH   1   8
HETATM    8  C   LIG     1      19.105  38.207  19.203  1.00  0.00     0.034 C 
HETATM    9  C   LIG     1      20.462  38.901  19.274  1.00  0.00     0.010 C 
ENDBRANCH   1   8
TORSDOF 1
ENDMDL
MODEL 9
REMARK VINA RESULT:      -5.7      1.771      2.892
REMARK  1 active torsions:
REMARK  status: ('A' for Active; 'I' for Inactive)
REMARK    1  A    between atoms: C_2  and  C_3 
ROOT
HETATM    1  C   LIG     1      17.494  36.788  21.478  1.00  0.00    -0.059 A 
HETATM    2  C   LIG     1      17.818  38.110  21.822  1.00  0.00     0.007 A 
HETATM    3  C   LIG     1      17.749  38.530  23.154  1.00  0.00     0.007 A 
HETATM    4  C   LIG     1      17.366  37.633  24.161  1.00  0.00    -0.062 A 
HETATM    5  C   LIG     1      17.255  38.095  25.584  1.00  0.00     0.048 C 
HETATM    6  C   LIG     1      17.019  36.318  23.815  1.00  0.00     0.007 A 
HETATM    7  C   LIG     1      17.087  35.897  22.484  1.00  0.00     0.007 A 
ENDROOT
BRANCH   1   8
HETATM    8  C   LIG     1      17.562  36.339  20.040  1.00  0.00     0.034 C 
HETATM    9  C   LIG     1      18.784  36.925  19.338  1.00  0.00     0.010 C 
ENDBRANCH   1   8
TORSDOF 1
ENDMDL
MODEL 10
REMARK VINA RESULT:      -5.6      9.659     11.128
REMARK  1 active torsions:
REMARK  status: ('A' for Active; 'I' for Inactive)
REMARK    1  A    between atoms: C_2  and  C_3 
ROOT
HETATM    1  C   LIG     1      14.259  30.486  15.064  1.00  0.00    -0.059 A 
HETATM    2  C   LIG     1      15.374  31.279  14.747  1.00  0.00     0.007 A 
HETATM    3  C   LIG     1      15.663  32.422  15.497  1.00  0.00     0.007 A 
HETATM    4  C   LIG     1      14.849  32.784  16.580  1.00  0.00    -0.062 A 
HETATM    5  C   LIG     1      15.137  34.033  17.359  1.00  0.00     0.048 C 
HETATM    6  C   LIG     1      13.721  32.006  16.883  1.00  0.00     0.007 A 
HETATM    7  C   LIG     1      13.431  30.862  16.134  1.00  0.00     0.007 A 
ENDROOT
BRANCH   1   8
HETATM    8  C   LIG     1      13.945  29.257  14.249  1.00  0.00     0.034 C 
HETATM    9  C   LIG     1      15.223  28.540  13.820  1.00  0.00     0.010 C 
ENDBRANCH   1   8
TORSDOF 1
ENDMDL
MODEL 11
REMARK VINA RESULT:      -5.5      9.654     11.122
REMARK  1 active torsions:
REMARK  status: ('A' for Active; 'I' for Inactive)
REMARK    1  A    between atoms: C_2  and  C_3 
ROOT
HETATM    1  C   LIG     1      14.251  30.491  15.061  1.00  0.00    -0.059 A 
HETATM    2  C   LIG     1      13.427  30.852  16.139  1.00  0.00     0.007 A 
HETATM    3  C   LIG     1      13.709  31.995  16.893  1.00  0.00     0.007 A 
HETATM    4  C   LIG     1      14.814  32.798  16.575  1.00  0.00    -0.062 A 
HETATM    5  C   LIG     1      15.139  34.002  17.409  1.00  0.00     0.048 C 
HETATM    6  C   LIG     1      15.653  32.425  15.513  1.00  0.00     0.007 A 
HETATM    7  C   LIG     1      15.371  31.283  14.759  1.00  0.00     0.007 A 
ENDROOT
BRANCH   1   8
HETATM    8  C   LIG     1      13.948  29.254  14.254  1.00  0.00     0.034 C 
HETATM    9  C   LIG     1      15.232  28.556  13.815  1.00  0.00     0.010 C 
ENDBRANCH   1   8
TORSDOF 1
ENDMDL
MODEL 12
REMARK VINA RESULT:      -5.4      9.207     10.671
REMARK  1 active torsions:
REMARK  status: ('A' for Active; 'I' for Inactive)
REMARK    1  A    between atoms: C_2  and  C_3 
ROOT
HETATM    1  C   LIG     1      14.625  32.219  16.746  1.00  0.00    -0.059 A 
HETATM    2  C   LIG     1      15.394  31.824  15.639  1.00  0.00     0.007 A 
HETATM    3  C   LIG     1      14.931  30.823  14.779  1.00  0.00     0.007 A 
HETATM    4  C   LIG     1      13.691  30.210  15.008  1.00  0.00    -0.062 A 
HETATM    5  C   LIG     1      13.214  29.109  14.108  1.00  0.00     0.048 C 
HETATM    6  C   LIG     1      12.933  30.587  16.127  1.00  0.00     0.007 A 
HETATM    7  C   LIG     1      13.394  31.588  16.987  1.00  0.00     0.007 A 
ENDROOT
BRANCH   1   8
HETATM    8  C   LIG     1      15.129  33.294  17.675  1.00  0.00     0.034 C 
HETATM    9  C   LIG     1      15.306  32.757  19.093  1.00  0.00     0.010 C 
ENDBRANCH   1   8
TORSDOF 1
ENDMDL
MODEL 13
REMARK VINA RESULT:      -5.3     10.112     11.433
REMARK  1 active torsions:
REMARK  status: ('A' for Active; 'I' for Inactive)
REMARK    1  A    between atoms: C_2  and  C_3 
ROOT
HETATM    1  C   LIG     1      15.141  31.823  15.500  1.00  0.00    -0.059 A 
HETATM    2  C   LIG     1      15.627  31.120  14.385  1.00  0.00     0.007 A 
HETATM    3  C   LIG     1      14.924  30.022  13.881  1.00  0.00     0.007 A 
HETATM    4  C   LIG     1      13.722  29.616  14.478  1.00  0.00    -0.062 A 
HETATM    5  C   LIG     1      12.989  28.413  13.961  1.00  0.00     0.048 C 
HETATM    6  C   LIG     1      13.248  30.302  15.606  1.00  0.00     0.007 A 
HETATM    7  C   LIG     1      13.949  31.400  16.111  1.00  0.00     0.007 A 
ENDROOT
BRANCH   1   8
HETATM    8  C   LIG     1      15.905  33.003  16.045  1.00  0.00     0.034 C 
HETATM    9  C   LIG     1      15.007  33.890  16.904  1.00  0.00     0.010 C 
ENDBRANCH   1   8
TORSDOF 1
ENDMDL
MODEL 14
REMARK VINA RESULT:      -5.2     10.318     11.621
REMARK  1 active torsions:
REMARK  status: ('A' for Active; 'I' for Inactive)
REMARK    1  A    between atoms: C_2  and  C_3 
ROOT
HETATM    1  C   LIG     1      15.384  31.811  15.299  1.00  0.00    -0.059 A 
HETATM    2  C   LIG     1      14.238  31.456  16.030  1.00  0.00     0.007 A 
HETATM    3  C   LIG     1      13.442  30.384  15.619  1.00  0.00     0.007 A 
HETATM    4  C   LIG     1      13.783  29.645  14.477  1.00  0.00    -0.062 A 
HETATM    5  C   LIG     1      12.906  28.520  14.014  1.00  0.00     0.048 C 
HETATM    6  C   LIG     1      14.914  30.013  13.732  1.00  0.00     0.007 A 
HETATM    7  C   LIG     1      15.711  31.085  14.143  1.00  0.00     0.007 A 
ENDROOT
BRANCH   1   8
HETATM    8  C   LIG     1      16.238  32.972  15.742  1.00  0.00     0.034 C 
HETATM    9  C   LIG     1      17.488  33.097  14.875  1.00  0.00     0.010 C 
ENDBRANCH   1   8
TORSDOF 1
ENDMDL
MODEL 15
REMARK VINA RESULT:      -5.2      2.305      3.917
REMARK  1 active torsions:
REMARK  status: ('A' for Active; 'I' for Inactive)
REMARK    1  A    between atoms: C_2  and  C_3 
ROOT
HETATM    1  C   LIG     1      16.723  37.579  22.251  1.00  0.00    -0.059 A 
HETATM    2  C   LIG     1      17.638  37.003  21.355  1.00  0.00     0.007 A 
HETATM    3  C   LIG     1      17.270  35.898  20.582  1.00  0.00     0.007 A 
HETATM    4  C   LIG     1      15.980  35.359  20.687  1.00  0.00    -0.062 A 
HETATM    5  C   LIG     1      15.598  34.149  19.887  1.00  0.00     0.048 C 
HETATM    6  C   LIG     1      15.072  35.919  21.599  1.00  0.00     0.007 A 
HETATM    7  C   LIG     1      15.439  37.024  22.372  1.00  0.00     0.007 A 
ENDROOT
BRANCH   1   8
HETATM    8  C   LIG     1      17.125  38.767  23.089  1.00  0.00     0.034 C 
HETATM    9  C   LIG     1      17.467  38.344  24.515  1.00  0.00     0.010 C 
ENDBRANCH   1   8
TORSDOF 1
ENDMDL
MODEL 16
REMARK VINA RESULT:      -5.1      9.388     10.664
REMARK  1 active torsions:
REMARK  status: ('A' for Active; 'I' for Inactive)
REMARK    1  A    between atoms: C_2  and  C_3 
ROOT
HETATM    1  C   LIG     1      16.440  32.566  15.067  1.00  0.00    -0.059 A 
HETATM    2  C   LIG     1      15.727  32.961  16.210  1.00  0.00     0.007 A 
HETATM    3  C   LIG     1      14.572  32.274  16.595  1.00  0.00     0.007 A 
HETATM    4  C   LIG     1      14.119  31.177  15.849  1.00  0.00    -0.062 A 
HETATM    5  C   LIG     1      12.858  30.465  16.240  1.00  0.00     0.048 C 
HETATM    6  C   LIG     1      14.816  30.795  14.692  1.00  0.00     0.007 A 
HETATM    7  C   LIG     1      15.971  31.482  14.307  1.00  0.00     0.007 A 
ENDROOT
BRANCH   1   8
HETATM    8  C   LIG     1      17.681  33.313  14.650  1.00  0.00     0.034 C 
HETATM    9  C   LIG     1      17.756  33.451  13.131  1.00  0.00     0.010 C 
ENDBRANCH   1   8
TORSDOF 1
ENDMDL
MODEL 17
REMARK VINA RESULT:      -5.1      9.854     11.519
REMARK  1 active torsions:
REMARK  status: ('A' for Active; 'I' for Inactive)
REMARK    1  A    between atoms: C_2  and  C_3 
ROOT
HETATM    1  C   LIG     1      14.876  31.158  14.811  1.00  0.00    -0.059 A 
HETATM    2  C   LIG     1      15.341  32.050  15.791  1.00  0.00     0.007 A 
HETATM    3  C   LIG     1      16.376  32.942  15.499  1.00  0.00     0.007 A 
HETATM    4  C   LIG     1      16.955  32.963  14.223  1.00  0.00    -0.062 A 
HETATM    5  C   LIG     1      18.093  33.893  13.923  1.00  0.00     0.048 C 
HETATM    6  C   LIG     1      16.508  32.056  13.249  1.00  0.00     0.007 A 
HETATM    7  C   LIG     1      15.473  31.163  13.540  1.00  0.00     0.007 A 
ENDROOT
BRANCH   1   8
HETATM    8  C   LIG     1      13.763  30.191  15.130  1.00  0.00     0.034 C 
HETATM    9  C   LIG     1      12.894  30.711  16.271  1.00  0.00     0.010 C 
ENDBRANCH   1   8
TORSDOF 1
ENDMDL
MODEL 18
REMARK VINA RESULT:      -4.7      6.769      8.144
REMARK  1 active torsions:
REMARK  status: ('A' for Active; 'I' for Inactive)
REMARK    1  A    between atoms: C_2  and  C_3 
ROOT
HETATM    1  C   LIG     1      14.408  32.121  17.652  1.00  0.00    -0.059 A 
HETATM    2  C   LIG     1      14.619  31.647  18.956  1.00  0.00     0.007 A 
HETATM    3  C   LIG     1      15.168  32.484  19.932  1.00  0.00     0.007 A 
HETATM    4  C   LIG     1      15.504  33.809  19.620  1.00  0.00    -0.062 A 
HETATM    5  C   LIG     1      16.130  34.695  20.657  1.00  0.00     0.048 C 
HETATM    6  C   LIG     1      15.316  34.277  18.310  1.00  0.00     0.007 A 
HETATM    7  C   LIG     1      14.767  33.441  17.334  1.00  0.00     0.007 A 
ENDROOT
BRANCH   1   8
HETATM    8  C   LIG     1      13.822  31.214  16.599  1.00  0.00     0.034 C 
HETATM    9  C   LIG     1      14.706  31.171  15.356  1.00  0.00     0.010 C 
ENDBRANCH   1   8
TORSDOF 1
ENDMDL
MODEL 19
REMARK VINA RESULT:      -4.7      8.993     10.733
REMARK  1 active torsions:
REMARK  status: ('A' for Active; 'I' for Inactive)
REMARK    1  A    between atoms: C_2  and  C_3 
ROOT
HETATM    1  C   LIG     1      14.780  31.815  16.326  1.00  0.00    -0.059 A 
HETATM    2  C   LIG     1      15.576  32.968  16.415  1.00  0.00     0.007 A 
HETATM    3  C   LIG     1      16.400  33.342  15.350  1.00  0.00     0.007 A 
HETATM    4  C   LIG     1      16.435  32.574  14.178  1.00  0.00    -0.062 A 
HETATM    5  C   LIG     1      17.349  32.954  13.051  1.00  0.00     0.048 C 
HETATM    6  C   LIG     1      15.659  31.408  14.096  1.00  0.00     0.007 A 
HETATM    7  C   LIG     1      14.834  31.033  15.160  1.00  0.00     0.007 A 
ENDROOT
BRANCH   1   8
HETATM    8  C   LIG     1      13.897  31.410  17.479  1.00  0.00     0.034 C 
HETATM    9  C   LIG     1      14.562  31.721  18.817  1.00  0.00     0.010 C 
ENDBRANCH   1   8
TORSDOF 1
ENDMDL
MODEL 20
REMARK VINA RESULT:      -4.5     12.239     13.407
REMARK  1 active torsions:
REMARK  status: ('A' for Active; 'I' for Inactive)
REMARK    1  A    between atoms: C_2  and  C_3 
ROOT
HETATM    1  C   LIG     1      22.482  35.168  12.706  1.00  0.00    -0.059 A 
HETATM    2  C   LIG     1      22.327  35.751  11.438  1.00  0.00     0.007 A 
HETATM    3  C   LIG     1      21.333  35.296  10.567  1.00  0.00     0.007 A 
HETATM    4  C   LIG     1      20.474  34.257  10.954  1.00  0.00    -0.062 A 
HETATM    5  C   LIG     1      19.434  33.742  10.005  1.00  0.00     0.048 C 
HETATM    6  C   LIG     1      20.643  33.657  12.212  1.00  0.00     0.007 A 
HETATM    7  C   LIG     1      21.636  34.112  13.083  1.00  0.00     0.007 A 
ENDROOT
BRANCH   1   8
HETATM    8  C   LIG     1      23.559  35.657  13.641  1.00  0.00     0.034 C 
HETATM    9  C   LIG     1      24.297  36.856  13.050  1.00  0.00     0.010 C 
ENDBRANCH   1   8
TORSDOF 1
ENDMDL
