MODEL 1
REMARK VINA RESULT:      -4.9      0.000      0.000
REMARK  4 active torsions:
REMARK  status: ('A' for Active; 'I' for Inactive)
REMARK    1  A    between atoms: O_1  and  C_2 
REMARK    2  A    between atoms: C_2  and  C_3 
REMARK    3  A    between atoms: C_2  and  C_5 
REMARK    4  A    between atoms: C_5  and  C_6 
ROOT
HETATM    1  C   LIG     1      17.348  37.761  25.183  1.00  0.00     0.117 C 
ENDROOT
BRANCH   1   2
HETATM    2  O   LIG     1      17.194  39.000  25.828  1.00  0.00    -0.396 OA
HETATM    3  H   LIG     1      17.171  38.816  26.804  1.00  0.00     0.210 HD
ENDBRANCH   1   2
BRANCH   1   4
HETATM    4  C   LIG     1      17.372  37.963  23.651  1.00  0.00     0.027 C 
HETATM    5  C   LIG     1      16.858  36.757  22.862  1.00  0.00     0.007 C 
ENDBRANCH   1   4
BRANCH   1   6
HETATM    6  C   LIG     1      18.603  37.064  25.747  1.00  0.00     0.031 C 
BRANCH   6   7
HETATM    7  C   LIG     1      18.273  35.916  26.712  1.00  0.00    -0.002 C 
HETATM    8  C   LIG     1      17.476  34.820  26.011  1.00  0.00     0.005 C 
ENDBRANCH   6   7
ENDBRANCH   1   6
TORSDOF 4
ENDMDL
MODEL 2
REMARK VINA RESULT:      -4.7      1.425      1.837
REMARK  4 active torsions:
REMARK  status: ('A' for Active; 'I' for Inactive)
REMARK    1  A    between atoms: O_1  and  C_2 
REMARK    2  A    between atoms: C_2  and  C_3 
REMARK    3  A    between atoms: C_2  and  C_5 
REMARK    4  A    between atoms: C_5  and  C_6 
ROOT
HETATM    1  C   LIG     1      16.641  37.407  23.905  1.00  0.00     0.117 C 
ENDROOT
BRANCH   1   2
HETATM    2  O   LIG     1      15.380  38.021  23.814  1.00  0.00    -0.396 OA
HETATM    3  H   LIG     1      15.229  38.500  24.672  1.00  0.00     0.210 HD
ENDBRANCH   1   2
BRANCH   1   4
HETATM    4  C   LIG     1      17.407  37.577  22.574  1.00  0.00     0.027 C 
HETATM    5  C   LIG     1      17.873  39.011  22.310  1.00  0.00     0.007 C 
ENDBRANCH   1   4
BRANCH   1   6
HETATM    6  C   LIG     1      17.378  37.976  25.134  1.00  0.00     0.031 C 
BRANCH   6   7
HETATM    7  C   LIG     1      18.329  36.963  25.789  1.00  0.00    -0.002 C 
HETATM    8  C   LIG     1      17.728  35.560  25.781  1.00  0.00     0.005 C 
ENDBRANCH   6   7
ENDBRANCH   1   6
TORSDOF 4
ENDMDL
MODEL 3
REMARK VINA RESULT:      -4.7      0.940      3.324
REMARK  4 active torsions:
REMARK  status: ('A' for Active; 'I' for Inactive)
REMARK    1  A    between atoms: O_1  and  C_2 
REMARK    2  A    between atoms: C_2  and  C_3 
REMARK    3  A    between atoms: C_2  and  C_5 
REMARK    4  A    between atoms: C_5  and  C_6 
ROOT
HETATM    1  C   LIG     1      17.953  37.535  25.280  1.00  0.00     0.117 C 
ENDROOT
BRANCH   1   2
HETATM    2  O   LIG     1      17.284  38.665  25.781  1.00  0.00    -0.396 OA
HETATM    3  H   LIG     1      17.278  39.343  25.054  1.00  0.00     0.210 HD
ENDBRANCH   1   2
BRANCH   1   4
HETATM    4  C   LIG     1      18.307  36.575  26.438  1.00  0.00     0.027 C 
HETATM    5  C   LIG     1      18.004  35.106  26.135  1.00  0.00     0.007 C 
ENDBRANCH   1   4
BRANCH   1   6
HETATM    6  C   LIG     1      17.085  36.898  24.176  1.00  0.00     0.031 C 
BRANCH   6   7
HETATM    7  C   LIG     1      16.557  37.920  23.159  1.00  0.00    -0.002 C 
HETATM    8  C   LIG     1      17.659  38.361  22.200  1.00  0.00     0.005 C 
ENDBRANCH   6   7
ENDBRANCH   1   6
TORSDOF 4
ENDMDL
MODEL 4
REMARK VINA RESULT:      -4.3      2.255      4.077
REMARK  4 active torsions:
REMARK  status: ('A' for Active; 'I' for Inactive)
REMARK    1  A    between atoms: O_1  and  C_2 
REMARK    2  A    between atoms: C_2  and  C_3 
REMARK    3  A    between atoms: C_2  and  C_5 
REMARK    4  A    between atoms: C_5  and  C_6 
ROOT
HETATM    1  C   LIG     1      16.761  37.854  23.544  1.00  0.00     0.117 C 
ENDROOT
BRANCH   1   2
HETATM    2  O   LIG     1      15.374  38.055  23.657  1.00  0.00    -0.396 OA
HETATM    3  H   LIG     1      14.963  37.709  22.821  1.00  0.00     0.210 HD
ENDBRANCH   1   2
BRANCH   1   4
HETATM    4  C   LIG     1      17.119  36.409  23.958  1.00  0.00     0.027 C 
HETATM    5  C   LIG     1      16.965  35.388  22.828  1.00  0.00     0.007 C 
ENDBRANCH   1   4
BRANCH   1   6
HETATM    6  C   LIG     1      17.197  38.226  22.112  1.00  0.00     0.031 C 
BRANCH   6   7
HETATM    7  C   LIG     1      18.457  39.103  22.075  1.00  0.00    -0.002 C 
HETATM    8  C   LIG     1      18.891  39.382  20.638  1.00  0.00     0.005 C 
ENDBRANCH   6   7
ENDBRANCH   1   6
TORSDOF 4
ENDMDL
MODEL 5
REMARK VINA RESULT:      -4.2      2.800      3.499
REMARK  4 active torsions:
REMARK  status: ('A' for Active; 'I' for Inactive)
REMARK    1  A    between atoms: O_1  and  C_2 
REMARK    2  A    between atoms: C_2  and  C_3 
REMARK    3  A    between atoms: C_2  and  C_5 
REMARK    4  A    between atoms: C_5  and  C_6 
ROOT
HETATM    1  C   LIG     1      16.247  37.729  22.706  1.00  0.00     0.117 C 
ENDROOT
BRANCH   1   2
HETATM    2  O   LIG     1      15.168  38.050  23.548  1.00  0.00    -0.396 OA
HETATM    3  H   LIG     1      14.500  38.530  22.991  1.00  0.00     0.210 HD
ENDBRANCH   1   2
BRANCH   1   4
HETATM    4  C   LIG     1      17.272  38.886  22.698  1.00  0.00     0.027 C 
HETATM    5  C   LIG     1      18.065  38.997  21.394  1.00  0.00     0.007 C 
ENDBRANCH   1   4
BRANCH   1   6
HETATM    6  C   LIG     1      16.831  36.372  23.149  1.00  0.00     0.031 C 
BRANCH   6   7
HETATM    7  C   LIG     1      17.045  35.397  21.982  1.00  0.00    -0.002 C 
HETATM    8  C   LIG     1      15.721  34.793  21.521  1.00  0.00     0.005 C 
ENDBRANCH   6   7
ENDBRANCH   1   6
TORSDOF 4
ENDMDL
MODEL 6
REMARK VINA RESULT:      -4.2      3.157      4.344
REMARK  4 active torsions:
REMARK  status: ('A' for Active; 'I' for Inactive)
REMARK    1  A    between atoms: O_1  and  C_2 
REMARK    2  A    between atoms: C_2  and  C_3 
REMARK    3  A    between atoms: C_2  and  C_5 
REMARK    4  A    between atoms: C_5  and  C_6 
ROOT
HETATM    1  C   LIG     1      18.547  39.002  21.034  1.00  0.00     0.117 C 
ENDROOT
BRANCH   1   2
HETATM    2  O   LIG     1      19.457  39.399  22.028  1.00  0.00    -0.396 OA
HETATM    3  H   LIG     1      19.054  39.154  22.903  1.00  0.00     0.210 HD
ENDBRANCH   1   2
BRANCH   1   4
HETATM    4  C   LIG     1      19.311  38.511  19.784  1.00  0.00     0.027 C 
HETATM    5  C   LIG     1      19.160  37.012  19.518  1.00  0.00     0.007 C 
ENDBRANCH   1   4
BRANCH   1   6
HETATM    6  C   LIG     1      17.586  37.956  21.636  1.00  0.00     0.031 C 
BRANCH   6   7
HETATM    7  C   LIG     1      16.685  38.530  22.740  1.00  0.00    -0.002 C 
HETATM    8  C   LIG     1      16.786  37.702  24.018  1.00  0.00     0.005 C 
ENDBRANCH   6   7
ENDBRANCH   1   6
TORSDOF 4
ENDMDL
MODEL 7
REMARK VINA RESULT:      -4.0      9.361     11.112
REMARK  4 active torsions:
REMARK  status: ('A' for Active; 'I' for Inactive)
REMARK    1  A    between atoms: O_1  and  C_2 
REMARK    2  A    between atoms: C_2  and  C_3 
REMARK    3  A    between atoms: C_2  and  C_5 
REMARK    4  A    between atoms: C_5  and  C_6 
ROOT
HETATM    1  C   LIG     1      13.808  31.967  17.274  1.00  0.00     0.117 C 
ENDROOT
BRANCH   1   2
HETATM    2  O   LIG     1      13.926  31.444  18.573  1.00  0.00    -0.396 OA
HETATM    3  H   LIG     1      14.827  31.697  18.906  1.00  0.00     0.210 HD
ENDBRANCH   1   2
BRANCH   1   4
HETATM    4  C   LIG     1      15.125  32.663  16.864  1.00  0.00     0.027 C 
HETATM    5  C   LIG     1      15.072  34.189  16.961  1.00  0.00     0.007 C 
ENDBRANCH   1   4
BRANCH   1   6
HETATM    6  C   LIG     1      13.371  30.833  16.324  1.00  0.00     0.031 C 
BRANCH   6   7
HETATM    7  C   LIG     1      14.336  30.629  15.146  1.00  0.00    -0.002 C 
HETATM    8  C   LIG     1      13.900  29.453  14.276  1.00  0.00     0.005 C 
ENDBRANCH   6   7
ENDBRANCH   1   6
TORSDOF 4
ENDMDL
MODEL 8
REMARK VINA RESULT:      -4.0      8.315     10.069
REMARK  4 active torsions:
REMARK  status: ('A' for Active; 'I' for Inactive)
REMARK    1  A    between atoms: O_1  and  C_2 
REMARK    2  A    between atoms: C_2  and  C_3 
REMARK    3  A    between atoms: C_2  and  C_5 
REMARK    4  A    between atoms: C_5  and  C_6 
ROOT
HETATM    1  C   LIG     1      15.013  32.681  17.824  1.00  0.00     0.117 C 
ENDROOT
BRANCH   1   2
HETATM    2  O   LIG     1      14.603  33.988  17.508  1.00  0.00    -0.396 OA
HETATM    3  H   LIG     1      14.253  34.392  18.346  1.00  0.00     0.210 HD
ENDBRANCH   1   2
BRANCH   1   4
HETATM    4  C   LIG     1      15.326  32.578  19.334  1.00  0.00     0.027 C 
HETATM    5  C   LIG     1      14.841  31.275  19.975  1.00  0.00     0.007 C 
ENDBRANCH   1   4
BRANCH   1   6
HETATM    6  C   LIG     1      13.932  31.695  17.335  1.00  0.00     0.031 C 
BRANCH   6   7
HETATM    7  C   LIG     1      14.246  31.093  15.957  1.00  0.00    -0.002 C 
HETATM    8  C   LIG     1      13.043  30.335  15.401  1.00  0.00     0.005 C 
ENDBRANCH   6   7
ENDBRANCH   1   6
TORSDOF 4
ENDMDL
MODEL 9
REMARK VINA RESULT:      -3.9      9.419     10.925
REMARK  4 active torsions:
REMARK  status: ('A' for Active; 'I' for Inactive)
REMARK    1  A    between atoms: O_1  and  C_2 
REMARK    2  A    between atoms: C_2  and  C_3 
REMARK    3  A    between atoms: C_2  and  C_5 
REMARK    4  A    between atoms: C_5  and  C_6 
ROOT
HETATM    1  C   LIG     1      13.697  30.808  16.592  1.00  0.00     0.117 C 
ENDROOT
BRANCH   1   2
HETATM    2  O   LIG     1      12.359  30.447  16.830  1.00  0.00    -0.396 OA
HETATM    3  H   LIG     1      11.933  31.212  17.300  1.00  0.00     0.210 HD
ENDBRANCH   1   2
BRANCH   1   4
HETATM    4  C   LIG     1      14.078  30.486  15.130  1.00  0.00     0.027 C 
HETATM    5  C   LIG     1      15.372  31.160  14.668  1.00  0.00     0.007 C 
ENDBRANCH   1   4
BRANCH   1   6
HETATM    6  C   LIG     1      13.883  32.289  16.981  1.00  0.00     0.031 C 
BRANCH   6   7
HETATM    7  C   LIG     1      15.005  32.506  18.008  1.00  0.00    -0.002 C 
HETATM    8  C   LIG     1      14.757  31.690  19.274  1.00  0.00     0.005 C 
ENDBRANCH   6   7
ENDBRANCH   1   6
TORSDOF 4
ENDMDL
MODEL 10
REMARK VINA RESULT:      -3.9      5.119      6.242
REMARK  4 active torsions:
REMARK  status: ('A' for Active; 'I' for Inactive)
REMARK    1  A    between atoms: O_1  and  C_2 
REMARK    2  A    between atoms: C_2  and  C_3 
REMARK    3  A    between atoms: C_2  and  C_5 
REMARK    4  A    between atoms: C_5  and  C_6 
ROOT
HETATM    1  C   LIG     1      19.633  39.403  19.385  1.00  0.00     0.117 C 
ENDROOT
BRANCH   1   2
HETATM    2  O   LIG     1      20.985  39.318  19.010  1.00  0.00    -0.396 OA
HETATM    3  H   LIG     1      21.030  39.527  18.040  1.00  0.00     0.210 HD
ENDBRANCH   1   2
BRANCH   1   4
HETATM    4  C   LIG     1      18.744  38.758  18.298  1.00  0.00     0.027 C 
HETATM    5  C   LIG     1      18.800  39.478  16.948  1.00  0.00     0.007 C 
ENDBRANCH   1   4
BRANCH   1   6
HETATM    6  C   LIG     1      19.470  38.778  20.786  1.00  0.00     0.031 C 
BRANCH   6   7
HETATM    7  C   LIG     1      18.027  38.836  21.307  1.00  0.00    -0.002 C 
HETATM    8  C   LIG     1      17.468  37.435  21.537  1.00  0.00     0.005 C 
ENDBRANCH   6   7
ENDBRANCH   1   6
TORSDOF 4
ENDMDL
MODEL 11
REMARK VINA RESULT:      -3.8      9.923     10.953
REMARK  4 active torsions:
REMARK  status: ('A' for Active; 'I' for Inactive)
REMARK    1  A    between atoms: O_1  and  C_2 
REMARK    2  A    between atoms: C_2  and  C_3 
REMARK    3  A    between atoms: C_2  and  C_5 
REMARK    4  A    between atoms: C_5  and  C_6 
ROOT
HETATM    1  C   LIG     1      14.232  31.723  17.204  1.00  0.00     0.117 C 
ENDROOT
BRANCH   1   2
HETATM    2  O   LIG     1      14.006  31.996  18.564  1.00  0.00    -0.396 OA
HETATM    3  H   LIG     1      13.915  31.120  19.023  1.00  0.00     0.210 HD
ENDBRANCH   1   2
BRANCH   1   4
HETATM    4  C   LIG     1      12.901  31.351  16.512  1.00  0.00     0.027 C 
HETATM    5  C   LIG     1      13.051  30.298  15.411  1.00  0.00     0.007 C 
ENDBRANCH   1   4
BRANCH   1   6
HETATM    6  C   LIG     1      14.953  32.931  16.572  1.00  0.00     0.031 C 
BRANCH   6   7
HETATM    7  C   LIG     1      16.260  32.548  15.861  1.00  0.00    -0.002 C 
HETATM    8  C   LIG     1      16.002  32.165  14.406  1.00  0.00     0.005 C 
ENDBRANCH   6   7
ENDBRANCH   1   6
TORSDOF 4
ENDMDL
MODEL 12
REMARK VINA RESULT:      -3.8      8.165      9.386
REMARK  4 active torsions:
REMARK  status: ('A' for Active; 'I' for Inactive)
REMARK    1  A    between atoms: O_1  and  C_2 
REMARK    2  A    between atoms: C_2  and  C_3 
REMARK    3  A    between atoms: C_2  and  C_5 
REMARK    4  A    between atoms: C_5  and  C_6 
ROOT
HETATM    1  C   LIG     1      15.015  33.346  16.657  1.00  0.00     0.117 C 
ENDROOT
BRANCH   1   2
HETATM    2  O   LIG     1      15.554  34.451  17.337  1.00  0.00    -0.396 OA
HETATM    3  H   LIG     1      16.488  34.561  17.016  1.00  0.00     0.210 HD
ENDBRANCH   1   2
BRANCH   1   4
HETATM    4  C   LIG     1      16.039  32.806  15.633  1.00  0.00     0.027 C 
HETATM    5  C   LIG     1      15.558  31.567  14.875  1.00  0.00     0.007 C 
ENDBRANCH   1   4
BRANCH   1   6
HETATM    6  C   LIG     1      14.556  32.304  17.698  1.00  0.00     0.031 C 
BRANCH   6   7
HETATM    7  C   LIG     1      15.259  32.457  19.055  1.00  0.00    -0.002 C 
HETATM    8  C   LIG     1      14.860  31.335  20.010  1.00  0.00     0.005 C 
ENDBRANCH   6   7
ENDBRANCH   1   6
TORSDOF 4
ENDMDL
MODEL 13
REMARK VINA RESULT:      -3.8      2.389      3.469
REMARK  4 active torsions:
REMARK  status: ('A' for Active; 'I' for Inactive)
REMARK    1  A    between atoms: O_1  and  C_2 
REMARK    2  A    between atoms: C_2  and  C_3 
REMARK    3  A    between atoms: C_2  and  C_5 
REMARK    4  A    between atoms: C_5  and  C_6 
ROOT
HETATM    1  C   LIG     1      16.661  36.979  21.945  1.00  0.00     0.117 C 
ENDROOT
BRANCH   1   2
HETATM    2  O   LIG     1      17.798  37.548  21.347  1.00  0.00    -0.396 OA
HETATM    3  H   LIG     1      18.083  36.930  20.622  1.00  0.00     0.210 HD
ENDBRANCH   1   2
BRANCH   1   4
HETATM    4  C   LIG     1      16.888  35.467  22.176  1.00  0.00     0.027 C 
HETATM    5  C   LIG     1      16.172  34.575  21.159  1.00  0.00     0.007 C 
ENDBRANCH   1   4
BRANCH   1   6
HETATM    6  C   LIG     1      16.333  37.769  23.228  1.00  0.00     0.031 C 
BRANCH   6   7
HETATM    7  C   LIG     1      17.580  38.146  24.041  1.00  0.00    -0.002 C 
HETATM    8  C   LIG     1      17.430  37.734  25.503  1.00  0.00     0.005 C 
ENDBRANCH   6   7
ENDBRANCH   1   6
TORSDOF 4
ENDMDL
MODEL 14
REMARK VINA RESULT:      -3.8      4.451      5.808
REMARK  4 active torsions:
REMARK  status: ('A' for Active; 'I' for Inactive)
REMARK    1  A    between atoms: O_1  and  C_2 
REMARK    2  A    between atoms: C_2  and  C_3 
REMARK    3  A    between atoms: C_2  and  C_5 
REMARK    4  A    between atoms: C_5  and  C_6 
ROOT
HETATM    1  C   LIG     1      17.504  36.492  20.324  1.00  0.00     0.117 C 
ENDROOT
BRANCH   1   2
HETATM    2  O   LIG     1      16.836  35.623  19.444  1.00  0.00    -0.396 OA
HETATM    3  H   LIG     1      15.956  36.037  19.242  1.00  0.00     0.210 HD
ENDBRANCH   1   2
BRANCH   1   4
HETATM    4  C   LIG     1      17.485  35.910  21.755  1.00  0.00     0.027 C 
HETATM    5  C   LIG     1      16.303  34.974  22.024  1.00  0.00     0.007 C 
ENDBRANCH   1   4
BRANCH   1   6
HETATM    6  C   LIG     1      18.919  36.760  19.772  1.00  0.00     0.031 C 
BRANCH   6   7
HETATM    7  C   LIG     1      19.141  38.226  19.370  1.00  0.00    -0.002 C 
HETATM    8  C   LIG     1      19.107  39.142  20.590  1.00  0.00     0.005 C 
ENDBRANCH   6   7
ENDBRANCH   1   6
TORSDOF 4
ENDMDL
MODEL 15
REMARK VINA RESULT:      -3.7      3.728      4.850
REMARK  4 active torsions:
REMARK  status: ('A' for Active; 'I' for Inactive)
REMARK    1  A    between atoms: O_1  and  C_2 
REMARK    2  A    between atoms: C_2  and  C_3 
REMARK    3  A    between atoms: C_2  and  C_5 
REMARK    4  A    between atoms: C_5  and  C_6 
ROOT
HETATM    1  C   LIG     1      16.966  35.167  21.833  1.00  0.00     0.117 C 
ENDROOT
BRANCH   1   2
HETATM    2  O   LIG     1      17.001  35.503  23.198  1.00  0.00    -0.396 OA
HETATM    3  H   LIG     1      16.524  34.780  23.685  1.00  0.00     0.210 HD
ENDBRANCH   1   2
BRANCH   1   4
HETATM    4  C   LIG     1      15.570  34.619  21.461  1.00  0.00     0.027 C 
HETATM    5  C   LIG     1      15.590  33.618  20.303  1.00  0.00     0.007 C 
ENDBRANCH   1   4
BRANCH   1   6
HETATM    6  C   LIG     1      17.399  36.399  21.012  1.00  0.00     0.031 C 
BRANCH   6   7
HETATM    7  C   LIG     1      17.384  37.701  21.826  1.00  0.00    -0.002 C 
HETATM    8  C   LIG     1      18.426  38.688  21.304  1.00  0.00     0.005 C 
ENDBRANCH   6   7
ENDBRANCH   1   6
TORSDOF 4
ENDMDL
MODEL 16
REMARK VINA RESULT:      -3.7      3.646      5.427
REMARK  4 active torsions:
REMARK  status: ('A' for Active; 'I' for Inactive)
REMARK    1  A    between atoms: O_1  and  C_2 
REMARK    2  A    between atoms: C_2  and  C_3 
REMARK    3  A    between atoms: C_2  and  C_5 
REMARK    4  A    between atoms: C_5  and  C_6 
ROOT
HETATM    1  C   LIG     1      17.672  38.668  21.409  1.00  0.00     0.117 C 
ENDROOT
BRANCH   1   2
HETATM    2  O   LIG     1      17.760  37.270  21.297  1.00  0.00    -0.396 OA
HETATM    3  H   LIG     1      16.958  36.970  20.793  1.00  0.00     0.210 HD
ENDBRANCH   1   2
BRANCH   1   4
HETATM    4  C   LIG     1      17.262  39.056  22.848  1.00  0.00     0.027 C 
HETATM    5  C   LIG     1      17.486  37.943  23.874  1.00  0.00     0.007 C 
ENDBRANCH   1   4
BRANCH   1   6
HETATM    6  C   LIG     1      19.008  39.284  20.946  1.00  0.00     0.031 C 
BRANCH   6   7
HETATM    7  C   LIG     1      19.641  38.533  19.766  1.00  0.00    -0.002 C 
HETATM    8  C   LIG     1      19.055  39.003  18.437  1.00  0.00     0.005 C 
ENDBRANCH   6   7
ENDBRANCH   1   6
TORSDOF 4
ENDMDL
MODEL 17
REMARK VINA RESULT:      -3.7      9.653     10.590
REMARK  4 active torsions:
REMARK  status: ('A' for Active; 'I' for Inactive)
REMARK    1  A    between atoms: O_1  and  C_2 
REMARK    2  A    between atoms: C_2  and  C_3 
REMARK    3  A    between atoms: C_2  and  C_5 
REMARK    4  A    between atoms: C_5  and  C_6 
ROOT
HETATM    1  C   LIG     1      14.919  33.075  16.710  1.00  0.00     0.117 C 
ENDROOT
BRANCH   1   2
HETATM    2  O   LIG     1      15.204  34.034  17.698  1.00  0.00    -0.396 OA
HETATM    3  H   LIG     1      14.358  34.524  17.877  1.00  0.00     0.210 HD
ENDBRANCH   1   2
BRANCH   1   4
HETATM    4  C   LIG     1      16.217  32.673  15.976  1.00  0.00     0.027 C 
HETATM    5  C   LIG     1      15.984  32.135  14.562  1.00  0.00     0.007 C 
ENDBRANCH   1   4
BRANCH   1   6
HETATM    6  C   LIG     1      14.176  31.895  17.370  1.00  0.00     0.031 C 
BRANCH   6   7
HETATM    7  C   LIG     1      12.831  31.579  16.699  1.00  0.00    -0.002 C 
HETATM    8  C   LIG     1      12.982  30.473  15.658  1.00  0.00     0.005 C 
ENDBRANCH   6   7
ENDBRANCH   1   6
TORSDOF 4
ENDMDL
MODEL 18
REMARK VINA RESULT:      -3.6      9.485     11.251
REMARK  4 active torsions:
REMARK  status: ('A' for Active; 'I' for Inactive)
REMARK    1  A    between atoms: O_1  and  C_2 
REMARK    2  A    between atoms: C_2  and  C_3 
REMARK    3  A    between atoms: C_2  and  C_5 
REMARK    4  A    between atoms: C_5  and  C_6 
ROOT
HETATM    1  C   LIG     1      15.953  32.671  15.957  1.00  0.00     0.117 C 
ENDROOT
BRANCH   1   2
HETATM    2  O   LIG     1      16.430  33.951  15.625  1.00  0.00    -0.396 OA
HETATM    3  H   LIG     1      16.899  34.302  16.428  1.00  0.00     0.210 HD
ENDBRANCH   1   2
BRANCH   1   4
HETATM    4  C   LIG     1      14.687  32.792  16.836  1.00  0.00     0.027 C 
HETATM    5  C   LIG     1      14.884  32.298  18.271  1.00  0.00     0.007 C 
ENDBRANCH   1   4
BRANCH   1   6
HETATM    6  C   LIG     1      15.742  31.871  14.655  1.00  0.00     0.031 C 
BRANCH   6   7
HETATM    7  C   LIG     1      14.770  30.694  14.821  1.00  0.00    -0.002 C 
HETATM    8  C   LIG     1      15.191  29.507  13.960  1.00  0.00     0.005 C 
ENDBRANCH   6   7
ENDBRANCH   1   6
TORSDOF 4
ENDMDL
MODEL 19
REMARK VINA RESULT:      -3.6     11.713     13.314
REMARK  4 active torsions:
REMARK  status: ('A' for Active; 'I' for Inactive)
REMARK    1  A    between atoms: O_1  and  C_2 
REMARK    2  A    between atoms: C_2  and  C_3 
REMARK    3  A    between atoms: C_2  and  C_5 
REMARK    4  A    between atoms: C_5  and  C_6 
ROOT
HETATM    1  C   LIG     1      13.399  30.268  14.890  1.00  0.00     0.117 C 
ENDROOT
BRANCH   1   2
HETATM    2  O   LIG     1      12.625  29.170  14.475  1.00  0.00    -0.396 OA
HETATM    3  H   LIG     1      12.378  28.665  15.294  1.00  0.00     0.210 HD
ENDBRANCH   1   2
BRANCH   1   4
HETATM    4  C   LIG     1      12.969  30.709  16.307  1.00  0.00     0.027 C 
HETATM    5  C   LIG     1      13.847  31.814  16.901  1.00  0.00     0.007 C 
ENDBRANCH   1   4
BRANCH   1   6
HETATM    6  C   LIG     1      14.890  29.892  14.772  1.00  0.00     0.031 C 
BRANCH   6   7
HETATM    7  C   LIG     1      15.226  29.166  13.461  1.00  0.00    -0.002 C 
HETATM    8  C   LIG     1      15.545  27.695  13.713  1.00  0.00     0.005 C 
ENDBRANCH   6   7
ENDBRANCH   1   6
TORSDOF 4
ENDMDL
MODEL 20
REMARK VINA RESULT:      -3.6      9.520     11.069
REMARK  4 active torsions:
REMARK  status: ('A' for Active; 'I' for Inactive)
REMARK    1  A    between atoms: O_1  and  C_2 
REMARK    2  A    between atoms: C_2  and  C_3 
REMARK    3  A    between atoms: C_2  and  C_5 
REMARK    4  A    between atoms: C_5  and  C_6 
ROOT
HETATM    1  C   LIG     1      15.715  32.149  15.128  1.00  0.00     0.117 C 
ENDROOT
BRANCH   1   2
HETATM    2  O   LIG     1      17.085  31.835  15.145  1.00  0.00    -0.396 OA
HETATM    3  H   LIG     1      17.159  30.876  15.394  1.00  0.00     0.210 HD
ENDBRANCH   1   2
BRANCH   1   4
HETATM    4  C   LIG     1      14.880  30.857  14.973  1.00  0.00     0.027 C 
HETATM    5  C   LIG     1      15.228  30.046  13.723  1.00  0.00     0.007 C 
ENDBRANCH   1   4
BRANCH   1   6
HETATM    6  C   LIG     1      15.382  32.966  16.393  1.00  0.00     0.031 C 
BRANCH   6   7
HETATM    7  C   LIG     1      14.502  32.200  17.392  1.00  0.00    -0.002 C 
HETATM    8  C   LIG     1      15.083  32.268  18.802  1.00  0.00     0.005 C 
ENDBRANCH   6   7
ENDBRANCH   1   6
TORSDOF 4
ENDMDL
