REMARK  3 active torsions:
REMARK  status: ('A' for Active; 'I' for Inactive)
REMARK    1  A    between atoms: C_2  and  C_3 
REMARK    2  A    between atoms: C_3  and  C_4 
REMARK    3  A    between atoms: C_4  and  O_5 
ROOT
HETATM    1  C   LIG     1      -0.741  -0.642   0.238  1.00  0.00     0.258 C 
HETATM    2  O   LIG     1      -1.116  -1.220  -0.819  1.00  0.00    -0.265 OA
ENDROOT
BRANCH   1   3
HETATM    3  C   LIG     1       0.585  -0.988   0.846  1.00  0.00     0.111 C 
BRANCH   3   4
HETATM    4  C   LIG     1       1.753  -0.621  -0.078  1.00  0.00     0.005 C 
HETATM    5  C   LIG     1       1.897   0.891  -0.257  1.00  0.00     0.005 C 
ENDBRANCH   3   4
ENDBRANCH   1   3
BRANCH   1   6
HETATM    6  O   LIG     1      -1.552   0.315   0.855  1.00  0.00    -0.326 OA
HETATM    7  C   LIG     1      -2.816   0.701   0.328  1.00  0.00     0.213 C 
ENDBRANCH   1   6
TORSDOF 3
