REMARK  4 active torsions:
REMARK  status: ('A' for Active; 'I' for Inactive)
REMARK    1  A    between atoms: O_1  and  C_2 
REMARK    2  A    between atoms: C_2  and  C_3 
REMARK    3  A    between atoms: C_2  and  C_5 
REMARK    4  A    between atoms: C_5  and  C_6 
ROOT
HETATM    1  C   LIG     1      -0.619   0.675   0.953  1.00  0.00     0.117 C 
ENDROOT
BRANCH   1   2
HETATM    2  O   LIG     1      -1.211   1.948   0.888  1.00  0.00    -0.396 OA
HETATM    3  H   LIG     1      -1.817   2.025   1.672  1.00  0.00     0.210 HD
ENDBRANCH   1   2
BRANCH   1   4
HETATM    4  C   LIG     1      -1.651  -0.407   0.563  1.00  0.00     0.027 C 
HETATM    5  C   LIG     1      -2.165  -0.279  -0.873  1.00  0.00     0.007 C 
ENDBRANCH   1   4
BRANCH   1   6
HETATM    6  C   LIG     1       0.652   0.678   0.079  1.00  0.00     0.031 C 
BRANCH   6   7
HETATM    7  C   LIG     1       1.443  -0.636   0.161  1.00  0.00    -0.002 C 
HETATM    8  C   LIG     1       2.778  -0.521  -0.570  1.00  0.00     0.005 C 
ENDBRANCH   6   7
ENDBRANCH   1   6
TORSDOF 4
