MODEL 1
REMARK VINA RESULT:      -4.5      0.000      0.000
REMARK  3 active torsions:
REMARK  status: ('A' for Active; 'I' for Inactive)
REMARK    1  A    between atoms: O_1  and  C_2 
REMARK    2  A    between atoms: C_2  and  C_3 
REMARK    3  A    between atoms: C_3  and  C_4 
ROOT
HETATM    1  C   LIG     1      15.189  35.669  21.268  1.00  0.00     0.034 C 
ENDROOT
BRANCH   1   2
HETATM    2  C   LIG     1      15.048  34.138  21.203  1.00  0.00     0.165 C 
BRANCH   2   3
HETATM    3  O   LIG     1      13.800  33.751  21.712  1.00  0.00    -0.401 OA
HETATM    4  H   LIG     1      13.977  33.246  22.549  1.00  0.00     0.209 HD
ENDBRANCH   2   3
ENDBRANCH   1   2
BRANCH   1   5
HETATM    5  C   LIG     1      16.506  36.190  21.917  1.00  0.00    -0.050 C 
HETATM    6  C   LIG     1      17.026  35.206  22.987  1.00  0.00     0.014 C 
HETATM    7  C   LIG     1      17.572  36.315  20.809  1.00  0.00     0.014 C 
HETATM    8  C   LIG     1      16.299  37.581  22.554  1.00  0.00     0.014 C 
ENDBRANCH   1   5
TORSDOF 3
ENDMDL
MODEL 2
REMARK VINA RESULT:      -4.5      0.034      1.645
REMARK  3 active torsions:
REMARK  status: ('A' for Active; 'I' for Inactive)
REMARK    1  A    between atoms: O_1  and  C_2 
REMARK    2  A    between atoms: C_2  and  C_3 
REMARK    3  A    between atoms: C_3  and  C_4 
ROOT
HETATM    1  C   LIG     1      15.184  35.682  21.293  1.00  0.00     0.034 C 
ENDROOT
BRANCH   1   2
HETATM    2  C   LIG     1      15.042  34.156  21.154  1.00  0.00     0.165 C 
BRANCH   2   3
HETATM    3  O   LIG     1      13.821  33.738  21.701  1.00  0.00    -0.401 OA
HETATM    4  H   LIG     1      13.427  33.092  21.059  1.00  0.00     0.209 HD
ENDBRANCH   2   3
ENDBRANCH   1   2
BRANCH   1   5
HETATM    5  C   LIG     1      16.531  36.174  21.902  1.00  0.00    -0.050 C 
HETATM    6  C   LIG     1      17.611  36.330  20.810  1.00  0.00     0.014 C 
HETATM    7  C   LIG     1      16.290  37.554  22.550  1.00  0.00     0.014 C 
HETATM    8  C   LIG     1      17.036  35.205  22.992  1.00  0.00     0.014 C 
ENDBRANCH   1   5
TORSDOF 3
ENDMDL
MODEL 3
REMARK VINA RESULT:      -4.4      2.359      3.413
REMARK  3 active torsions:
REMARK  status: ('A' for Active; 'I' for Inactive)
REMARK    1  A    between atoms: O_1  and  C_2 
REMARK    2  A    between atoms: C_2  and  C_3 
REMARK    3  A    between atoms: C_3  and  C_4 
ROOT
HETATM    1  C   LIG     1      16.335  37.584  22.532  1.00  0.00     0.034 C 
ENDROOT
BRANCH   1   2
HETATM    2  C   LIG     1      17.279  37.881  23.710  1.00  0.00     0.165 C 
BRANCH   2   3
HETATM    3  O   LIG     1      16.531  38.117  24.873  1.00  0.00    -0.401 OA
HETATM    4  H   LIG     1      15.616  37.777  24.697  1.00  0.00     0.209 HD
ENDBRANCH   2   3
ENDBRANCH   1   2
BRANCH   1   5
HETATM    5  C   LIG     1      16.488  36.170  21.896  1.00  0.00    -0.050 C 
HETATM    6  C   LIG     1      15.153  35.684  21.291  1.00  0.00     0.014 C 
HETATM    7  C   LIG     1      17.532  36.263  20.763  1.00  0.00     0.014 C 
HETATM    8  C   LIG     1      16.986  35.143  22.935  1.00  0.00     0.014 C 
ENDBRANCH   1   5
TORSDOF 3
ENDMDL
MODEL 4
REMARK VINA RESULT:      -4.4      2.363      3.537
REMARK  3 active torsions:
REMARK  status: ('A' for Active; 'I' for Inactive)
REMARK    1  A    between atoms: O_1  and  C_2 
REMARK    2  A    between atoms: C_2  and  C_3 
REMARK    3  A    between atoms: C_3  and  C_4 
ROOT
HETATM    1  C   LIG     1      16.201  37.531  22.585  1.00  0.00     0.034 C 
ENDROOT
BRANCH   1   2
HETATM    2  C   LIG     1      17.221  37.914  23.672  1.00  0.00     0.165 C 
BRANCH   2   3
HETATM    3  O   LIG     1      16.562  38.121  24.893  1.00  0.00    -0.401 OA
HETATM    4  H   LIG     1      17.139  37.726  25.598  1.00  0.00     0.209 HD
ENDBRANCH   2   3
ENDBRANCH   1   2
BRANCH   1   5
HETATM    5  C   LIG     1      16.472  36.176  21.864  1.00  0.00    -0.050 C 
HETATM    6  C   LIG     1      17.559  36.331  20.778  1.00  0.00     0.014 C 
HETATM    7  C   LIG     1      16.974  35.164  22.915  1.00  0.00     0.014 C 
HETATM    8  C   LIG     1      15.183  35.618  21.225  1.00  0.00     0.014 C 
ENDBRANCH   1   5
TORSDOF 3
ENDMDL
MODEL 5
REMARK VINA RESULT:      -4.2      3.224      4.365
REMARK  3 active torsions:
REMARK  status: ('A' for Active; 'I' for Inactive)
REMARK    1  A    between atoms: O_1  and  C_2 
REMARK    2  A    between atoms: C_2  and  C_3 
REMARK    3  A    between atoms: C_3  and  C_4 
ROOT
HETATM    1  C   LIG     1      18.773  36.963  19.332  1.00  0.00     0.034 C 
ENDROOT
BRANCH   1   2
HETATM    2  C   LIG     1      17.908  36.497  20.516  1.00  0.00     0.165 C 
BRANCH   2   3
HETATM    3  O   LIG     1      16.929  35.598  20.068  1.00  0.00    -0.401 OA
HETATM    4  H   LIG     1      16.525  35.190  20.878  1.00  0.00     0.209 HD
ENDBRANCH   2   3
ENDBRANCH   1   2
BRANCH   1   5
HETATM    5  C   LIG     1      19.231  38.452  19.386  1.00  0.00    -0.050 C 
HETATM    6  C   LIG     1      20.767  38.557  19.500  1.00  0.00     0.014 C 
HETATM    7  C   LIG     1      18.791  39.138  18.075  1.00  0.00     0.014 C 
HETATM    8  C   LIG     1      18.574  39.193  20.569  1.00  0.00     0.014 C 
ENDBRANCH   1   5
TORSDOF 3
ENDMDL
MODEL 6
REMARK VINA RESULT:      -4.2      3.407      4.451
REMARK  3 active torsions:
REMARK  status: ('A' for Active; 'I' for Inactive)
REMARK    1  A    between atoms: O_1  and  C_2 
REMARK    2  A    between atoms: C_2  and  C_3 
REMARK    3  A    between atoms: C_3  and  C_4 
ROOT
HETATM    1  C   LIG     1      18.103  38.195  23.726  1.00  0.00     0.034 C 
ENDROOT
BRANCH   1   2
HETATM    2  C   LIG     1      17.210  37.803  24.917  1.00  0.00     0.165 C 
BRANCH   2   3
HETATM    3  O   LIG     1      17.209  38.830  25.872  1.00  0.00    -0.401 OA
HETATM    4  H   LIG     1      16.411  38.687  26.444  1.00  0.00     0.209 HD
ENDBRANCH   2   3
ENDBRANCH   1   2
BRANCH   1   5
HETATM    5  C   LIG     1      17.381  38.265  22.347  1.00  0.00    -0.050 C 
HETATM    6  C   LIG     1      15.992  38.926  22.478  1.00  0.00     0.014 C 
HETATM    7  C   LIG     1      18.243  39.124  21.397  1.00  0.00     0.014 C 
HETATM    8  C   LIG     1      17.226  36.860  21.728  1.00  0.00     0.014 C 
ENDBRANCH   1   5
TORSDOF 3
ENDMDL
MODEL 7
REMARK VINA RESULT:      -4.2      3.256      4.196
REMARK  3 active torsions:
REMARK  status: ('A' for Active; 'I' for Inactive)
REMARK    1  A    between atoms: O_1  and  C_2 
REMARK    2  A    between atoms: C_2  and  C_3 
REMARK    3  A    between atoms: C_3  and  C_4 
ROOT
HETATM    1  C   LIG     1      17.182  36.787  24.263  1.00  0.00     0.034 C 
ENDROOT
BRANCH   1   2
HETATM    2  C   LIG     1      17.544  37.866  25.299  1.00  0.00     0.165 C 
BRANCH   2   3
HETATM    3  O   LIG     1      18.662  37.460  26.040  1.00  0.00    -0.401 OA
HETATM    4  H   LIG     1      19.242  36.944  25.422  1.00  0.00     0.209 HD
ENDBRANCH   2   3
ENDBRANCH   1   2
BRANCH   1   5
HETATM    5  C   LIG     1      16.866  37.316  22.832  1.00  0.00    -0.050 C 
HETATM    6  C   LIG     1      17.807  38.477  22.447  1.00  0.00     0.014 C 
HETATM    7  C   LIG     1      17.083  36.159  21.833  1.00  0.00     0.014 C 
HETATM    8  C   LIG     1      15.399  37.784  22.724  1.00  0.00     0.014 C 
ENDBRANCH   1   5
TORSDOF 3
ENDMDL
MODEL 8
REMARK VINA RESULT:      -4.1      3.966      5.058
REMARK  3 active torsions:
REMARK  status: ('A' for Active; 'I' for Inactive)
REMARK    1  A    between atoms: O_1  and  C_2 
REMARK    2  A    between atoms: C_2  and  C_3 
REMARK    3  A    between atoms: C_3  and  C_4 
ROOT
HETATM    1  C   LIG     1      18.616  39.257  20.608  1.00  0.00     0.034 C 
ENDROOT
BRANCH   1   2
HETATM    2  C   LIG     1      17.807  38.406  21.604  1.00  0.00     0.165 C 
BRANCH   2   3
HETATM    3  O   LIG     1      17.284  39.224  22.616  1.00  0.00    -0.401 OA
HETATM    4  H   LIG     1      17.280  40.151  22.260  1.00  0.00     0.209 HD
ENDBRANCH   2   3
ENDBRANCH   1   2
BRANCH   1   5
HETATM    5  C   LIG     1      19.262  38.469  19.429  1.00  0.00    -0.050 C 
HETATM    6  C   LIG     1      18.840  36.984  19.454  1.00  0.00     0.014 C 
HETATM    7  C   LIG     1      18.769  39.094  18.107  1.00  0.00     0.014 C 
HETATM    8  C   LIG     1      20.802  38.567  19.472  1.00  0.00     0.014 C 
ENDBRANCH   1   5
TORSDOF 3
ENDMDL
MODEL 9
REMARK VINA RESULT:      -4.1      3.841      5.029
REMARK  3 active torsions:
REMARK  status: ('A' for Active; 'I' for Inactive)
REMARK    1  A    between atoms: O_1  and  C_2 
REMARK    2  A    between atoms: C_2  and  C_3 
REMARK    3  A    between atoms: C_3  and  C_4 
ROOT
HETATM    1  C   LIG     1      18.629  39.121  20.742  1.00  0.00     0.034 C 
ENDROOT
BRANCH   1   2
HETATM    2  C   LIG     1      17.796  38.182  21.632  1.00  0.00     0.165 C 
BRANCH   2   3
HETATM    3  O   LIG     1      17.840  38.621  22.963  1.00  0.00    -0.401 OA
HETATM    4  H   LIG     1      18.102  39.579  22.938  1.00  0.00     0.209 HD
ENDBRANCH   2   3
ENDBRANCH   1   2
BRANCH   1   5
HETATM    5  C   LIG     1      19.260  38.459  19.480  1.00  0.00    -0.050 C 
HETATM    6  C   LIG     1      20.801  38.531  19.526  1.00  0.00     0.014 C 
HETATM    7  C   LIG     1      18.841  36.974  19.458  1.00  0.00     0.014 C 
HETATM    8  C   LIG     1      18.751  39.129  18.187  1.00  0.00     0.014 C 
ENDBRANCH   1   5
TORSDOF 3
ENDMDL
MODEL 10
REMARK VINA RESULT:      -4.0      3.019      3.944
REMARK  3 active torsions:
REMARK  status: ('A' for Active; 'I' for Inactive)
REMARK    1  A    between atoms: O_1  and  C_2 
REMARK    2  A    between atoms: C_2  and  C_3 
REMARK    3  A    between atoms: C_3  and  C_4 
ROOT
HETATM    1  C   LIG     1      17.166  37.742  22.687  1.00  0.00     0.034 C 
ENDROOT
BRANCH   1   2
HETATM    2  C   LIG     1      17.695  38.799  21.701  1.00  0.00     0.165 C 
BRANCH   2   3
HETATM    3  O   LIG     1      18.958  39.247  22.114  1.00  0.00    -0.401 OA
HETATM    4  H   LIG     1      19.147  38.805  22.983  1.00  0.00     0.209 HD
ENDBRANCH   2   3
ENDBRANCH   1   2
BRANCH   1   5
HETATM    5  C   LIG     1      16.760  36.380  22.050  1.00  0.00    -0.050 C 
HETATM    6  C   LIG     1      15.258  36.357  21.693  1.00  0.00     0.014 C 
HETATM    7  C   LIG     1      17.572  36.196  20.750  1.00  0.00     0.014 C 
HETATM    8  C   LIG     1      17.082  35.204  22.997  1.00  0.00     0.014 C 
ENDBRANCH   1   5
TORSDOF 3
ENDMDL
MODEL 11
REMARK VINA RESULT:      -3.8      2.254      3.232
REMARK  3 active torsions:
REMARK  status: ('A' for Active; 'I' for Inactive)
REMARK    1  A    between atoms: O_1  and  C_2 
REMARK    2  A    between atoms: C_2  and  C_3 
REMARK    3  A    between atoms: C_3  and  C_4 
ROOT
HETATM    1  C   LIG     1      16.971  35.150  22.958  1.00  0.00     0.034 C 
ENDROOT
BRANCH   1   2
HETATM    2  C   LIG     1      17.098  36.365  23.893  1.00  0.00     0.165 C 
BRANCH   2   3
HETATM    3  O   LIG     1      17.350  35.936  25.204  1.00  0.00    -0.401 OA
HETATM    4  H   LIG     1      17.605  36.742  25.724  1.00  0.00     0.209 HD
ENDBRANCH   2   3
ENDBRANCH   1   2
BRANCH   1   5
HETATM    5  C   LIG     1      16.414  35.458  21.536  1.00  0.00    -0.050 C 
HETATM    6  C   LIG     1      16.001  34.161  20.807  1.00  0.00     0.014 C 
HETATM    7  C   LIG     1      15.164  36.349  21.692  1.00  0.00     0.014 C 
HETATM    8  C   LIG     1      17.452  36.219  20.685  1.00  0.00     0.014 C 
ENDBRANCH   1   5
TORSDOF 3
ENDMDL
MODEL 12
REMARK VINA RESULT:      -3.7      1.663      2.355
REMARK  3 active torsions:
REMARK  status: ('A' for Active; 'I' for Inactive)
REMARK    1  A    between atoms: O_1  and  C_2 
REMARK    2  A    between atoms: C_2  and  C_3 
REMARK    3  A    between atoms: C_3  and  C_4 
ROOT
HETATM    1  C   LIG     1      17.186  36.694  21.723  1.00  0.00     0.034 C 
ENDROOT
BRANCH   1   2
HETATM    2  C   LIG     1      16.910  35.381  22.477  1.00  0.00     0.165 C 
BRANCH   2   3
HETATM    3  O   LIG     1      15.819  34.718  21.898  1.00  0.00    -0.401 OA
HETATM    4  H   LIG     1      16.034  34.601  20.935  1.00  0.00     0.209 HD
ENDBRANCH   2   3
ENDBRANCH   1   2
BRANCH   1   5
HETATM    5  C   LIG     1      17.207  37.977  22.606  1.00  0.00    -0.050 C 
HETATM    6  C   LIG     1      17.496  37.633  24.082  1.00  0.00     0.014 C 
HETATM    7  C   LIG     1      18.333  38.897  22.089  1.00  0.00     0.014 C 
HETATM    8  C   LIG     1      15.869  38.742  22.508  1.00  0.00     0.014 C 
ENDBRANCH   1   5
TORSDOF 3
ENDMDL
MODEL 13
REMARK VINA RESULT:      -3.6      5.316      6.199
REMARK  3 active torsions:
REMARK  status: ('A' for Active; 'I' for Inactive)
REMARK    1  A    between atoms: O_1  and  C_2 
REMARK    2  A    between atoms: C_2  and  C_3 
REMARK    3  A    between atoms: C_3  and  C_4 
ROOT
HETATM    1  C   LIG     1      13.341  32.244  16.825  1.00  0.00     0.034 C 
ENDROOT
BRANCH   1   2
HETATM    2  C   LIG     1      13.281  30.839  16.199  1.00  0.00     0.165 C 
BRANCH   2   3
HETATM    3  O   LIG     1      12.223  30.110  16.762  1.00  0.00    -0.401 OA
HETATM    4  H   LIG     1      11.515  30.053  16.069  1.00  0.00     0.209 HD
ENDBRANCH   2   3
ENDBRANCH   1   2
BRANCH   1   5
HETATM    5  C   LIG     1      14.772  32.776  17.132  1.00  0.00    -0.050 C 
HETATM    6  C   LIG     1      15.251  32.315  18.525  1.00  0.00     0.014 C 
HETATM    7  C   LIG     1      15.735  32.204  16.070  1.00  0.00     0.014 C 
HETATM    8  C   LIG     1      14.821  34.317  17.054  1.00  0.00     0.014 C 
ENDBRANCH   1   5
TORSDOF 3
ENDMDL
MODEL 14
REMARK VINA RESULT:      -3.6     10.055     11.123
REMARK  3 active torsions:
REMARK  status: ('A' for Active; 'I' for Inactive)
REMARK    1  A    between atoms: O_1  and  C_2 
REMARK    2  A    between atoms: C_2  and  C_3 
REMARK    3  A    between atoms: C_3  and  C_4 
ROOT
HETATM    1  C   LIG     1      19.166  34.337  11.507  1.00  0.00     0.034 C 
ENDROOT
BRANCH   1   2
HETATM    2  C   LIG     1      18.621  33.709  12.802  1.00  0.00     0.165 C 
BRANCH   2   3
HETATM    3  O   LIG     1      17.768  32.640  12.492  1.00  0.00    -0.401 OA
HETATM    4  H   LIG     1      17.847  32.486  11.514  1.00  0.00     0.209 HD
ENDBRANCH   2   3
ENDBRANCH   1   2
BRANCH   1   5
HETATM    5  C   LIG     1      20.705  34.210  11.301  1.00  0.00    -0.050 C 
HETATM    6  C   LIG     1      21.465  34.451  12.623  1.00  0.00     0.014 C 
HETATM    7  C   LIG     1      21.009  32.777  10.818  1.00  0.00     0.014 C 
HETATM    8  C   LIG     1      21.206  35.203  10.230  1.00  0.00     0.014 C 
ENDBRANCH   1   5
TORSDOF 3
ENDMDL
MODEL 15
REMARK VINA RESULT:      -3.6     10.073     11.240
REMARK  3 active torsions:
REMARK  status: ('A' for Active; 'I' for Inactive)
REMARK    1  A    between atoms: O_1  and  C_2 
REMARK    2  A    between atoms: C_2  and  C_3 
REMARK    3  A    between atoms: C_3  and  C_4 
ROOT
HETATM    1  C   LIG     1      19.157  34.344  11.512  1.00  0.00     0.034 C 
ENDROOT
BRANCH   1   2
HETATM    2  C   LIG     1      18.630  33.697  12.805  1.00  0.00     0.165 C 
BRANCH   2   3
HETATM    3  O   LIG     1      17.779  32.628  12.491  1.00  0.00    -0.401 OA
HETATM    4  H   LIG     1      18.167  32.178  11.696  1.00  0.00     0.209 HD
ENDBRANCH   2   3
ENDBRANCH   1   2
BRANCH   1   5
HETATM    5  C   LIG     1      20.685  34.173  11.256  1.00  0.00    -0.050 C 
HETATM    6  C   LIG     1      21.191  35.190  10.211  1.00  0.00     0.014 C 
HETATM    7  C   LIG     1      21.426  34.430  12.586  1.00  0.00     0.014 C 
HETATM    8  C   LIG     1      21.012  32.741  10.784  1.00  0.00     0.014 C 
ENDBRANCH   1   5
TORSDOF 3
ENDMDL
MODEL 16
REMARK VINA RESULT:      -3.6      4.299      6.100
REMARK  3 active torsions:
REMARK  status: ('A' for Active; 'I' for Inactive)
REMARK    1  A    between atoms: O_1  and  C_2 
REMARK    2  A    between atoms: C_2  and  C_3 
REMARK    3  A    between atoms: C_3  and  C_4 
ROOT
HETATM    1  C   LIG     1      14.562  31.680  18.367  1.00  0.00     0.034 C 
ENDROOT
BRANCH   1   2
HETATM    2  C   LIG     1      15.304  32.648  19.305  1.00  0.00     0.165 C 
BRANCH   2   3
HETATM    3  O   LIG     1      14.556  32.848  20.474  1.00  0.00    -0.401 OA
HETATM    4  H   LIG     1      14.907  32.211  21.150  1.00  0.00     0.209 HD
ENDBRANCH   2   3
ENDBRANCH   1   2
BRANCH   1   5
HETATM    5  C   LIG     1      14.207  32.254  16.962  1.00  0.00    -0.050 C 
HETATM    6  C   LIG     1      12.687  32.195  16.704  1.00  0.00     0.014 C 
HETATM    7  C   LIG     1      14.653  33.731  16.920  1.00  0.00     0.014 C 
HETATM    8  C   LIG     1      14.949  31.488  15.846  1.00  0.00     0.014 C 
ENDBRANCH   1   5
TORSDOF 3
ENDMDL
MODEL 17
REMARK VINA RESULT:      -3.5      2.913      3.952
REMARK  3 active torsions:
REMARK  status: ('A' for Active; 'I' for Inactive)
REMARK    1  A    between atoms: O_1  and  C_2 
REMARK    2  A    between atoms: C_2  and  C_3 
REMARK    3  A    between atoms: C_3  and  C_4 
ROOT
HETATM    1  C   LIG     1      16.720  38.890  22.128  1.00  0.00     0.034 C 
ENDROOT
BRANCH   1   2
HETATM    2  C   LIG     1      16.110  37.701  22.890  1.00  0.00     0.165 C 
BRANCH   2   3
HETATM    3  O   LIG     1      14.907  38.089  23.497  1.00  0.00    -0.401 OA
HETATM    4  H   LIG     1      14.186  37.919  22.837  1.00  0.00     0.209 HD
ENDBRANCH   2   3
ENDBRANCH   1   2
BRANCH   1   5
HETATM    5  C   LIG     1      18.132  38.639  21.520  1.00  0.00    -0.050 C 
HETATM    6  C   LIG     1      18.444  39.653  20.398  1.00  0.00     0.014 C 
HETATM    7  C   LIG     1      19.177  38.815  22.642  1.00  0.00     0.014 C 
HETATM    8  C   LIG     1      18.251  37.203  20.964  1.00  0.00     0.014 C 
ENDBRANCH   1   5
TORSDOF 3
ENDMDL
MODEL 18
REMARK VINA RESULT:      -3.4      5.646      6.647
REMARK  3 active torsions:
REMARK  status: ('A' for Active; 'I' for Inactive)
REMARK    1  A    between atoms: O_1  and  C_2 
REMARK    2  A    between atoms: C_2  and  C_3 
REMARK    3  A    between atoms: C_3  and  C_4 
ROOT
HETATM    1  C   LIG     1      15.685  31.972  16.022  1.00  0.00     0.034 C 
ENDROOT
BRANCH   1   2
HETATM    2  C   LIG     1      16.568  32.957  15.234  1.00  0.00     0.165 C 
BRANCH   2   3
HETATM    3  O   LIG     1      17.902  32.526  15.258  1.00  0.00    -0.401 OA
HETATM    4  H   LIG     1      17.998  31.938  16.052  1.00  0.00     0.209 HD
ENDBRANCH   2   3
ENDBRANCH   1   2
BRANCH   1   5
HETATM    5  C   LIG     1      14.756  32.619  17.092  1.00  0.00    -0.050 C 
HETATM    6  C   LIG     1      15.222  32.264  18.521  1.00  0.00     0.014 C 
HETATM    7  C   LIG     1      14.824  34.151  16.924  1.00  0.00     0.014 C 
HETATM    8  C   LIG     1      13.292  32.170  16.902  1.00  0.00     0.014 C 
ENDBRANCH   1   5
TORSDOF 3
ENDMDL
MODEL 19
REMARK VINA RESULT:      -3.4      5.666      7.034
REMARK  3 active torsions:
REMARK  status: ('A' for Active; 'I' for Inactive)
REMARK    1  A    between atoms: O_1  and  C_2 
REMARK    2  A    between atoms: C_2  and  C_3 
REMARK    3  A    between atoms: C_3  and  C_4 
ROOT
HETATM    1  C   LIG     1      15.105  32.688  16.178  1.00  0.00     0.034 C 
ENDROOT
BRANCH   1   2
HETATM    2  C   LIG     1      15.175  34.083  16.826  1.00  0.00     0.165 C 
BRANCH   2   3
HETATM    3  O   LIG     1      16.189  34.840  16.222  1.00  0.00    -0.401 OA
HETATM    4  H   LIG     1      16.152  34.641  15.250  1.00  0.00     0.209 HD
ENDBRANCH   2   3
ENDBRANCH   1   2
BRANCH   1   5
HETATM    5  C   LIG     1      13.969  31.763  16.708  1.00  0.00    -0.050 C 
HETATM    6  C   LIG     1      12.595  32.460  16.617  1.00  0.00     0.014 C 
HETATM    7  C   LIG     1      13.932  30.495  15.829  1.00  0.00     0.014 C 
HETATM    8  C   LIG     1      14.235  31.337  18.168  1.00  0.00     0.014 C 
ENDBRANCH   1   5
TORSDOF 3
ENDMDL
MODEL 20
REMARK VINA RESULT:      -3.3      5.775      6.864
REMARK  3 active torsions:
REMARK  status: ('A' for Active; 'I' for Inactive)
REMARK    1  A    between atoms: O_1  and  C_2 
REMARK    2  A    between atoms: C_2  and  C_3 
REMARK    3  A    between atoms: C_3  and  C_4 
ROOT
HETATM    1  C   LIG     1      15.710  32.131  16.005  1.00  0.00     0.034 C 
ENDROOT
BRANCH   1   2
HETATM    2  C   LIG     1      15.070  31.193  14.966  1.00  0.00     0.165 C 
BRANCH   2   3
HETATM    3  O   LIG     1      16.069  30.490  14.277  1.00  0.00    -0.401 OA
HETATM    4  H   LIG     1      15.830  30.525  13.314  1.00  0.00     0.209 HD
ENDBRANCH   2   3
ENDBRANCH   1   2
BRANCH   1   5
HETATM    5  C   LIG     1      14.733  32.710  17.072  1.00  0.00    -0.050 C 
HETATM    6  C   LIG     1      13.309  32.146  16.886  1.00  0.00     0.014 C 
HETATM    7  C   LIG     1      15.245  32.294  18.467  1.00  0.00     0.014 C 
HETATM    8  C   LIG     1      14.690  34.252  17.008  1.00  0.00     0.014 C 
ENDBRANCH   1   5
TORSDOF 3
ENDMDL
