REMARK  3 active torsions:
REMARK  status: ('A' for Active; 'I' for Inactive)
REMARK    1  A    between atoms: O_1  and  C_2 
REMARK    2  A    between atoms: C_2  and  C_3 
REMARK    3  A    between atoms: C_3  and  C_4 
ROOT
HETATM    1  C   LIG     1       0.946   0.474   0.070  1.00  0.00     0.034 C 
ENDROOT
BRANCH   1   2
HETATM    2  C   LIG     1       1.827  -0.761   0.329  1.00  0.00     0.165 C 
BRANCH   2   3
HETATM    3  O   LIG     1       3.171  -0.375   0.436  1.00  0.00    -0.401 OA
HETATM    4  H   LIG     1       3.491  -0.198  -0.487  1.00  0.00     0.209 HD
ENDBRANCH   2   3
ENDBRANCH   1   2
BRANCH   1   5
HETATM    5  C   LIG     1      -0.582   0.191  -0.043  1.00  0.00    -0.050 C 
HETATM    6  C   LIG     1      -1.134  -0.415   1.265  1.00  0.00     0.014 C 
HETATM    7  C   LIG     1      -1.301   1.532  -0.301  1.00  0.00     0.014 C 
HETATM    8  C   LIG     1      -0.886  -0.760  -1.220  1.00  0.00     0.014 C 
ENDBRANCH   1   5
TORSDOF 3
