MODEL 1
REMARK VINA RESULT:      -5.1      0.000      0.000
REMARK  4 active torsions:
REMARK  status: ('A' for Active; 'I' for Inactive)
REMARK    1  A    between atoms: C_2  and  C_3 
REMARK    2  A    between atoms: C_3  and  C_4 
REMARK    3  A    between atoms: C_4  and  C_5 
REMARK    4  A    between atoms: C_5  and  O_6 
ROOT
HETATM    1  C   LIG     1      17.958  37.890  24.655  1.00  0.00     0.111 C 
ENDROOT
BRANCH   1   2
HETATM    2  C   LIG     1      17.628  37.406  26.074  1.00  0.00     0.009 C 
BRANCH   2   3
HETATM    3  C   LIG     1      18.512  36.230  26.516  1.00  0.00    -0.004 C 
HETATM    4  C   LIG     1      17.920  34.873  26.138  1.00  0.00     0.005 C 
ENDBRANCH   2   3
ENDBRANCH   1   2
BRANCH   1   5
HETATM    5  C   LIG     1      16.831  37.581  23.719  1.00  0.00     0.258 C 
HETATM    6  O   LIG     1      15.678  38.035  23.955  1.00  0.00    -0.265 OA
BRANCH   5   7
HETATM    7  O   LIG     1      17.067  36.785  22.595  1.00  0.00    -0.326 OA
HETATM    8  C   LIG     1      16.886  35.375  22.602  1.00  0.00     0.213 C 
ENDBRANCH   5   7
ENDBRANCH   1   5
TORSDOF 4
ENDMDL
MODEL 2
REMARK VINA RESULT:      -4.7      1.460      1.776
REMARK  4 active torsions:
REMARK  status: ('A' for Active; 'I' for Inactive)
REMARK    1  A    between atoms: C_2  and  C_3 
REMARK    2  A    between atoms: C_3  and  C_4 
REMARK    3  A    between atoms: C_4  and  C_5 
REMARK    4  A    between atoms: C_5  and  O_6 
ROOT
HETATM    1  C   LIG     1      17.130  37.038  24.202  1.00  0.00     0.111 C 
ENDROOT
BRANCH   1   2
HETATM    2  C   LIG     1      17.588  37.522  25.584  1.00  0.00     0.009 C 
BRANCH   2   3
HETATM    3  C   LIG     1      18.391  36.457  26.346  1.00  0.00    -0.004 C 
HETATM    4  C   LIG     1      17.883  35.039  26.089  1.00  0.00     0.005 C 
ENDBRANCH   2   3
ENDBRANCH   1   2
BRANCH   1   5
HETATM    5  C   LIG     1      17.144  38.165  23.218  1.00  0.00     0.258 C 
HETATM    6  O   LIG     1      16.554  39.246  23.495  1.00  0.00    -0.265 OA
BRANCH   5   7
HETATM    7  O   LIG     1      17.804  38.007  21.996  1.00  0.00    -0.326 OA
HETATM    8  C   LIG     1      18.623  39.023  21.430  1.00  0.00     0.213 C 
ENDBRANCH   5   7
ENDBRANCH   1   5
TORSDOF 4
ENDMDL
MODEL 3
REMARK VINA RESULT:      -4.7      2.818      4.470
REMARK  4 active torsions:
REMARK  status: ('A' for Active; 'I' for Inactive)
REMARK    1  A    between atoms: C_2  and  C_3 
REMARK    2  A    between atoms: C_3  and  C_4 
REMARK    3  A    between atoms: C_4  and  C_5 
REMARK    4  A    between atoms: C_5  and  O_6 
ROOT
HETATM    1  C   LIG     1      18.074  38.659  22.801  1.00  0.00     0.111 C 
ENDROOT
BRANCH   1   2
HETATM    2  C   LIG     1      18.097  38.419  21.285  1.00  0.00     0.009 C 
BRANCH   2   3
HETATM    3  C   LIG     1      18.968  39.442  20.539  1.00  0.00    -0.004 C 
HETATM    4  C   LIG     1      20.051  38.782  19.685  1.00  0.00     0.005 C 
ENDBRANCH   2   3
ENDBRANCH   1   2
BRANCH   1   5
HETATM    5  C   LIG     1      16.672  38.612  23.320  1.00  0.00     0.258 C 
HETATM    6  O   LIG     1      15.725  39.048  22.609  1.00  0.00    -0.265 OA
BRANCH   5   7
HETATM    7  O   LIG     1      16.425  38.092  24.593  1.00  0.00    -0.326 OA
HETATM    8  C   LIG     1      17.466  37.656  25.459  1.00  0.00     0.213 C 
ENDBRANCH   5   7
ENDBRANCH   1   5
TORSDOF 4
ENDMDL
MODEL 4
REMARK VINA RESULT:      -4.6      2.259      4.006
REMARK  4 active torsions:
REMARK  status: ('A' for Active; 'I' for Inactive)
REMARK    1  A    between atoms: C_2  and  C_3 
REMARK    2  A    between atoms: C_3  and  C_4 
REMARK    3  A    between atoms: C_4  and  C_5 
REMARK    4  A    between atoms: C_5  and  O_6 
ROOT
HETATM    1  C   LIG     1      16.872  37.515  23.119  1.00  0.00     0.111 C 
ENDROOT
BRANCH   1   2
HETATM    2  C   LIG     1      17.144  38.884  22.480  1.00  0.00     0.009 C 
BRANCH   2   3
HETATM    3  C   LIG     1      18.616  39.063  22.075  1.00  0.00    -0.004 C 
HETATM    4  C   LIG     1      18.785  39.374  20.589  1.00  0.00     0.005 C 
ENDBRANCH   2   3
ENDBRANCH   1   2
BRANCH   1   5
HETATM    5  C   LIG     1      17.110  37.567  24.596  1.00  0.00     0.258 C 
HETATM    6  O   LIG     1      17.023  38.668  25.206  1.00  0.00    -0.265 OA
BRANCH   5   7
HETATM    7  O   LIG     1      17.435  36.395  25.284  1.00  0.00    -0.326 OA
HETATM    8  C   LIG     1      18.263  36.389  26.440  1.00  0.00     0.213 C 
ENDBRANCH   5   7
ENDBRANCH   1   5
TORSDOF 4
ENDMDL
MODEL 5
REMARK VINA RESULT:      -4.3      1.745      3.752
REMARK  4 active torsions:
REMARK  status: ('A' for Active; 'I' for Inactive)
REMARK    1  A    between atoms: C_2  and  C_3 
REMARK    2  A    between atoms: C_3  and  C_4 
REMARK    3  A    between atoms: C_4  and  C_5 
REMARK    4  A    between atoms: C_5  and  O_6 
ROOT
HETATM    1  C   LIG     1      17.147  37.119  22.224  1.00  0.00     0.111 C 
ENDROOT
BRANCH   1   2
HETATM    2  C   LIG     1      17.019  35.620  22.527  1.00  0.00     0.009 C 
BRANCH   2   3
HETATM    3  C   LIG     1      16.398  34.834  21.363  1.00  0.00    -0.004 C 
HETATM    4  C   LIG     1      14.908  35.125  21.182  1.00  0.00     0.005 C 
ENDBRANCH   2   3
ENDBRANCH   1   2
BRANCH   1   5
HETATM    5  C   LIG     1      16.376  37.926  23.220  1.00  0.00     0.258 C 
HETATM    6  O   LIG     1      15.122  38.025  23.112  1.00  0.00    -0.265 OA
BRANCH   5   7
HETATM    7  O   LIG     1      17.053  38.569  24.260  1.00  0.00    -0.326 OA
HETATM    8  C   LIG     1      17.352  37.927  25.493  1.00  0.00     0.213 C 
ENDBRANCH   5   7
ENDBRANCH   1   5
TORSDOF 4
ENDMDL
MODEL 6
REMARK VINA RESULT:      -4.1      8.777     10.077
REMARK  4 active torsions:
REMARK  status: ('A' for Active; 'I' for Inactive)
REMARK    1  A    between atoms: C_2  and  C_3 
REMARK    2  A    between atoms: C_3  and  C_4 
REMARK    3  A    between atoms: C_4  and  C_5 
REMARK    4  A    between atoms: C_5  and  O_6 
ROOT
HETATM    1  C   LIG     1      14.717  32.286  17.326  1.00  0.00     0.111 C 
ENDROOT
BRANCH   1   2
HETATM    2  C   LIG     1      13.280  32.079  16.827  1.00  0.00     0.009 C 
BRANCH   2   3
HETATM    3  C   LIG     1      13.045  30.664  16.276  1.00  0.00    -0.004 C 
HETATM    4  C   LIG     1      13.919  30.351  15.061  1.00  0.00     0.005 C 
ENDBRANCH   2   3
ENDBRANCH   1   2
BRANCH   1   5
HETATM    5  C   LIG     1      15.359  33.438  16.619  1.00  0.00     0.258 C 
HETATM    6  O   LIG     1      15.482  34.546  17.210  1.00  0.00    -0.265 OA
BRANCH   5   7
HETATM    7  O   LIG     1      15.809  33.278  15.306  1.00  0.00    -0.326 OA
HETATM    8  C   LIG     1      17.104  32.780  14.995  1.00  0.00     0.213 C 
ENDBRANCH   5   7
ENDBRANCH   1   5
TORSDOF 4
ENDMDL
MODEL 7
REMARK VINA RESULT:      -4.1      9.113     11.288
REMARK  4 active torsions:
REMARK  status: ('A' for Active; 'I' for Inactive)
REMARK    1  A    between atoms: C_2  and  C_3 
REMARK    2  A    between atoms: C_3  and  C_4 
REMARK    3  A    between atoms: C_4  and  C_5 
REMARK    4  A    between atoms: C_5  and  O_6 
ROOT
HETATM    1  C   LIG     1      15.785  31.599  13.948  1.00  0.00     0.111 C 
ENDROOT
BRANCH   1   2
HETATM    2  C   LIG     1      15.449  30.208  14.504  1.00  0.00     0.009 C 
BRANCH   2   3
HETATM    3  C   LIG     1      13.940  29.923  14.506  1.00  0.00    -0.004 C 
HETATM    4  C   LIG     1      13.227  30.525  15.717  1.00  0.00     0.005 C 
ENDBRANCH   2   3
ENDBRANCH   1   2
BRANCH   1   5
HETATM    5  C   LIG     1      16.416  32.450  15.004  1.00  0.00     0.258 C 
HETATM    6  O   LIG     1      17.583  32.188  15.406  1.00  0.00    -0.265 OA
BRANCH   5   7
HETATM    7  O   LIG     1      15.703  33.525  15.541  1.00  0.00    -0.326 OA
HETATM    8  C   LIG     1      15.125  33.490  16.840  1.00  0.00     0.213 C 
ENDBRANCH   5   7
ENDBRANCH   1   5
TORSDOF 4
ENDMDL
MODEL 8
REMARK VINA RESULT:      -4.1      3.146      4.476
REMARK  4 active torsions:
REMARK  status: ('A' for Active; 'I' for Inactive)
REMARK    1  A    between atoms: C_2  and  C_3 
REMARK    2  A    between atoms: C_3  and  C_4 
REMARK    3  A    between atoms: C_4  and  C_5 
REMARK    4  A    between atoms: C_5  and  O_6 
ROOT
HETATM    1  C   LIG     1      17.726  37.878  21.540  1.00  0.00     0.111 C 
ENDROOT
BRANCH   1   2
HETATM    2  C   LIG     1      18.177  36.848  20.496  1.00  0.00     0.009 C 
BRANCH   2   3
HETATM    3  C   LIG     1      19.231  37.409  19.529  1.00  0.00    -0.004 C 
HETATM    4  C   LIG     1      19.684  38.819  19.905  1.00  0.00     0.005 C 
ENDBRANCH   2   3
ENDBRANCH   1   2
BRANCH   1   5
HETATM    5  C   LIG     1      16.520  37.388  22.278  1.00  0.00     0.258 C 
HETATM    6  O   LIG     1      15.919  38.157  23.077  1.00  0.00    -0.265 OA
BRANCH   5   7
HETATM    7  O   LIG     1      16.076  36.078  22.079  1.00  0.00    -0.326 OA
HETATM    8  C   LIG     1      14.873  35.774  21.384  1.00  0.00     0.213 C 
ENDBRANCH   5   7
ENDBRANCH   1   5
TORSDOF 4
ENDMDL
MODEL 9
REMARK VINA RESULT:      -4.0      8.155     10.692
REMARK  4 active torsions:
REMARK  status: ('A' for Active; 'I' for Inactive)
REMARK    1  A    between atoms: C_2  and  C_3 
REMARK    2  A    between atoms: C_3  and  C_4 
REMARK    3  A    between atoms: C_4  and  C_5 
REMARK    4  A    between atoms: C_5  and  O_6 
ROOT
HETATM    1  C   LIG     1      13.707  31.471  16.385  1.00  0.00     0.111 C 
ENDROOT
BRANCH   1   2
HETATM    2  C   LIG     1      14.666  31.019  15.275  1.00  0.00     0.009 C 
BRANCH   2   3
HETATM    3  C   LIG     1      14.112  29.840  14.460  1.00  0.00    -0.004 C 
HETATM    4  C   LIG     1      15.214  28.945  13.894  1.00  0.00     0.005 C 
ENDBRANCH   2   3
ENDBRANCH   1   2
BRANCH   1   5
HETATM    5  C   LIG     1      14.470  31.893  17.601  1.00  0.00     0.258 C 
HETATM    6  O   LIG     1      15.379  32.762  17.500  1.00  0.00    -0.265 OA
BRANCH   5   7
HETATM    7  O   LIG     1      14.172  31.313  18.837  1.00  0.00    -0.326 OA
HETATM    8  C   LIG     1      14.984  31.506  19.989  1.00  0.00     0.213 C 
ENDBRANCH   5   7
ENDBRANCH   1   5
TORSDOF 4
ENDMDL
MODEL 10
REMARK VINA RESULT:      -4.0      2.143      4.651
REMARK  4 active torsions:
REMARK  status: ('A' for Active; 'I' for Inactive)
REMARK    1  A    between atoms: C_2  and  C_3 
REMARK    2  A    between atoms: C_3  and  C_4 
REMARK    3  A    between atoms: C_4  and  C_5 
REMARK    4  A    between atoms: C_5  and  O_6 
ROOT
HETATM    1  C   LIG     1      17.090  35.151  22.129  1.00  0.00     0.111 C 
ENDROOT
BRANCH   1   2
HETATM    2  C   LIG     1      15.666  34.948  21.593  1.00  0.00     0.009 C 
BRANCH   2   3
HETATM    3  C   LIG     1      15.648  34.460  20.136  1.00  0.00    -0.004 C 
HETATM    4  C   LIG     1      15.462  32.947  20.023  1.00  0.00     0.005 C 
ENDBRANCH   2   3
ENDBRANCH   1   2
BRANCH   1   5
HETATM    5  C   LIG     1      17.056  35.652  23.538  1.00  0.00     0.258 C 
HETATM    6  O   LIG     1      17.260  34.853  24.493  1.00  0.00    -0.265 OA
BRANCH   5   7
HETATM    7  O   LIG     1      16.791  37.002  23.783  1.00  0.00    -0.326 OA
HETATM    8  C   LIG     1      17.153  37.646  24.999  1.00  0.00     0.213 C 
ENDBRANCH   5   7
ENDBRANCH   1   5
TORSDOF 4
ENDMDL
MODEL 11
REMARK VINA RESULT:      -4.0     10.042     11.147
REMARK  4 active torsions:
REMARK  status: ('A' for Active; 'I' for Inactive)
REMARK    1  A    between atoms: C_2  and  C_3 
REMARK    2  A    between atoms: C_3  and  C_4 
REMARK    3  A    between atoms: C_4  and  C_5 
REMARK    4  A    between atoms: C_5  and  O_6 
ROOT
HETATM    1  C   LIG     1      15.466  31.987  15.634  1.00  0.00     0.111 C 
ENDROOT
BRANCH   1   2
HETATM    2  C   LIG     1      15.322  30.921  14.540  1.00  0.00     0.009 C 
BRANCH   2   3
HETATM    3  C   LIG     1      14.051  30.074  14.705  1.00  0.00    -0.004 C 
HETATM    4  C   LIG     1      13.148  30.579  15.830  1.00  0.00     0.005 C 
ENDBRANCH   2   3
ENDBRANCH   1   2
BRANCH   1   5
HETATM    5  C   LIG     1      16.524  32.980  15.265  1.00  0.00     0.258 C 
HETATM    6  O   LIG     1      16.480  34.148  15.742  1.00  0.00    -0.265 OA
BRANCH   5   7
HETATM    7  O   LIG     1      17.546  32.606  14.390  1.00  0.00    -0.326 OA
HETATM    8  C   LIG     1      18.311  33.553  13.654  1.00  0.00     0.213 C 
ENDBRANCH   5   7
ENDBRANCH   1   5
TORSDOF 4
ENDMDL
MODEL 12
REMARK VINA RESULT:      -3.7      7.361      9.093
REMARK  4 active torsions:
REMARK  status: ('A' for Active; 'I' for Inactive)
REMARK    1  A    between atoms: C_2  and  C_3 
REMARK    2  A    between atoms: C_3  and  C_4 
REMARK    3  A    between atoms: C_4  and  C_5 
REMARK    4  A    between atoms: C_5  and  O_6 
ROOT
HETATM    1  C   LIG     1      15.020  33.044  17.223  1.00  0.00     0.111 C 
ENDROOT
BRANCH   1   2
HETATM    2  C   LIG     1      14.297  31.901  17.950  1.00  0.00     0.009 C 
BRANCH   2   3
HETATM    3  C   LIG     1      14.834  31.673  19.371  1.00  0.00    -0.004 C 
HETATM    4  C   LIG     1      15.457  32.931  19.975  1.00  0.00     0.005 C 
ENDBRANCH   2   3
ENDBRANCH   1   2
BRANCH   1   5
HETATM    5  C   LIG     1      15.759  32.524  16.030  1.00  0.00     0.258 C 
HETATM    6  O   LIG     1      15.207  31.683  15.268  1.00  0.00    -0.265 OA
BRANCH   5   7
HETATM    7  O   LIG     1      17.058  32.971  15.775  1.00  0.00    -0.326 OA
HETATM    8  C   LIG     1      17.503  33.332  14.473  1.00  0.00     0.213 C 
ENDBRANCH   5   7
ENDBRANCH   1   5
TORSDOF 4
ENDMDL
MODEL 13
REMARK VINA RESULT:      -3.6      2.666      3.793
REMARK  4 active torsions:
REMARK  status: ('A' for Active; 'I' for Inactive)
REMARK    1  A    between atoms: C_2  and  C_3 
REMARK    2  A    between atoms: C_3  and  C_4 
REMARK    3  A    between atoms: C_4  and  C_5 
REMARK    4  A    between atoms: C_5  and  O_6 
ROOT
HETATM    1  C   LIG     1      17.871  37.086  21.712  1.00  0.00     0.111 C 
ENDROOT
BRANCH   1   2
HETATM    2  C   LIG     1      16.660  36.294  21.200  1.00  0.00     0.009 C 
BRANCH   2   3
HETATM    3  C   LIG     1      16.358  35.057  22.060  1.00  0.00    -0.004 C 
HETATM    4  C   LIG     1      17.042  35.107  23.425  1.00  0.00     0.005 C 
ENDBRANCH   2   3
ENDBRANCH   1   2
BRANCH   1   5
HETATM    5  C   LIG     1      17.544  38.543  21.806  1.00  0.00     0.258 C 
HETATM    6  O   LIG     1      16.540  38.919  22.471  1.00  0.00    -0.265 OA
BRANCH   5   7
HETATM    7  O   LIG     1      18.352  39.475  21.149  1.00  0.00    -0.326 OA
HETATM    8  C   LIG     1      19.144  39.140  20.016  1.00  0.00     0.213 C 
ENDBRANCH   5   7
ENDBRANCH   1   5
TORSDOF 4
ENDMDL
MODEL 14
REMARK VINA RESULT:      -3.6      9.142     10.195
REMARK  4 active torsions:
REMARK  status: ('A' for Active; 'I' for Inactive)
REMARK    1  A    between atoms: C_2  and  C_3 
REMARK    2  A    between atoms: C_3  and  C_4 
REMARK    3  A    between atoms: C_4  and  C_5 
REMARK    4  A    between atoms: C_5  and  O_6 
ROOT
HETATM    1  C   LIG     1      14.199  32.827  16.768  1.00  0.00     0.111 C 
ENDROOT
BRANCH   1   2
HETATM    2  C   LIG     1      15.717  32.953  16.583  1.00  0.00     0.009 C 
BRANCH   2   3
HETATM    3  C   LIG     1      16.194  32.407  15.229  1.00  0.00    -0.004 C 
HETATM    4  C   LIG     1      17.480  33.075  14.743  1.00  0.00     0.005 C 
ENDBRANCH   2   3
ENDBRANCH   1   2
BRANCH   1   5
HETATM    5  C   LIG     1      13.859  31.565  17.495  1.00  0.00     0.258 C 
HETATM    6  O   LIG     1      14.284  31.384  18.670  1.00  0.00    -0.265 OA
BRANCH   5   7
HETATM    7  O   LIG     1      13.079  30.593  16.863  1.00  0.00    -0.326 OA
HETATM    8  C   LIG     1      13.097  30.392  15.455  1.00  0.00     0.213 C 
ENDBRANCH   5   7
ENDBRANCH   1   5
TORSDOF 4
ENDMDL
MODEL 15
REMARK VINA RESULT:      -3.6      9.145     10.359
REMARK  4 active torsions:
REMARK  status: ('A' for Active; 'I' for Inactive)
REMARK    1  A    between atoms: C_2  and  C_3 
REMARK    2  A    between atoms: C_3  and  C_4 
REMARK    3  A    between atoms: C_4  and  C_5 
REMARK    4  A    between atoms: C_5  and  O_6 
ROOT
HETATM    1  C   LIG     1      16.248  32.432  15.387  1.00  0.00     0.111 C 
ENDROOT
BRANCH   1   2
HETATM    2  C   LIG     1      17.612  33.009  14.983  1.00  0.00     0.009 C 
BRANCH   2   3
HETATM    3  C   LIG     1      17.629  33.526  13.537  1.00  0.00    -0.004 C 
HETATM    4  C   LIG     1      19.045  33.752  13.007  1.00  0.00     0.005 C 
ENDBRANCH   2   3
ENDBRANCH   1   2
BRANCH   1   5
HETATM    5  C   LIG     1      15.507  33.395  16.260  1.00  0.00     0.258 C 
HETATM    6  O   LIG     1      15.977  34.548  16.463  1.00  0.00    -0.265 OA
BRANCH   5   7
HETATM    7  O   LIG     1      14.301  33.004  16.849  1.00  0.00    -0.326 OA
HETATM    8  C   LIG     1      14.114  31.721  17.434  1.00  0.00     0.213 C 
ENDBRANCH   5   7
ENDBRANCH   1   5
TORSDOF 4
ENDMDL
MODEL 16
REMARK VINA RESULT:      -3.6      7.275      9.859
REMARK  4 active torsions:
REMARK  status: ('A' for Active; 'I' for Inactive)
REMARK    1  A    between atoms: C_2  and  C_3 
REMARK    2  A    between atoms: C_3  and  C_4 
REMARK    3  A    between atoms: C_4  and  C_5 
REMARK    4  A    between atoms: C_5  and  O_6 
ROOT
HETATM    1  C   LIG     1      14.757  32.135  16.199  1.00  0.00     0.111 C 
ENDROOT
BRANCH   1   2
HETATM    2  C   LIG     1      16.186  32.458  15.743  1.00  0.00     0.009 C 
BRANCH   2   3
HETATM    3  C   LIG     1      16.342  32.417  14.215  1.00  0.00    -0.004 C 
HETATM    4  C   LIG     1      17.473  33.314  13.713  1.00  0.00     0.005 C 
ENDBRANCH   2   3
ENDBRANCH   1   2
BRANCH   1   5
HETATM    5  C   LIG     1      14.675  32.101  17.693  1.00  0.00     0.258 C 
HETATM    6  O   LIG     1      13.914  31.270  18.260  1.00  0.00    -0.265 OA
BRANCH   5   7
HETATM    7  O   LIG     1      15.439  32.996  18.446  1.00  0.00    -0.326 OA
HETATM    8  C   LIG     1      15.454  32.984  19.868  1.00  0.00     0.213 C 
ENDBRANCH   5   7
ENDBRANCH   1   5
TORSDOF 4
ENDMDL
MODEL 17
REMARK VINA RESULT:      -3.6     10.265     11.682
REMARK  4 active torsions:
REMARK  status: ('A' for Active; 'I' for Inactive)
REMARK    1  A    between atoms: C_2  and  C_3 
REMARK    2  A    between atoms: C_3  and  C_4 
REMARK    3  A    between atoms: C_4  and  C_5 
REMARK    4  A    between atoms: C_5  and  O_6 
ROOT
HETATM    1  C   LIG     1      15.981  32.031  14.025  1.00  0.00     0.111 C 
ENDROOT
BRANCH   1   2
HETATM    2  C   LIG     1      15.362  30.838  14.766  1.00  0.00     0.009 C 
BRANCH   2   3
HETATM    3  C   LIG     1      14.655  29.858  13.817  1.00  0.00    -0.004 C 
HETATM    4  C   LIG     1      15.284  28.465  13.831  1.00  0.00     0.005 C 
ENDBRANCH   2   3
ENDBRANCH   1   2
BRANCH   1   5
HETATM    5  C   LIG     1      16.588  32.995  14.996  1.00  0.00     0.258 C 
HETATM    6  O   LIG     1      16.389  32.848  16.233  1.00  0.00    -0.265 OA
BRANCH   5   7
HETATM    7  O   LIG     1      17.366  34.055  14.520  1.00  0.00    -0.326 OA
HETATM    8  C   LIG     1      17.885  34.091  13.197  1.00  0.00     0.213 C 
ENDBRANCH   5   7
ENDBRANCH   1   5
TORSDOF 4
ENDMDL
MODEL 18
REMARK VINA RESULT:      -3.4      8.795     10.464
REMARK  4 active torsions:
REMARK  status: ('A' for Active; 'I' for Inactive)
REMARK    1  A    between atoms: C_2  and  C_3 
REMARK    2  A    between atoms: C_3  and  C_4 
REMARK    3  A    between atoms: C_4  and  C_5 
REMARK    4  A    between atoms: C_5  and  O_6 
ROOT
HETATM    1  C   LIG     1      15.855  32.485  15.953  1.00  0.00     0.111 C 
ENDROOT
BRANCH   1   2
HETATM    2  C   LIG     1      14.507  32.709  16.652  1.00  0.00     0.009 C 
BRANCH   2   3
HETATM    3  C   LIG     1      14.351  31.855  17.919  1.00  0.00    -0.004 C 
HETATM    4  C   LIG     1      15.262  32.315  19.056  1.00  0.00     0.005 C 
ENDBRANCH   2   3
ENDBRANCH   1   2
BRANCH   1   5
HETATM    5  C   LIG     1      15.681  31.635  14.733  1.00  0.00     0.258 C 
HETATM    6  O   LIG     1      15.880  32.131  13.590  1.00  0.00    -0.265 OA
BRANCH   5   7
HETATM    7  O   LIG     1      15.292  30.300  14.872  1.00  0.00    -0.326 OA
HETATM    8  C   LIG     1      14.072  29.798  14.341  1.00  0.00     0.213 C 
ENDBRANCH   5   7
ENDBRANCH   1   5
TORSDOF 4
ENDMDL
MODEL 19
REMARK VINA RESULT:      -3.4     10.639     11.618
REMARK  4 active torsions:
REMARK  status: ('A' for Active; 'I' for Inactive)
REMARK    1  A    between atoms: C_2  and  C_3 
REMARK    2  A    between atoms: C_3  and  C_4 
REMARK    3  A    between atoms: C_4  and  C_5 
REMARK    4  A    between atoms: C_5  and  O_6 
ROOT
HETATM    1  C   LIG     1      15.689  31.309  14.261  1.00  0.00     0.111 C 
ENDROOT
BRANCH   1   2
HETATM    2  C   LIG     1      16.129  32.402  15.244  1.00  0.00     0.009 C 
BRANCH   2   3
HETATM    3  C   LIG     1      17.466  33.047  14.849  1.00  0.00    -0.004 C 
HETATM    4  C   LIG     1      17.557  33.351  13.355  1.00  0.00     0.005 C 
ENDBRANCH   2   3
ENDBRANCH   1   2
BRANCH   1   5
HETATM    5  C   LIG     1      14.569  30.501  14.838  1.00  0.00     0.258 C 
HETATM    6  O   LIG     1      14.050  29.574  14.158  1.00  0.00    -0.265 OA
BRANCH   5   7
HETATM    7  O   LIG     1      14.103  30.788  16.124  1.00  0.00    -0.326 OA
HETATM    8  C   LIG     1      12.731  31.039  16.404  1.00  0.00     0.213 C 
ENDBRANCH   5   7
ENDBRANCH   1   5
TORSDOF 4
ENDMDL
MODEL 20
REMARK VINA RESULT:      -3.2     11.264     12.529
REMARK  4 active torsions:
REMARK  status: ('A' for Active; 'I' for Inactive)
REMARK    1  A    between atoms: C_2  and  C_3 
REMARK    2  A    between atoms: C_3  and  C_4 
REMARK    3  A    between atoms: C_4  and  C_5 
REMARK    4  A    between atoms: C_5  and  O_6 
ROOT
HETATM    1  C   LIG     1      15.307  30.777  13.735  1.00  0.00     0.111 C 
ENDROOT
BRANCH   1   2
HETATM    2  C   LIG     1      15.369  31.645  15.000  1.00  0.00     0.009 C 
BRANCH   2   3
HETATM    3  C   LIG     1      16.806  32.032  15.380  1.00  0.00    -0.004 C 
HETATM    4  C   LIG     1      17.247  33.352  14.751  1.00  0.00     0.005 C 
ENDBRANCH   2   3
ENDBRANCH   1   2
BRANCH   1   5
HETATM    5  C   LIG     1      14.887  29.381  14.074  1.00  0.00     0.258 C 
HETATM    6  O   LIG     1      15.762  28.488  14.246  1.00  0.00    -0.265 OA
BRANCH   5   7
HETATM    7  O   LIG     1      13.528  29.078  14.189  1.00  0.00    -0.326 OA
HETATM    8  C   LIG     1      12.996  27.802  13.858  1.00  0.00     0.213 C 
ENDBRANCH   5   7
ENDBRANCH   1   5
TORSDOF 4
ENDMDL
