REMARK  4 active torsions:
REMARK  status: ('A' for Active; 'I' for Inactive)
REMARK    1  A    between atoms: C_2  and  C_3 
REMARK    2  A    between atoms: C_3  and  C_4 
REMARK    3  A    between atoms: C_4  and  C_5 
REMARK    4  A    between atoms: C_5  and  O_6 
ROOT
HETATM    1  C   LIG     1       0.214  -0.171   0.915  1.00  0.00     0.111 C 
ENDROOT
BRANCH   1   2
HETATM    2  C   LIG     1      -0.726  -0.633  -0.207  1.00  0.00     0.009 C 
BRANCH   2   3
HETATM    3  C   LIG     1      -2.182  -0.772   0.263  1.00  0.00    -0.004 C 
HETATM    4  C   LIG     1      -2.842   0.577   0.546  1.00  0.00     0.005 C 
ENDBRANCH   2   3
ENDBRANCH   1   2
BRANCH   1   5
HETATM    5  C   LIG     1       1.635  -0.174   0.446  1.00  0.00     0.258 C 
HETATM    6  O   LIG     1       2.476  -0.935   0.999  1.00  0.00    -0.265 OA
BRANCH   5   7
HETATM    7  O   LIG     1       2.019   0.673  -0.597  1.00  0.00    -0.326 OA
HETATM    8  C   LIG     1       3.350   0.720  -1.096  1.00  0.00     0.213 C 
ENDBRANCH   5   7
ENDBRANCH   1   5
TORSDOF 4
