REMARK  5 active torsions:
REMARK  status: ('A' for Active; 'I' for Inactive)
REMARK    1  A    between atoms: C_2  and  C_5 
REMARK    2  A    between atoms: C_2  and  O_3 
REMARK    3  A    between atoms: C_5  and  C_6 
REMARK    4  A    between atoms: C_6  and  C_7 
REMARK    5  A    between atoms: C_7  and  C_8 
ROOT
HETATM    1  C   LIG     1      -3.333   0.547  -0.157  1.00  0.00     0.045 C 
HETATM    2  C   LIG     1      -2.050  -0.233   0.192  1.00  0.00     0.051 C 
HETATM    3  C   LIG     1      -1.996  -1.502  -0.677  1.00  0.00     0.045 C 
ENDROOT
BRANCH   2   4
HETATM    4  C   LIG     1      -0.812   0.672  -0.068  1.00  0.00     0.037 C 
BRANCH   4   5
HETATM    5  C   LIG     1       0.523   0.035   0.358  1.00  0.00     0.003 C 
BRANCH   5   6
HETATM    6  C   LIG     1       1.683   1.028   0.188  1.00  0.00    -0.000 C 
BRANCH   6   7
HETATM    7  C   LIG     1       3.019   0.469   0.701  1.00  0.00    -0.005 C 
HETATM    8  C   LIG     1       3.578  -0.641  -0.190  1.00  0.00     0.005 C 
ENDBRANCH   6   7
ENDBRANCH   5   6
ENDBRANCH   4   5
ENDBRANCH   2   4
BRANCH   2   9
HETATM    9  O   LIG     1      -2.099  -0.627   1.543  1.00  0.00    -0.391 OA
HETATM   10  H   LIG     1      -2.128   0.195   2.100  1.00  0.00     0.210 HD
ENDBRANCH   2   9
TORSDOF 5
