REMARK  4 active torsions:
REMARK  status: ('A' for Active; 'I' for Inactive)
REMARK    1  A    between atoms: C_2  and  C_5 
REMARK    2  A    between atoms: C_2  and  O_4 
REMARK    3  A    between atoms: C_5  and  C_6 
REMARK    4  A    between atoms: C_6  and  C_7 
ROOT
HETATM    1  C   LIG     1      -2.091   1.185  -0.215  1.00  0.00     0.045 C 
HETATM    2  C   LIG     1      -1.440  -0.214  -0.153  1.00  0.00     0.051 C 
HETATM    3  C   LIG     1      -2.294  -1.133   0.744  1.00  0.00     0.045 C 
ENDROOT
BRANCH   2   4
HETATM    4  C   LIG     1      -0.008  -0.137   0.438  1.00  0.00     0.037 C 
BRANCH   4   5
HETATM    5  C   LIG     1       0.979   0.671  -0.427  1.00  0.00     0.002 C 
BRANCH   5   6
HETATM    6  C   LIG     1       2.399   0.688   0.162  1.00  0.00    -0.004 C 
HETATM    7  C   LIG     1       3.130  -0.643  -0.012  1.00  0.00     0.005 C 
ENDBRANCH   5   6
ENDBRANCH   4   5
ENDBRANCH   2   4
BRANCH   2   8
HETATM    8  O   LIG     1      -1.366  -0.767  -1.447  1.00  0.00    -0.391 OA
HETATM    9  H   LIG     1      -2.288  -0.807  -1.817  1.00  0.00     0.210 HD
ENDBRANCH   2   8
TORSDOF 4
