MODEL 1
REMARK VINA RESULT:      -4.0      0.000      0.000
REMARK  2 active torsions:
REMARK  status: ('A' for Active; 'I' for Inactive)
REMARK    1  A    between atoms: C_2  and  O_3 
REMARK    2  A    between atoms: O_3  and  C_4 
ROOT
HETATM    1  O   LIG     1      16.201  37.825  24.472  1.00  0.00    -0.387 OA
ENDROOT
BRANCH   1   2
HETATM    2  C   LIG     1      17.502  38.130  24.930  1.00  0.00     0.163 C 
HETATM    3  C   LIG     1      17.922  37.099  25.966  1.00  0.00     0.033 C 
ENDBRANCH   1   2
BRANCH   1   4
HETATM    4  C   LIG     1      16.158  37.806  23.055  1.00  0.00     0.113 C 
HETATM    5  C   LIG     1      16.657  36.451  22.544  1.00  0.00     0.039 C 
HETATM    6  C   LIG     1      17.053  38.928  22.529  1.00  0.00     0.039 C 
ENDBRANCH   1   4
TORSDOF 2
ENDMDL
MODEL 2
REMARK VINA RESULT:      -3.8      1.395      3.485
REMARK  2 active torsions:
REMARK  status: ('A' for Active; 'I' for Inactive)
REMARK    1  A    between atoms: C_2  and  O_3 
REMARK    2  A    between atoms: O_3  and  C_4 
ROOT
HETATM    1  O   LIG     1      17.256  36.461  24.168  1.00  0.00    -0.387 OA
ENDROOT
BRANCH   1   2
HETATM    2  C   LIG     1      16.689  37.721  23.877  1.00  0.00     0.163 C 
HETATM    3  C   LIG     1      17.389  38.316  22.664  1.00  0.00     0.033 C 
ENDBRANCH   1   2
BRANCH   1   4
HETATM    4  C   LIG     1      17.404  36.289  25.568  1.00  0.00     0.113 C 
HETATM    5  C   LIG     1      18.666  37.014  26.045  1.00  0.00     0.039 C 
HETATM    6  C   LIG     1      17.515  34.793  25.862  1.00  0.00     0.039 C 
ENDBRANCH   1   4
TORSDOF 2
ENDMDL
MODEL 3
REMARK VINA RESULT:      -3.8      1.338      3.212
REMARK  2 active torsions:
REMARK  status: ('A' for Active; 'I' for Inactive)
REMARK    1  A    between atoms: C_2  and  O_3 
REMARK    2  A    between atoms: O_3  and  C_4 
ROOT
HETATM    1  O   LIG     1      16.891  36.913  24.961  1.00  0.00    -0.387 OA
ENDROOT
BRANCH   1   2
HETATM    2  C   LIG     1      17.415  38.206  24.738  1.00  0.00     0.163 C 
HETATM    3  C   LIG     1      17.401  38.500  23.245  1.00  0.00     0.033 C 
ENDBRANCH   1   2
BRANCH   1   4
HETATM    4  C   LIG     1      17.894  36.044  25.461  1.00  0.00     0.113 C 
HETATM    5  C   LIG     1      17.246  34.756  25.977  1.00  0.00     0.039 C 
HETATM    6  C   LIG     1      18.627  36.755  26.598  1.00  0.00     0.039 C 
ENDBRANCH   1   4
TORSDOF 2
ENDMDL
MODEL 4
REMARK VINA RESULT:      -3.5      3.228      3.764
REMARK  2 active torsions:
REMARK  status: ('A' for Active; 'I' for Inactive)
REMARK    1  A    between atoms: C_2  and  O_3 
REMARK    2  A    between atoms: O_3  and  C_4 
ROOT
HETATM    1  O   LIG     1      17.821  37.324  21.447  1.00  0.00    -0.387 OA
ENDROOT
BRANCH   1   2
HETATM    2  C   LIG     1      16.981  36.233  21.132  1.00  0.00     0.163 C 
HETATM    3  C   LIG     1      17.046  35.212  22.258  1.00  0.00     0.033 C 
ENDBRANCH   1   2
BRANCH   1   4
HETATM    4  C   LIG     1      18.377  37.886  20.269  1.00  0.00     0.113 C 
HETATM    5  C   LIG     1      19.266  36.849  19.576  1.00  0.00     0.039 C 
HETATM    6  C   LIG     1      19.205  39.109  20.661  1.00  0.00     0.039 C 
ENDBRANCH   1   4
TORSDOF 2
ENDMDL
MODEL 5
REMARK VINA RESULT:      -3.4      1.961      3.466
REMARK  2 active torsions:
REMARK  status: ('A' for Active; 'I' for Inactive)
REMARK    1  A    between atoms: C_2  and  O_3 
REMARK    2  A    between atoms: O_3  and  C_4 
ROOT
HETATM    1  O   LIG     1      17.615  37.354  21.432  1.00  0.00    -0.387 OA
ENDROOT
BRANCH   1   2
HETATM    2  C   LIG     1      17.732  38.739  21.681  1.00  0.00     0.163 C 
HETATM    3  C   LIG     1      18.862  39.305  20.834  1.00  0.00     0.033 C 
ENDBRANCH   1   2
BRANCH   1   4
HETATM    4  C   LIG     1      16.656  36.767  22.296  1.00  0.00     0.113 C 
HETATM    5  C   LIG     1      16.748  37.416  23.681  1.00  0.00     0.039 C 
HETATM    6  C   LIG     1      16.947  35.270  22.397  1.00  0.00     0.039 C 
ENDBRANCH   1   4
TORSDOF 2
ENDMDL
MODEL 6
REMARK VINA RESULT:      -3.4      1.446      2.947
REMARK  2 active torsions:
REMARK  status: ('A' for Active; 'I' for Inactive)
REMARK    1  A    between atoms: C_2  and  O_3 
REMARK    2  A    between atoms: O_3  and  C_4 
ROOT
HETATM    1  O   LIG     1      16.292  37.454  22.358  1.00  0.00    -0.387 OA
ENDROOT
BRANCH   1   2
HETATM    2  C   LIG     1      17.114  36.620  21.569  1.00  0.00     0.163 C 
HETATM    3  C   LIG     1      16.977  35.183  22.051  1.00  0.00     0.033 C 
ENDBRANCH   1   2
BRANCH   1   4
HETATM    4  C   LIG     1      17.022  38.573  22.835  1.00  0.00     0.113 C 
HETATM    5  C   LIG     1      18.096  38.959  21.813  1.00  0.00     0.039 C 
HETATM    6  C   LIG     1      17.674  38.194  24.164  1.00  0.00     0.039 C 
ENDBRANCH   1   4
TORSDOF 2
ENDMDL
MODEL 7
REMARK VINA RESULT:      -3.3      7.692      9.384
REMARK  2 active torsions:
REMARK  status: ('A' for Active; 'I' for Inactive)
REMARK    1  A    between atoms: C_2  and  O_3 
REMARK    2  A    between atoms: O_3  and  C_4 
ROOT
HETATM    1  O   LIG     1      13.832  31.482  17.955  1.00  0.00    -0.387 OA
ENDROOT
BRANCH   1   2
HETATM    2  C   LIG     1      13.122  31.810  16.779  1.00  0.00     0.163 C 
HETATM    3  C   LIG     1      13.050  30.585  15.880  1.00  0.00     0.033 C 
ENDBRANCH   1   2
BRANCH   1   4
HETATM    4  C   LIG     1      15.042  32.219  18.033  1.00  0.00     0.113 C 
HETATM    5  C   LIG     1      15.317  32.601  19.491  1.00  0.00     0.039 C 
HETATM    6  C   LIG     1      14.898  33.477  17.178  1.00  0.00     0.039 C 
ENDBRANCH   1   4
TORSDOF 2
ENDMDL
MODEL 8
REMARK VINA RESULT:      -3.3      2.808      3.973
REMARK  2 active torsions:
REMARK  status: ('A' for Active; 'I' for Inactive)
REMARK    1  A    between atoms: C_2  and  O_3 
REMARK    2  A    between atoms: O_3  and  C_4 
ROOT
HETATM    1  O   LIG     1      17.393  35.903  20.736  1.00  0.00    -0.387 OA
ENDROOT
BRANCH   1   2
HETATM    2  C   LIG     1      18.110  37.113  20.604  1.00  0.00     0.163 C 
HETATM    3  C   LIG     1      19.159  36.956  19.514  1.00  0.00     0.033 C 
ENDBRANCH   1   2
BRANCH   1   4
HETATM    4  C   LIG     1      16.473  35.979  21.812  1.00  0.00     0.113 C 
HETATM    5  C   LIG     1      15.059  35.689  21.299  1.00  0.00     0.039 C 
HETATM    6  C   LIG     1      16.538  37.385  22.407  1.00  0.00     0.039 C 
ENDBRANCH   1   4
TORSDOF 2
ENDMDL
MODEL 9
REMARK VINA RESULT:      -3.3      1.625      2.527
REMARK  2 active torsions:
REMARK  status: ('A' for Active; 'I' for Inactive)
REMARK    1  A    between atoms: C_2  and  O_3 
REMARK    2  A    between atoms: O_3  and  C_4 
ROOT
HETATM    1  O   LIG     1      17.020  35.979  23.096  1.00  0.00    -0.387 OA
ENDROOT
BRANCH   1   2
HETATM    2  C   LIG     1      16.513  37.279  23.316  1.00  0.00     0.163 C 
HETATM    3  C   LIG     1      16.985  37.775  24.674  1.00  0.00     0.033 C 
ENDBRANCH   1   2
BRANCH   1   4
HETATM    4  C   LIG     1      16.734  35.545  21.776  1.00  0.00     0.113 C 
HETATM    5  C   LIG     1      17.625  36.299  20.784  1.00  0.00     0.039 C 
HETATM    6  C   LIG     1      15.262  35.829  21.481  1.00  0.00     0.039 C 
ENDBRANCH   1   4
TORSDOF 2
ENDMDL
MODEL 10
REMARK VINA RESULT:      -3.2      2.315      3.266
REMARK  2 active torsions:
REMARK  status: ('A' for Active; 'I' for Inactive)
REMARK    1  A    between atoms: C_2  and  O_3 
REMARK    2  A    between atoms: O_3  and  C_4 
ROOT
HETATM    1  O   LIG     1      16.788  36.819  21.440  1.00  0.00    -0.387 OA
ENDROOT
BRANCH   1   2
HETATM    2  C   LIG     1      17.115  37.627  22.551  1.00  0.00     0.163 C 
HETATM    3  C   LIG     1      17.776  38.906  22.061  1.00  0.00     0.033 C 
ENDBRANCH   1   2
BRANCH   1   4
HETATM    4  C   LIG     1      17.098  35.459  21.698  1.00  0.00     0.113 C 
HETATM    5  C   LIG     1      16.104  34.556  20.961  1.00  0.00     0.039 C 
HETATM    6  C   LIG     1      17.008  35.220  23.205  1.00  0.00     0.039 C 
ENDBRANCH   1   4
TORSDOF 2
ENDMDL
MODEL 11
REMARK VINA RESULT:      -3.2      7.152      8.484
REMARK  2 active torsions:
REMARK  status: ('A' for Active; 'I' for Inactive)
REMARK    1  A    between atoms: C_2  and  O_3 
REMARK    2  A    between atoms: O_3  and  C_4 
ROOT
HETATM    1  O   LIG     1      15.744  32.635  17.811  1.00  0.00    -0.387 OA
ENDROOT
BRANCH   1   2
HETATM    2  C   LIG     1      15.045  32.227  18.969  1.00  0.00     0.163 C 
HETATM    3  C   LIG     1      15.450  33.117  20.135  1.00  0.00     0.033 C 
ENDBRANCH   1   2
BRANCH   1   4
HETATM    4  C   LIG     1      14.880  32.666  16.687  1.00  0.00     0.113 C 
HETATM    5  C   LIG     1      13.742  31.660  16.886  1.00  0.00     0.039 C 
HETATM    6  C   LIG     1      15.690  32.305  15.443  1.00  0.00     0.039 C 
ENDBRANCH   1   4
TORSDOF 2
ENDMDL
MODEL 12
REMARK VINA RESULT:      -3.2      3.236      4.946
REMARK  2 active torsions:
REMARK  status: ('A' for Active; 'I' for Inactive)
REMARK    1  A    between atoms: C_2  and  O_3 
REMARK    2  A    between atoms: O_3  and  C_4 
ROOT
HETATM    1  O   LIG     1      15.428  34.491  21.592  1.00  0.00    -0.387 OA
ENDROOT
BRANCH   1   2
HETATM    2  C   LIG     1      15.699  34.147  20.250  1.00  0.00     0.163 C 
HETATM    3  C   LIG     1      15.313  32.694  20.019  1.00  0.00     0.033 C 
ENDBRANCH   1   2
BRANCH   1   4
HETATM    4  C   LIG     1      16.237  35.579  22.006  1.00  0.00     0.113 C 
HETATM    5  C   LIG     1      17.189  35.972  20.871  1.00  0.00     0.039 C 
HETATM    6  C   LIG     1      17.036  35.148  23.235  1.00  0.00     0.039 C 
ENDBRANCH   1   4
TORSDOF 2
ENDMDL
MODEL 13
REMARK VINA RESULT:      -3.2     10.711     11.903
REMARK  2 active torsions:
REMARK  status: ('A' for Active; 'I' for Inactive)
REMARK    1  A    between atoms: C_2  and  O_3 
REMARK    2  A    between atoms: O_3  and  C_4 
ROOT
HETATM    1  O   LIG     1      16.133  31.051  13.968  1.00  0.00    -0.387 OA
ENDROOT
BRANCH   1   2
HETATM    2  C   LIG     1      16.126  32.026  14.989  1.00  0.00     0.163 C 
HETATM    3  C   LIG     1      17.330  32.940  14.815  1.00  0.00     0.033 C 
ENDBRANCH   1   2
BRANCH   1   4
HETATM    4  C   LIG     1      14.928  30.304  13.977  1.00  0.00     0.113 C 
HETATM    5  C   LIG     1      14.163  30.579  15.275  1.00  0.00     0.039 C 
HETATM    6  C   LIG     1      15.277  28.820  13.877  1.00  0.00     0.039 C 
ENDBRANCH   1   4
TORSDOF 2
ENDMDL
MODEL 14
REMARK VINA RESULT:      -3.2      1.497      3.252
REMARK  2 active torsions:
REMARK  status: ('A' for Active; 'I' for Inactive)
REMARK    1  A    between atoms: C_2  and  O_3 
REMARK    2  A    between atoms: O_3  and  C_4 
ROOT
HETATM    1  O   LIG     1      16.286  36.571  22.611  1.00  0.00    -0.387 OA
ENDROOT
BRANCH   1   2
HETATM    2  C   LIG     1      16.991  35.611  21.852  1.00  0.00     0.163 C 
HETATM    3  C   LIG     1      16.242  35.352  20.554  1.00  0.00     0.033 C 
ENDBRANCH   1   2
BRANCH   1   4
HETATM    4  C   LIG     1      17.175  37.528  23.162  1.00  0.00     0.113 C 
HETATM    5  C   LIG     1      16.928  37.651  24.669  1.00  0.00     0.039 C 
HETATM    6  C   LIG     1      16.923  38.872  22.478  1.00  0.00     0.039 C 
ENDBRANCH   1   4
TORSDOF 2
ENDMDL
MODEL 15
REMARK VINA RESULT:      -3.2      9.917     11.481
REMARK  2 active torsions:
REMARK  status: ('A' for Active; 'I' for Inactive)
REMARK    1  A    between atoms: C_2  and  O_3 
REMARK    2  A    between atoms: O_3  and  C_4 
ROOT
HETATM    1  O   LIG     1      16.346  31.093  14.498  1.00  0.00    -0.387 OA
ENDROOT
BRANCH   1   2
HETATM    2  C   LIG     1      15.358  30.691  13.572  1.00  0.00     0.163 C 
HETATM    3  C   LIG     1      14.451  29.659  14.226  1.00  0.00     0.033 C 
ENDBRANCH   1   2
BRANCH   1   4
HETATM    4  C   LIG     1      16.244  32.481  14.771  1.00  0.00     0.113 C 
HETATM    5  C   LIG     1      17.639  33.112  14.752  1.00  0.00     0.039 C 
HETATM    6  C   LIG     1      15.606  32.658  16.148  1.00  0.00     0.039 C 
ENDBRANCH   1   4
TORSDOF 2
ENDMDL
MODEL 16
REMARK VINA RESULT:      -3.1      5.029      6.402
REMARK  2 active torsions:
REMARK  status: ('A' for Active; 'I' for Inactive)
REMARK    1  A    between atoms: C_2  and  O_3 
REMARK    2  A    between atoms: O_3  and  C_4 
ROOT
HETATM    1  O   LIG     1      16.007  33.387  20.136  1.00  0.00    -0.387 OA
ENDROOT
BRANCH   1   2
HETATM    2  C   LIG     1      15.755  34.775  20.063  1.00  0.00     0.163 C 
HETATM    3  C   LIG     1      16.758  35.512  20.937  1.00  0.00     0.033 C 
ENDBRANCH   1   2
BRANCH   1   4
HETATM    4  C   LIG     1      14.956  32.653  19.531  1.00  0.00     0.113 C 
HETATM    5  C   LIG     1      14.940  31.226  20.087  1.00  0.00     0.039 C 
HETATM    6  C   LIG     1      15.192  32.625  18.021  1.00  0.00     0.039 C 
ENDBRANCH   1   4
TORSDOF 2
ENDMDL
MODEL 17
REMARK VINA RESULT:      -3.0     12.347     13.602
REMARK  2 active torsions:
REMARK  status: ('A' for Active; 'I' for Inactive)
REMARK    1  A    between atoms: C_2  and  O_3 
REMARK    2  A    between atoms: O_3  and  C_4 
ROOT
HETATM    1  O   LIG     1      15.778  28.948  14.111  1.00  0.00    -0.387 OA
ENDROOT
BRANCH   1   2
HETATM    2  C   LIG     1      15.233  27.714  13.693  1.00  0.00     0.163 C 
HETATM    3  C   LIG     1      15.855  27.317  12.363  1.00  0.00     0.033 C 
ENDBRANCH   1   2
BRANCH   1   4
HETATM    4  C   LIG     1      14.900  30.017  13.800  1.00  0.00     0.113 C 
HETATM    5  C   LIG     1      15.712  31.286  13.526  1.00  0.00     0.039 C 
HETATM    6  C   LIG     1      13.965  30.237  14.989  1.00  0.00     0.039 C 
ENDBRANCH   1   4
TORSDOF 2
ENDMDL
MODEL 18
REMARK VINA RESULT:      -3.0      8.928     10.638
REMARK  2 active torsions:
REMARK  status: ('A' for Active; 'I' for Inactive)
REMARK    1  A    between atoms: C_2  and  O_3 
REMARK    2  A    between atoms: O_3  and  C_4 
ROOT
HETATM    1  O   LIG     1      15.155  31.815  15.810  1.00  0.00    -0.387 OA
ENDROOT
BRANCH   1   2
HETATM    2  C   LIG     1      14.456  30.749  15.204  1.00  0.00     0.163 C 
HETATM    3  C   LIG     1      15.131  30.393  13.888  1.00  0.00     0.033 C 
ENDBRANCH   1   2
BRANCH   1   4
HETATM    4  C   LIG     1      14.337  32.477  16.761  1.00  0.00     0.113 C 
HETATM    5  C   LIG     1      15.025  32.460  18.130  1.00  0.00     0.039 C 
HETATM    6  C   LIG     1      12.997  31.747  16.838  1.00  0.00     0.039 C 
ENDBRANCH   1   4
TORSDOF 2
ENDMDL
MODEL 19
REMARK VINA RESULT:      -3.0     10.359     11.454
REMARK  2 active torsions:
REMARK  status: ('A' for Active; 'I' for Inactive)
REMARK    1  A    between atoms: C_2  and  O_3 
REMARK    2  A    between atoms: O_3  and  C_4 
ROOT
HETATM    1  O   LIG     1      15.333  31.749  14.452  1.00  0.00    -0.387 OA
ENDROOT
BRANCH   1   2
HETATM    2  C   LIG     1      16.029  32.482  15.439  1.00  0.00     0.163 C 
HETATM    3  C   LIG     1      17.365  32.938  14.874  1.00  0.00     0.033 C 
ENDBRANCH   1   2
BRANCH   1   4
HETATM    4  C   LIG     1      14.991  30.459  14.931  1.00  0.00     0.113 C 
HETATM    5  C   LIG     1      15.208  29.426  13.821  1.00  0.00     0.039 C 
HETATM    6  C   LIG     1      13.523  30.474  15.356  1.00  0.00     0.039 C 
ENDBRANCH   1   4
TORSDOF 2
ENDMDL
MODEL 20
REMARK VINA RESULT:      -2.9     10.194     11.147
REMARK  2 active torsions:
REMARK  status: ('A' for Active; 'I' for Inactive)
REMARK    1  A    between atoms: C_2  and  O_3 
REMARK    2  A    between atoms: O_3  and  C_4 
ROOT
HETATM    1  O   LIG     1      16.391  32.989  13.952  1.00  0.00    -0.387 OA
ENDROOT
BRANCH   1   2
HETATM    2  C   LIG     1      17.589  33.592  14.395  1.00  0.00     0.163 C 
HETATM    3  C   LIG     1      18.566  33.676  13.232  1.00  0.00     0.033 C 
ENDBRANCH   1   2
BRANCH   1   4
HETATM    4  C   LIG     1      16.099  31.831  14.716  1.00  0.00     0.113 C 
HETATM    5  C   LIG     1      15.318  30.831  13.857  1.00  0.00     0.039 C 
HETATM    6  C   LIG     1      15.264  32.247  15.927  1.00  0.00     0.039 C 
ENDBRANCH   1   4
TORSDOF 2
ENDMDL
