MODEL 1
REMARK VINA RESULT:      -4.2      0.000      0.000
REMARK  2 active torsions:
REMARK  status: ('A' for Active; 'I' for Inactive)
REMARK    1  A    between atoms: C_2  and  C_4 
REMARK    2  A    between atoms: C_4  and  C_5 
ROOT
HETATM    1  C   LIG     1      17.415  38.487  22.901  1.00  0.00     0.026 C 
HETATM    2  C   LIG     1      16.739  37.563  23.913  1.00  0.00     0.078 C 
HETATM    3 CL   LIG     1      17.069  35.864  23.461  1.00  0.00    -0.125 Cl
ENDROOT
BRANCH   2   4
HETATM    4  C   LIG     1      17.240  37.855  25.338  1.00  0.00     0.019 C 
BRANCH   4   5
HETATM    5  C   LIG     1      18.514  37.066  25.673  1.00  0.00    -0.003 C 
HETATM    6  C   LIG     1      18.268  36.079  26.810  1.00  0.00     0.005 C 
ENDBRANCH   4   5
ENDBRANCH   2   4
TORSDOF 2
ENDMDL
MODEL 2
REMARK VINA RESULT:      -4.1      1.527      1.607
REMARK  2 active torsions:
REMARK  status: ('A' for Active; 'I' for Inactive)
REMARK    1  A    between atoms: C_2  and  C_4 
REMARK    2  A    between atoms: C_4  and  C_5 
ROOT
HETATM    1  C   LIG     1      15.787  37.707  22.998  1.00  0.00     0.026 C 
HETATM    2  C   LIG     1      17.192  37.567  23.580  1.00  0.00     0.078 C 
HETATM    3 CL   LIG     1      18.266  38.771  22.807  1.00  0.00    -0.125 Cl
ENDROOT
BRANCH   2   4
HETATM    4  C   LIG     1      17.171  37.758  25.107  1.00  0.00     0.019 C 
BRANCH   4   5
HETATM    5  C   LIG     1      18.241  36.908  25.809  1.00  0.00    -0.003 C 
HETATM    6  C   LIG     1      17.805  35.450  25.912  1.00  0.00     0.005 C 
ENDBRANCH   4   5
ENDBRANCH   2   4
TORSDOF 2
ENDMDL
MODEL 3
REMARK VINA RESULT:      -4.1      1.941      3.074
REMARK  2 active torsions:
REMARK  status: ('A' for Active; 'I' for Inactive)
REMARK    1  A    between atoms: C_2  and  C_4 
REMARK    2  A    between atoms: C_4  and  C_5 
ROOT
HETATM    1  C   LIG     1      17.167  35.102  24.247  1.00  0.00     0.026 C 
HETATM    2  C   LIG     1      17.488  35.744  25.596  1.00  0.00     0.078 C 
HETATM    3 CL   LIG     1      18.634  34.695  26.482  1.00  0.00    -0.125 Cl
ENDROOT
BRANCH   2   4
HETATM    4  C   LIG     1      18.078  37.153  25.403  1.00  0.00     0.019 C 
BRANCH   4   5
HETATM    5  C   LIG     1      17.127  38.072  24.622  1.00  0.00    -0.003 C 
HETATM    6  C   LIG     1      17.749  38.511  23.300  1.00  0.00     0.005 C 
ENDBRANCH   4   5
ENDBRANCH   2   4
TORSDOF 2
ENDMDL
MODEL 4
REMARK VINA RESULT:      -4.0      3.540      4.662
REMARK  2 active torsions:
REMARK  status: ('A' for Active; 'I' for Inactive)
REMARK    1  A    between atoms: C_2  and  C_4 
REMARK    2  A    between atoms: C_4  and  C_5 
ROOT
HETATM    1  C   LIG     1      20.517  38.786  19.417  1.00  0.00     0.026 C 
HETATM    2  C   LIG     1      19.030  38.558  19.680  1.00  0.00     0.078 C 
HETATM    3 CL   LIG     1      18.716  36.799  19.761  1.00  0.00    -0.125 Cl
ENDROOT
BRANCH   2   4
HETATM    4  C   LIG     1      18.593  39.250  20.983  1.00  0.00     0.019 C 
BRANCH   4   5
HETATM    5  C   LIG     1      17.880  38.281  21.938  1.00  0.00    -0.003 C 
HETATM    6  C   LIG     1      16.674  38.946  22.595  1.00  0.00     0.005 C 
ENDBRANCH   4   5
ENDBRANCH   2   4
TORSDOF 2
ENDMDL
MODEL 5
REMARK VINA RESULT:      -3.9      3.406      4.728
REMARK  2 active torsions:
REMARK  status: ('A' for Active; 'I' for Inactive)
REMARK    1  A    between atoms: C_2  and  C_4 
REMARK    2  A    between atoms: C_4  and  C_5 
ROOT
HETATM    1  C   LIG     1      17.540  36.805  21.159  1.00  0.00     0.026 C 
HETATM    2  C   LIG     1      17.467  38.167  21.846  1.00  0.00     0.078 C 
HETATM    3 CL   LIG     1      17.253  37.921  23.605  1.00  0.00    -0.125 Cl
ENDROOT
BRANCH   2   4
HETATM    4  C   LIG     1      18.735  38.991  21.562  1.00  0.00     0.019 C 
BRANCH   4   5
HETATM    5  C   LIG     1      18.886  39.318  20.068  1.00  0.00    -0.003 C 
HETATM    6  C   LIG     1      20.226  38.825  19.530  1.00  0.00     0.005 C 
ENDBRANCH   4   5
ENDBRANCH   2   4
TORSDOF 2
ENDMDL
MODEL 6
REMARK VINA RESULT:      -3.9      2.669      4.168
REMARK  2 active torsions:
REMARK  status: ('A' for Active; 'I' for Inactive)
REMARK    1  A    between atoms: C_2  and  C_4 
REMARK    2  A    between atoms: C_4  and  C_5 
ROOT
HETATM    1  C   LIG     1      15.540  37.649  22.793  1.00  0.00     0.026 C 
HETATM    2  C   LIG     1      16.974  37.129  22.715  1.00  0.00     0.078 C 
HETATM    3 CL   LIG     1      16.945  35.340  22.716  1.00  0.00    -0.125 Cl
ENDROOT
BRANCH   2   4
HETATM    4  C   LIG     1      17.679  37.661  21.455  1.00  0.00     0.019 C 
BRANCH   4   5
HETATM    5  C   LIG     1      17.994  36.538  20.455  1.00  0.00    -0.003 C 
HETATM    6  C   LIG     1      19.149  36.928  19.537  1.00  0.00     0.005 C 
ENDBRANCH   4   5
ENDBRANCH   2   4
TORSDOF 2
ENDMDL
MODEL 7
REMARK VINA RESULT:      -3.9      0.981      1.218
REMARK  2 active torsions:
REMARK  status: ('A' for Active; 'I' for Inactive)
REMARK    1  A    between atoms: C_2  and  C_4 
REMARK    2  A    between atoms: C_4  and  C_5 
ROOT
HETATM    1  C   LIG     1      18.059  38.449  21.669  1.00  0.00     0.026 C 
HETATM    2  C   LIG     1      17.150  37.937  22.785  1.00  0.00     0.078 C 
HETATM    3 CL   LIG     1      16.841  36.194  22.532  1.00  0.00    -0.125 Cl
ENDROOT
BRANCH   2   4
HETATM    4  C   LIG     1      17.789  38.182  24.164  1.00  0.00     0.019 C 
BRANCH   4   5
HETATM    5  C   LIG     1      17.356  37.128  25.194  1.00  0.00    -0.003 C 
HETATM    6  C   LIG     1      18.483  36.824  26.176  1.00  0.00     0.005 C 
ENDBRANCH   4   5
ENDBRANCH   2   4
TORSDOF 2
ENDMDL
MODEL 8
REMARK VINA RESULT:      -3.8      2.502      3.721
REMARK  2 active torsions:
REMARK  status: ('A' for Active; 'I' for Inactive)
REMARK    1  A    between atoms: C_2  and  C_4 
REMARK    2  A    between atoms: C_4  and  C_5 
ROOT
HETATM    1  C   LIG     1      17.462  35.211  25.028  1.00  0.00     0.026 C 
HETATM    2  C   LIG     1      17.029  36.584  24.516  1.00  0.00     0.078 C 
HETATM    3 CL   LIG     1      18.230  37.804  25.033  1.00  0.00    -0.125 Cl
ENDROOT
BRANCH   2   4
HETATM    4  C   LIG     1      16.887  36.575  22.984  1.00  0.00     0.019 C 
BRANCH   4   5
HETATM    5  C   LIG     1      17.013  35.159  22.402  1.00  0.00    -0.003 C 
HETATM    6  C   LIG     1      15.762  34.773  21.620  1.00  0.00     0.005 C 
ENDBRANCH   4   5
ENDBRANCH   2   4
TORSDOF 2
ENDMDL
MODEL 9
REMARK VINA RESULT:      -3.8      0.985      3.092
REMARK  2 active torsions:
REMARK  status: ('A' for Active; 'I' for Inactive)
REMARK    1  A    between atoms: C_2  and  C_4 
REMARK    2  A    between atoms: C_4  and  C_5 
ROOT
HETATM    1  C   LIG     1      18.087  36.912  26.355  1.00  0.00     0.026 C 
HETATM    2  C   LIG     1      17.773  36.696  24.876  1.00  0.00     0.078 C 
HETATM    3 CL   LIG     1      17.272  34.997  24.628  1.00  0.00    -0.125 Cl
ENDROOT
BRANCH   2   4
HETATM    4  C   LIG     1      16.671  37.663  24.406  1.00  0.00     0.019 C 
BRANCH   4   5
HETATM    5  C   LIG     1      17.169  38.611  23.305  1.00  0.00    -0.003 C 
HETATM    6  C   LIG     1      17.504  37.845  22.029  1.00  0.00     0.005 C 
ENDBRANCH   4   5
ENDBRANCH   2   4
TORSDOF 2
ENDMDL
MODEL 10
REMARK VINA RESULT:      -3.8      3.551      5.153
REMARK  2 active torsions:
REMARK  status: ('A' for Active; 'I' for Inactive)
REMARK    1  A    between atoms: C_2  and  C_4 
REMARK    2  A    between atoms: C_4  and  C_5 
ROOT
HETATM    1  C   LIG     1      17.309  37.558  21.779  1.00  0.00     0.026 C 
HETATM    2  C   LIG     1      17.779  36.395  20.907  1.00  0.00     0.078 C 
HETATM    3 CL   LIG     1      16.349  35.508  20.299  1.00  0.00    -0.125 Cl
ENDROOT
BRANCH   2   4
HETATM    4  C   LIG     1      18.642  36.903  19.738  1.00  0.00     0.019 C 
BRANCH   4   5
HETATM    5  C   LIG     1      18.913  38.411  19.837  1.00  0.00    -0.003 C 
HETATM    6  C   LIG     1      20.367  38.732  19.502  1.00  0.00     0.005 C 
ENDBRANCH   4   5
ENDBRANCH   2   4
TORSDOF 2
ENDMDL
MODEL 11
REMARK VINA RESULT:      -3.8      2.342      3.497
REMARK  2 active torsions:
REMARK  status: ('A' for Active; 'I' for Inactive)
REMARK    1  A    between atoms: C_2  and  C_4 
REMARK    2  A    between atoms: C_4  and  C_5 
ROOT
HETATM    1  C   LIG     1      17.215  35.943  21.295  1.00  0.00     0.026 C 
HETATM    2  C   LIG     1      16.736  36.347  22.688  1.00  0.00     0.078 C 
HETATM    3 CL   LIG     1      17.164  35.055  23.849  1.00  0.00    -0.125 Cl
ENDROOT
BRANCH   2   4
HETATM    4  C   LIG     1      17.362  37.688  23.111  1.00  0.00     0.019 C 
BRANCH   4   5
HETATM    5  C   LIG     1      17.212  38.762  22.024  1.00  0.00    -0.003 C 
HETATM    6  C   LIG     1      18.570  39.328  21.619  1.00  0.00     0.005 C 
ENDBRANCH   4   5
ENDBRANCH   2   4
TORSDOF 2
ENDMDL
MODEL 12
REMARK VINA RESULT:      -3.7      3.050      3.995
REMARK  2 active torsions:
REMARK  status: ('A' for Active; 'I' for Inactive)
REMARK    1  A    between atoms: C_2  and  C_4 
REMARK    2  A    between atoms: C_4  and  C_5 
ROOT
HETATM    1  C   LIG     1      17.666  38.843  21.795  1.00  0.00     0.026 C 
HETATM    2  C   LIG     1      17.151  37.514  22.345  1.00  0.00     0.078 C 
HETATM    3 CL   LIG     1      15.453  37.720  22.869  1.00  0.00    -0.125 Cl
ENDROOT
BRANCH   2   4
HETATM    4  C   LIG     1      17.262  36.404  21.285  1.00  0.00     0.019 C 
BRANCH   4   5
HETATM    5  C   LIG     1      16.782  35.047  21.820  1.00  0.00    -0.003 C 
HETATM    6  C   LIG     1      15.932  34.317  20.784  1.00  0.00     0.005 C 
ENDBRANCH   4   5
ENDBRANCH   2   4
TORSDOF 2
ENDMDL
MODEL 13
REMARK VINA RESULT:      -3.6      2.140      2.982
REMARK  2 active torsions:
REMARK  status: ('A' for Active; 'I' for Inactive)
REMARK    1  A    between atoms: C_2  and  C_4 
REMARK    2  A    between atoms: C_4  and  C_5 
ROOT
HETATM    1  C   LIG     1      15.042  35.779  21.349  1.00  0.00     0.026 C 
HETATM    2  C   LIG     1      16.270  36.317  22.082  1.00  0.00     0.078 C 
HETATM    3 CL   LIG     1      17.606  36.519  20.909  1.00  0.00    -0.125 Cl
ENDROOT
BRANCH   2   4
HETATM    4  C   LIG     1      15.950  37.652  22.777  1.00  0.00     0.019 C 
BRANCH   4   5
HETATM    5  C   LIG     1      17.210  38.323  23.343  1.00  0.00    -0.003 C 
HETATM    6  C   LIG     1      17.346  38.064  24.840  1.00  0.00     0.005 C 
ENDBRANCH   4   5
ENDBRANCH   2   4
TORSDOF 2
ENDMDL
MODEL 14
REMARK VINA RESULT:      -3.6      1.948      3.610
REMARK  2 active torsions:
REMARK  status: ('A' for Active; 'I' for Inactive)
REMARK    1  A    between atoms: C_2  and  C_4 
REMARK    2  A    between atoms: C_4  and  C_5 
ROOT
HETATM    1  C   LIG     1      16.504  37.387  24.044  1.00  0.00     0.026 C 
HETATM    2  C   LIG     1      17.685  38.139  24.655  1.00  0.00     0.078 C 
HETATM    3 CL   LIG     1      18.560  37.046  25.767  1.00  0.00    -0.125 Cl
ENDROOT
BRANCH   2   4
HETATM    4  C   LIG     1      18.626  38.662  23.555  1.00  0.00     0.019 C 
BRANCH   4   5
HETATM    5  C   LIG     1      17.869  38.991  22.259  1.00  0.00    -0.003 C 
HETATM    6  C   LIG     1      18.833  39.171  21.090  1.00  0.00     0.005 C 
ENDBRANCH   4   5
ENDBRANCH   2   4
TORSDOF 2
ENDMDL
MODEL 15
REMARK VINA RESULT:      -3.6      3.059      4.119
REMARK  2 active torsions:
REMARK  status: ('A' for Active; 'I' for Inactive)
REMARK    1  A    between atoms: C_2  and  C_4 
REMARK    2  A    between atoms: C_4  and  C_5 
ROOT
HETATM    1  C   LIG     1      17.786  38.428  23.243  1.00  0.00     0.026 C 
HETATM    2  C   LIG     1      17.570  38.402  21.731  1.00  0.00     0.078 C 
HETATM    3 CL   LIG     1      18.849  39.375  20.944  1.00  0.00    -0.125 Cl
ENDROOT
BRANCH   2   4
HETATM    4  C   LIG     1      17.583  36.957  21.202  1.00  0.00     0.019 C 
BRANCH   4   5
HETATM    5  C   LIG     1      16.707  36.025  22.053  1.00  0.00    -0.003 C 
HETATM    6  C   LIG     1      15.365  35.762  21.375  1.00  0.00     0.005 C 
ENDBRANCH   4   5
ENDBRANCH   2   4
TORSDOF 2
ENDMDL
MODEL 16
REMARK VINA RESULT:      -3.6     11.639     12.476
REMARK  2 active torsions:
REMARK  status: ('A' for Active; 'I' for Inactive)
REMARK    1  A    between atoms: C_2  and  C_4 
REMARK    2  A    between atoms: C_4  and  C_5 
ROOT
HETATM    1  C   LIG     1      15.238  28.631  13.884  1.00  0.00     0.026 C 
HETATM    2  C   LIG     1      14.994  29.997  14.523  1.00  0.00     0.078 C 
HETATM    3 CL   LIG     1      15.587  31.271  13.416  1.00  0.00    -0.125 Cl
ENDROOT
BRANCH   2   4
HETATM    4  C   LIG     1      13.499  30.197  14.831  1.00  0.00     0.019 C 
BRANCH   4   5
HETATM    5  C   LIG     1      13.265  30.634  16.284  1.00  0.00    -0.003 C 
HETATM    6  C   LIG     1      14.182  31.792  16.665  1.00  0.00     0.005 C 
ENDBRANCH   4   5
ENDBRANCH   2   4
TORSDOF 2
ENDMDL
MODEL 17
REMARK VINA RESULT:      -3.6      4.136      5.263
REMARK  2 active torsions:
REMARK  status: ('A' for Active; 'I' for Inactive)
REMARK    1  A    between atoms: C_2  and  C_4 
REMARK    2  A    between atoms: C_4  and  C_5 
ROOT
HETATM    1  C   LIG     1      17.032  35.181  23.220  1.00  0.00     0.026 C 
HETATM    2  C   LIG     1      16.370  35.815  21.998  1.00  0.00     0.078 C 
HETATM    3 CL   LIG     1      17.626  36.184  20.780  1.00  0.00    -0.125 Cl
ENDROOT
BRANCH   2   4
HETATM    4  C   LIG     1      15.300  34.877  21.409  1.00  0.00     0.019 C 
BRANCH   4   5
HETATM    5  C   LIG     1      15.721  34.308  20.046  1.00  0.00    -0.003 C 
HETATM    6  C   LIG     1      15.447  32.809  19.968  1.00  0.00     0.005 C 
ENDBRANCH   4   5
ENDBRANCH   2   4
TORSDOF 2
ENDMDL
MODEL 18
REMARK VINA RESULT:      -3.5      2.525      3.512
REMARK  2 active torsions:
REMARK  status: ('A' for Active; 'I' for Inactive)
REMARK    1  A    between atoms: C_2  and  C_4 
REMARK    2  A    between atoms: C_4  and  C_5 
ROOT
HETATM    1  C   LIG     1      18.255  36.684  20.047  1.00  0.00     0.026 C 
HETATM    2  C   LIG     1      17.938  37.330  21.395  1.00  0.00     0.078 C 
HETATM    3 CL   LIG     1      17.989  39.109  21.214  1.00  0.00    -0.125 Cl
ENDROOT
BRANCH   2   4
HETATM    4  C   LIG     1      16.560  36.875  21.908  1.00  0.00     0.019 C 
BRANCH   4   5
HETATM    5  C   LIG     1      16.024  37.796  23.013  1.00  0.00    -0.003 C 
HETATM    6  C   LIG     1      16.772  37.574  24.324  1.00  0.00     0.005 C 
ENDBRANCH   4   5
ENDBRANCH   2   4
TORSDOF 2
ENDMDL
MODEL 19
REMARK VINA RESULT:      -3.4     10.070     11.176
REMARK  2 active torsions:
REMARK  status: ('A' for Active; 'I' for Inactive)
REMARK    1  A    between atoms: C_2  and  C_4 
REMARK    2  A    between atoms: C_4  and  C_5 
ROOT
HETATM    1  C   LIG     1      13.074  30.922  16.312  1.00  0.00     0.026 C 
HETATM    2  C   LIG     1      13.998  32.033  16.808  1.00  0.00     0.078 C 
HETATM    3 CL   LIG     1      14.469  31.687  18.499  1.00  0.00    -0.125 Cl
ENDROOT
BRANCH   2   4
HETATM    4  C   LIG     1      15.242  32.150  15.909  1.00  0.00     0.019 C 
BRANCH   4   5
HETATM    5  C   LIG     1      15.224  31.124  14.766  1.00  0.00    -0.003 C 
HETATM    6  C   LIG     1      15.864  31.695  13.505  1.00  0.00     0.005 C 
ENDBRANCH   4   5
ENDBRANCH   2   4
TORSDOF 2
ENDMDL
MODEL 20
REMARK VINA RESULT:      -3.3     10.715     11.748
REMARK  2 active torsions:
REMARK  status: ('A' for Active; 'I' for Inactive)
REMARK    1  A    between atoms: C_2  and  C_4 
REMARK    2  A    between atoms: C_4  and  C_5 
ROOT
HETATM    1  C   LIG     1      17.668  33.001  14.860  1.00  0.00     0.026 C 
HETATM    2  C   LIG     1      16.463  32.126  15.202  1.00  0.00     0.078 C 
HETATM    3 CL   LIG     1      15.340  33.060  16.235  1.00  0.00    -0.125 Cl
ENDROOT
BRANCH   2   4
HETATM    4  C   LIG     1      15.755  31.649  13.922  1.00  0.00     0.019 C 
BRANCH   4   5
HETATM    5  C   LIG     1      15.310  30.182  14.024  1.00  0.00    -0.003 C 
HETATM    6  C   LIG     1      13.968  30.064  14.741  1.00  0.00     0.005 C 
ENDBRANCH   4   5
ENDBRANCH   2   4
TORSDOF 2
ENDMDL
